# DDEC6 charges by PACMAN v1.1 (https://github.com/mtap-research/PACMAN-charge/)
data_2019[Ni][dia]3[ASR]2
_chemical_formula_sum              "Ni4 H96 C144 N8 O16"
_cell_length_a       18.9478
_cell_length_b       18.9478
_cell_length_c       18.9478
_cell_angle_alpha    100.618
_cell_angle_beta     100.618
_cell_angle_gamma    129.159

_symmetry_space_group_name_H-M    "P 1"
_symmetry_Int_Tables_number       1

loop_
  _symmetry_equiv_pos_as_xyz
  'x, y, z'

loop_
  _atom_site_type_symbol
  _atom_site_label
  _atom_site_symmetry_multiplicity
  _atom_site_fract_x
  _atom_site_fract_y
  _atom_site_fract_z
  _atom_site_occupancy
  _atom_site_charge
Ni  Ni1       1.0  0.22221  0.22221  0.00000  1.0000 0.67758854
Ni  Ni2       1.0  0.47221  0.97221  0.50000  1.0000 0.67758854
Ni  Ni3       1.0  0.72221  0.72221  0.00000  1.0000 0.67758854
Ni  Ni4       1.0  0.97221  0.47221  0.50000  1.0000 0.67758854
H   H1        1.0  0.08480  0.91850  0.00550  1.0000 0.1188476924
H   H2        1.0  0.97970  0.74790  0.94520  1.0000 0.1188476924
H   H3        1.0  0.95130  0.76550  0.73360  1.0000 0.1119188317
H   H4        1.0  0.05530  0.93690  0.79420  1.0000 0.1188476924
H   H5        1.0  0.80540  0.58630  0.85690  1.0000 0.1307810621
H   H6        1.0  0.69860  0.41630  0.78570  1.0000 0.1119188317
H   H7        1.0  0.85230  0.47160  0.64690  1.0000 0.1307810621
H   H8        1.0  0.95240  0.64050  0.71410  1.0000 0.104110577
H   H9        1.0  0.56830  0.28290  0.65060  1.0000 0.1307810621
H   H10       1.0  0.46490  0.11620  0.57310  1.0000 0.1119188317
H   H11       1.0  0.69410  0.15020  0.58310  1.0000 0.104110577
H   H12       1.0  0.80270  0.31710  0.65780  1.0000 0.1402251672
H   H13       1.0  0.91300  0.07930  0.99450  1.0000 0.1188476924
H   H14       1.0  0.80270  0.03450  0.05480  1.0000 0.1188476924
H   H15       1.0  0.03190  0.21770  0.26640  1.0000 0.1119188317
H   H16       1.0  0.14270  0.26110  0.20580  1.0000 0.1188476924
H   H17       1.0  0.72940  0.94850  0.14310  1.0000 0.1307810621
H   H18       1.0  0.63060  0.91290  0.21430  1.0000 0.1119188317
H   H19       1.0  0.82470  0.20540  0.35310  1.0000 0.1307810621
H   H20       1.0  0.92640  0.23830  0.28590  1.0000 0.104110577
H   H21       1.0  0.63230  0.91770  0.34940  1.0000 0.1307810621
H   H22       1.0  0.54310  0.89180  0.42690  1.0000 0.1119188317
H   H23       1.0  0.56710  0.11100  0.41690  1.0000 0.104110577
H   H24       1.0  0.65930  0.14490  0.34220  1.0000 0.1402251672
H   H25       1.0  0.16850  0.66300  0.33370  1.0000 0.1188476924
H   H26       1.0  0.99790  0.55270  0.26820  1.0000 0.1188476924
H   H27       1.0  0.01550  0.78190  0.31420  1.0000 0.1119188317
H   H28       1.0  0.18690  0.89270  0.38160  1.0000 0.1188476924
H   H29       1.0  0.83630  0.47940  0.28090  1.0000 0.1307810621
H   H30       1.0  0.66630  0.38060  0.21770  1.0000 0.1119188317
H   H31       1.0  0.72160  0.57470  0.11930  1.0000 0.1307810621
H   H32       1.0  0.89050  0.67640  0.18810  1.0000 0.104110577
H   H33       1.0  0.53290  0.38230  0.21460  1.0000 0.1307810621
H   H34       1.0  0.36620  0.29310  0.15130  1.0000 0.1119188317
H   H35       1.0  0.40020  0.31710  0.95610  1.0000 0.104110577
H   H36       1.0  0.56710  0.40930  0.01440  1.0000 0.1402251672
H   H37       1.0  0.32930  0.83480  0.66630  1.0000 0.1188476924
H   H38       1.0  0.28450  0.72970  0.73180  1.0000 0.1188476924
H   H39       1.0  0.46770  0.70130  0.68580  1.0000 0.1119188317
H   H40       1.0  0.51110  0.80530  0.61840  1.0000 0.1188476924
H   H41       1.0  0.19850  0.55540  0.71910  1.0000 0.1307810621
H   H42       1.0  0.16290  0.44860  0.78230  1.0000 0.1119188317
H   H43       1.0  0.45540  0.60230  0.88070  1.0000 0.1307810621
H   H44       1.0  0.48830  0.70240  0.81190  1.0000 0.104110577
H   H45       1.0  0.16770  0.31830  0.78540  1.0000 0.1307810621
H   H46       1.0  0.14180  0.21490  0.84870  1.0000 0.1119188317
H   H47       1.0  0.36100  0.44410  0.04390  1.0000 0.104110577
H   H48       1.0  0.39490  0.55270  0.98560  1.0000 0.1402251672
H   H49       1.0  0.58480  0.57930  0.16630  1.0000 0.1188476924
H   H50       1.0  0.47970  0.53450  0.23180  1.0000 0.1188476924
H   H51       1.0  0.45130  0.71770  0.18580  1.0000 0.1119188317
H   H52       1.0  0.55530  0.76110  0.11840  1.0000 0.1188476924
H   H53       1.0  0.30540  0.44850  0.21910  1.0000 0.1307810621
H   H54       1.0  0.19860  0.41290  0.28230  1.0000 0.1119188317
H   H55       1.0  0.35230  0.70540  0.38070  1.0000 0.1307810621
H   H56       1.0  0.45240  0.73830  0.31190  1.0000 0.104110577
H   H57       1.0  0.06830  0.41770  0.28540  1.0000 0.1307810621
H   H58       1.0  0.96490  0.39180  0.34870  1.0000 0.1119188317
H   H59       1.0  0.19410  0.61100  0.54390  1.0000 0.104110577
H   H60       1.0  0.30270  0.64490  0.48560  1.0000 0.1402251672
H   H61       1.0  0.41300  0.41850  0.83370  1.0000 0.1188476924
H   H62       1.0  0.30270  0.24790  0.76820  1.0000 0.1188476924
H   H63       1.0  0.53190  0.26550  0.81420  1.0000 0.1119188317
H   H64       1.0  0.64270  0.43690  0.88160  1.0000 0.1188476924
H   H65       1.0  0.22940  0.08630  0.78090  1.0000 0.1307810621
H   H66       1.0  0.13060  0.91630  0.71770  1.0000 0.1119188317
H   H67       1.0  0.32470  0.97160  0.61930  1.0000 0.1307810621
H   H68       1.0  0.42640  0.14050  0.68810  1.0000 0.104110577
H   H69       1.0  0.13230  0.78290  0.71460  1.0000 0.1307810621
H   H70       1.0  0.04310  0.61620  0.65130  1.0000 0.1119188317
H   H71       1.0  0.06710  0.65020  0.45610  1.0000 0.104110577
H   H72       1.0  0.15930  0.81710  0.51440  1.0000 0.1402251672
H   H73       1.0  0.66850  0.33480  0.50550  1.0000 0.1188476924
H   H74       1.0  0.49790  0.22970  0.44520  1.0000 0.1188476924
H   H75       1.0  0.51550  0.20130  0.23360  1.0000 0.1119188317
H   H76       1.0  0.68690  0.30530  0.29420  1.0000 0.1188476924
H   H77       1.0  0.33630  0.05540  0.35690  1.0000 0.1307810621
H   H78       1.0  0.16630  0.94860  0.28570  1.0000 0.1119188317
H   H79       1.0  0.22160  0.10230  0.14690  1.0000 0.1307810621
H   H80       1.0  0.39050  0.20240  0.21410  1.0000 0.104110577
H   H81       1.0  0.03290  0.81830  0.15060  1.0000 0.1307810621
H   H82       1.0  0.86620  0.71490  0.07310  1.0000 0.1119188317
H   H83       1.0  0.90020  0.94410  0.08310  1.0000 0.104110577
H   H84       1.0  0.06710  0.05270  0.15780  1.0000 0.1402251672
H   H85       1.0  0.82930  0.16300  0.49450  1.0000 0.1188476924
H   H86       1.0  0.78450  0.05270  0.55480  1.0000 0.1188476924
H   H87       1.0  0.96770  0.28190  0.76640  1.0000 0.1119188317
H   H88       1.0  0.01110  0.39270  0.70580  1.0000 0.1188476924
H   H89       1.0  0.69850  0.97940  0.64310  1.0000 0.1307810621
H   H90       1.0  0.66290  0.88060  0.71430  1.0000 0.1119188317
H   H91       1.0  0.95540  0.07470  0.85310  1.0000 0.1307810621
H   H92       1.0  0.98830  0.17640  0.78590  1.0000 0.104110577
H   H93       1.0  0.66770  0.88230  0.84940  1.0000 0.1307810621
H   H94       1.0  0.64180  0.79310  0.92690  1.0000 0.1119188317
H   H95       1.0  0.86100  0.81710  0.91690  1.0000 0.104110577
H   H96       1.0  0.89490  0.90930  0.84220  1.0000 0.1402251672
C   C1        1.0  0.14747  0.05405  0.94412  1.0000 0.5337683734
C   C2        1.0  0.08175  0.94442  0.90597  1.0000 -0.0209932315
C   C3        1.0  0.05792  0.88748  0.95020  1.0000 -0.1112513479
C   C4        1.0  0.99547  0.78615  0.91442  1.0000 -0.156881802
C   C5        1.0  0.95530  0.73952  0.83302  1.0000 0.0692466626
C   C6        1.0  0.97840  0.79657  0.78897  1.0000 -0.156881802
C   C7        1.0  0.04083  0.89869  0.82492  1.0000 -0.1162313197
C   C8        1.0  0.89000  0.63103  0.79243  1.0000 0.0692466626
C   C9        1.0  0.81410  0.56305  0.81355  1.0000 -0.141888681
C   C10       1.0  0.75130  0.46194  0.77184  1.0000 -0.141888681
C   C11       1.0  0.76540  0.42698  0.70958  1.0000 0.0622154762
C   C12       1.0  0.84160  0.49443  0.68883  1.0000 -0.1318266589
C   C13       1.0  0.90180  0.59501  0.72961  1.0000 -0.141888681
C   C14       1.0  0.69757  0.31836  0.66333  1.0000 0.1188476924
C   C15       1.0  0.59576  0.25701  0.63717  1.0000 -0.2029145296
C   C16       1.0  0.53464  0.15761  0.59125  1.0000 0.086160668
C   C17       1.0  0.66826  0.17778  0.59684  1.0000 0.0797956994
C   C18       1.0  0.73340  0.27714  0.64174  1.0000 -0.1831671718
C   C19       1.0  0.10993  0.20335  0.05588  1.0000 0.5337683734
C   C20       1.0  0.03845  0.17578  0.09403  1.0000 -0.0209932315
C   C21       1.0  0.93728  0.10772  0.04980  1.0000 -0.1112513479
C   C22       1.0  0.87173  0.08105  0.08558  1.0000 -0.156881802
C   C23       1.0  0.90650  0.12228  0.16698  1.0000 0.0692466626
C   C24       1.0  0.00760  0.18943  0.21103  1.0000 -0.156881802
C   C25       1.0  0.07377  0.21591  0.17508  1.0000 -0.1162313197
C   C26       1.0  0.83860  0.09757  0.20757  1.0000 0.0692466626
C   C27       1.0  0.74950  0.00055  0.18645  1.0000 -0.141888681
C   C28       1.0  0.69010  0.97946  0.22816  1.0000 -0.141888681
C   C29       1.0  0.71740  0.05582  0.29042  1.0000 0.0622154762
C   C30       1.0  0.80560  0.15277  0.31117  1.0000 -0.1318266589
C   C31       1.0  0.86540  0.17219  0.27039  1.0000 -0.141888681
C   C32       1.0  0.65503  0.03424  0.33667  1.0000 0.1188476924
C   C33       1.0  0.61984  0.95859  0.36283  1.0000 -0.2029145296
C   C34       1.0  0.56636  0.94339  0.40875  1.0000 0.086160668
C   C35       1.0  0.58094  0.07142  0.40316  1.0000 0.0797956994
C   C36       1.0  0.63540  0.09166  0.35826  1.0000 -0.1831671718
C   C37       1.0  0.30405  0.85993  0.40658  1.0000 0.5337683734
C   C38       1.0  0.19442  0.78845  0.36267  1.0000 -0.0209932315
C   C39       1.0  0.13748  0.68728  0.32956  1.0000 -0.1112513479
C   C40       1.0  0.03615  0.62173  0.29068  1.0000 -0.156881802
C   C41       1.0  0.98952  0.65650  0.28422  1.0000 0.0692466626
C   C42       1.0  0.04657  0.75760  0.31817  1.0000 -0.156881802
C   C43       1.0  0.14869  0.82377  0.35786  1.0000 -0.1162313197
C   C44       1.0  0.88103  0.58860  0.24103  1.0000 0.0692466626
C   C45       1.0  0.81305  0.49950  0.24895  1.0000 -0.141888681
C   C46       1.0  0.71194  0.44010  0.21064  1.0000 -0.141888681
C   C47       1.0  0.67698  0.46740  0.16158  1.0000 0.0622154762
C   C48       1.0  0.74443  0.55560  0.15283  1.0000 -0.1318266589
C   C49       1.0  0.84501  0.61540  0.19321  1.0000 -0.141888681
C   C50       1.0  0.56836  0.40503  0.12079  1.0000 0.1188476924
C   C51       1.0  0.50701  0.36984  0.16125  1.0000 -0.2029145296
C   C52       1.0  0.40761  0.31636  0.12297  1.0000 0.086160668
C   C53       1.0  0.42778  0.33094  0.00952  1.0000 0.0797956994
C   C54       1.0  0.52714  0.38540  0.04374  1.0000 -0.1831671718
C   C55       1.0  0.45335  0.89747  0.59342  1.0000 0.5337683734
C   C56       1.0  0.42578  0.83175  0.63733  1.0000 -0.0209932315
C   C57       1.0  0.35772  0.80792  0.67044  1.0000 -0.1112513479
C   C58       1.0  0.33105  0.74547  0.70932  1.0000 -0.156881802
C   C59       1.0  0.37228  0.70530  0.71578  1.0000 0.0692466626
C   C60       1.0  0.43943  0.72840  0.68183  1.0000 -0.156881802
C   C61       1.0  0.46591  0.79083  0.64214  1.0000 -0.1162313197
C   C62       1.0  0.34757  0.64000  0.75897  1.0000 0.0692466626
C   C63       1.0  0.25055  0.56410  0.75105  1.0000 -0.141888681
C   C64       1.0  0.22946  0.50130  0.78936  1.0000 -0.141888681
C   C65       1.0  0.30582  0.51540  0.83842  1.0000 0.0622154762
C   C66       1.0  0.40277  0.59160  0.84717  1.0000 -0.1318266589
C   C67       1.0  0.42219  0.65180  0.80679  1.0000 -0.141888681
C   C68       1.0  0.28424  0.44757  0.87921  1.0000 0.1188476924
C   C69       1.0  0.20859  0.34576  0.83875  1.0000 -0.2029145296
C   C70       1.0  0.19339  0.28464  0.87703  1.0000 0.086160668
C   C71       1.0  0.32142  0.41826  0.99048  1.0000 0.0797956994
C   C72       1.0  0.34166  0.48340  0.95626  1.0000 -0.1831671718
C   C73       1.0  0.64747  0.70335  0.09342  1.0000 0.5337683734
C   C74       1.0  0.58175  0.67578  0.13733  1.0000 -0.0209932315
C   C75       1.0  0.55792  0.60772  0.17044  1.0000 -0.1112513479
C   C76       1.0  0.49547  0.58105  0.20932  1.0000 -0.156881802
C   C77       1.0  0.45530  0.62228  0.21578  1.0000 0.0692466626
C   C78       1.0  0.47840  0.68943  0.18183  1.0000 -0.156881802
C   C79       1.0  0.54083  0.71591  0.14214  1.0000 -0.1162313197
C   C80       1.0  0.39000  0.59757  0.25897  1.0000 0.0692466626
C   C81       1.0  0.31410  0.50055  0.25105  1.0000 -0.141888681
C   C82       1.0  0.25130  0.47946  0.28936  1.0000 -0.141888681
C   C83       1.0  0.26540  0.55582  0.33842  1.0000 0.0622154762
C   C84       1.0  0.34160  0.65277  0.34717  1.0000 -0.1318266589
C   C85       1.0  0.40180  0.67219  0.30679  1.0000 -0.141888681
C   C86       1.0  0.19757  0.53424  0.37921  1.0000 0.1188476924
C   C87       1.0  0.09576  0.45859  0.33875  1.0000 -0.2029145296
C   C88       1.0  0.03464  0.44339  0.37703  1.0000 0.086160668
C   C89       1.0  0.16826  0.57142  0.49048  1.0000 0.0797956994
C   C90       1.0  0.23340  0.59166  0.45626  1.0000 -0.1831671718
C   C91       1.0  0.60993  0.55405  0.90658  1.0000 0.5337683734
C   C92       1.0  0.53845  0.44442  0.86267  1.0000 -0.0209932315
C   C93       1.0  0.43728  0.38748  0.82956  1.0000 -0.1112513479
C   C94       1.0  0.37173  0.28615  0.79068  1.0000 -0.156881802
C   C95       1.0  0.40650  0.23952  0.78422  1.0000 0.0692466626
C   C96       1.0  0.50760  0.29657  0.81817  1.0000 -0.156881802
C   C97       1.0  0.57377  0.39869  0.85786  1.0000 -0.1162313197
C   C98       1.0  0.33860  0.13103  0.74103  1.0000 0.0692466626
C   C99       1.0  0.24950  0.06305  0.74895  1.0000 -0.141888681
C   C100      1.0  0.19010  0.96194  0.71064  1.0000 -0.141888681
C   C101      1.0  0.21740  0.92698  0.66158  1.0000 0.0622154762
C   C102      1.0  0.30560  0.99443  0.65283  1.0000 -0.1318266589
C   C103      1.0  0.36540  0.09501  0.69321  1.0000 -0.141888681
C   C104      1.0  0.15503  0.81836  0.62079  1.0000 0.1188476924
C   C105      1.0  0.11984  0.75701  0.66125  1.0000 -0.2029145296
C   C106      1.0  0.06636  0.65761  0.62297  1.0000 0.086160668
C   C107      1.0  0.08094  0.67778  0.50952  1.0000 0.0797956994
C   C108      1.0  0.13540  0.77714  0.54374  1.0000 -0.1831671718
C   C109      1.0  0.80405  0.39747  0.44412  1.0000 0.5337683734
C   C110      1.0  0.69442  0.33175  0.40597  1.0000 -0.0209932315
C   C111      1.0  0.63748  0.30792  0.45020  1.0000 -0.1112513479
C   C112      1.0  0.53615  0.24547  0.41442  1.0000 -0.156881802
C   C113      1.0  0.48952  0.20530  0.33302  1.0000 0.0692466626
C   C114      1.0  0.54657  0.22840  0.28897  1.0000 -0.156881802
C   C115      1.0  0.64869  0.29083  0.32492  1.0000 -0.1162313197
C   C116      1.0  0.38103  0.14000  0.29243  1.0000 0.0692466626
C   C117      1.0  0.31305  0.06410  0.31355  1.0000 -0.141888681
C   C118      1.0  0.21194  0.00130  0.27184  1.0000 -0.141888681
C   C119      1.0  0.17698  0.01540  0.20958  1.0000 0.0622154762
C   C120      1.0  0.24443  0.09160  0.18883  1.0000 -0.1318266589
C   C121      1.0  0.34501  0.15180  0.22961  1.0000 -0.141888681
C   C122      1.0  0.06836  0.94757  0.16333  1.0000 0.1188476924
C   C123      1.0  0.00701  0.84576  0.13717  1.0000 -0.2029145296
C   C124      1.0  0.90761  0.78464  0.09125  1.0000 0.086160668
C   C125      1.0  0.92778  0.91826  0.09684  1.0000 0.0797956994
C   C126      1.0  0.02714  0.98340  0.14174  1.0000 -0.1831671718
C   C127      1.0  0.95335  0.35993  0.55588  1.0000 0.5337683734
C   C128      1.0  0.92578  0.28845  0.59403  1.0000 -0.0209932315
C   C129      1.0  0.85772  0.18728  0.54980  1.0000 -0.1112513479
C   C130      1.0  0.83105  0.12173  0.58558  1.0000 -0.156881802
C   C131      1.0  0.87228  0.15650  0.66698  1.0000 0.0692466626
C   C132      1.0  0.93943  0.25760  0.71103  1.0000 -0.156881802
C   C133      1.0  0.96591  0.32377  0.67508  1.0000 -0.1162313197
C   C134      1.0  0.84757  0.08860  0.70757  1.0000 0.0692466626
C   C135      1.0  0.75055  0.99950  0.68645  1.0000 -0.141888681
C   C136      1.0  0.72946  0.94010  0.72816  1.0000 -0.141888681
C   C137      1.0  0.80582  0.96740  0.79042  1.0000 0.0622154762
C   C138      1.0  0.90277  0.05560  0.81117  1.0000 -0.1318266589
C   C139      1.0  0.92219  0.11540  0.77039  1.0000 -0.141888681
C   C140      1.0  0.78424  0.90503  0.83667  1.0000 0.1188476924
C   C141      1.0  0.70859  0.86984  0.86283  1.0000 -0.2029145296
C   C142      1.0  0.69339  0.81636  0.90875  1.0000 0.086160668
C   C143      1.0  0.82142  0.83094  0.90316  1.0000 0.0797956994
C   C144      1.0  0.84166  0.88540  0.85826  1.0000 -0.1831671718
N   N1        1.0  0.56992  0.11780  0.57152  1.0000 -0.2285424799
N   N2        1.0  0.54628  0.99840  0.42848  1.0000 -0.2285424799
N   N3        1.0  0.36780  0.29628  0.04788  1.0000 -0.2285424799
N   N4        1.0  0.24840  0.31992  0.95212  1.0000 -0.2285424799
N   N5        1.0  0.06992  0.49840  0.45212  1.0000 -0.2285424799
N   N6        1.0  0.04628  0.61780  0.54788  1.0000 -0.2285424799
N   N7        1.0  0.86780  0.81992  0.07152  1.0000 -0.2285424799
N   N8        1.0  0.74840  0.79628  0.92848  1.0000 -0.2285424799
O   O1        1.0  0.17008  0.10512  0.90246  1.0000 -0.5381860707
O   O2        1.0  0.17700  0.09496  0.01710  1.0000 -0.5186221276
O   O3        1.0  0.20266  0.26762  0.09754  1.0000 -0.5381860707
O   O4        1.0  0.07786  0.15990  0.98290  1.0000 -0.5186221276
O   O5        1.0  0.35512  0.95266  0.43504  1.0000 -0.5381860707
O   O6        1.0  0.34496  0.82786  0.41796  1.0000 -0.5186221276
O   O7        1.0  0.51762  0.92008  0.56496  1.0000 -0.5381860707
O   O8        1.0  0.40990  0.92700  0.58204  1.0000 -0.5186221276
O   O9        1.0  0.67008  0.76762  0.06496  1.0000 -0.5381860707
O   O10       1.0  0.67700  0.65990  0.08204  1.0000 -0.5186221276
O   O11       1.0  0.70266  0.60512  0.93504  1.0000 -0.5381860707
O   O12       1.0  0.57786  0.59496  0.91796  1.0000 -0.5186221276
O   O13       1.0  0.85512  0.42008  0.40246  1.0000 -0.5381860707
O   O14       1.0  0.84496  0.42700  0.51710  1.0000 -0.5186221276
O   O15       1.0  0.01762  0.45266  0.59754  1.0000 -0.5381860707
O   O16       1.0  0.90990  0.32786  0.48290  1.0000 -0.5186221276
