# DDEC6 charges by PACMAN v1.1 (https://github.com/mtap-research/PACMAN-charge/)
data_2019[Cd][sql]2[ASR]3
_chemical_formula_sum              "Cd2 H34 C44 N14 O8"
_cell_length_a       8.9967
_cell_length_b       9.1579
_cell_length_c       14.9998
_cell_angle_alpha    78.451
_cell_angle_beta     84.86
_cell_angle_gamma    82.778

_symmetry_space_group_name_H-M    "P 1"
_symmetry_Int_Tables_number       1

loop_
  _symmetry_equiv_pos_as_xyz
  'x, y, z'

loop_
  _atom_site_type_symbol
  _atom_site_label
  _atom_site_symmetry_multiplicity
  _atom_site_fract_x
  _atom_site_fract_y
  _atom_site_fract_z
  _atom_site_occupancy
  _atom_site_charge
Cd  Cd1       1.0  0.16921  0.36969  0.96678  1.0000 0.8386714399
Cd  Cd2       1.0  0.83079  0.63031  0.03322  1.0000 0.8386714399
H   H1        1.0  0.38460  0.87110  0.96380  1.0000 0.1376733571
H   H2        1.0  0.48840  0.96140  0.88840  1.0000 0.121406841
H   H3        1.0  0.09110  0.86900  0.81820  1.0000 0.1289157957
H   H4        1.0  0.10510  0.89990  0.91570  1.0000 0.1376733571
H   H5        1.0  0.97520  0.15650  0.88930  1.0000 0.121406841
H   H6        1.0  0.84880  0.12980  0.76820  1.0000 0.1498271242
H   H7        1.0  0.07420  0.55770  0.77110  1.0000 0.121406841
H   H8        1.0  0.67970  0.39760  0.45680  1.0000 0.1376733571
H   H9        1.0  0.57910  0.78510  0.28720  1.0000 0.1100078706
H   H10       1.0  0.81680  0.77940  0.49130  1.0000 0.0981109604
H   H11       1.0  0.22190  0.17050  0.16030  1.0000 0.1100078706
H   H12       1.0  0.33000  0.14760  0.29620  1.0000 0.1498271242
H   H13       1.0  0.35430  0.56710  0.06440  1.0000 0.1289157957
H   H14       1.0  0.27100  0.00920  0.79360  1.0000 0.0879136115
H   H15       1.0  0.36020  0.84940  0.80390  1.0000 0.0981109604
H   H16       1.0  0.52670  0.66250  0.18560  1.0000 0.3018586874
H   H17       1.0  0.94020  0.66060  0.60670  1.0000 0.3018586874
H   H18       1.0  0.61540  0.12890  0.03620  1.0000 0.1376733571
H   H19       1.0  0.51160  0.03860  0.11160  1.0000 0.121406841
H   H20       1.0  0.90890  0.13100  0.18180  1.0000 0.1289157957
H   H21       1.0  0.89490  0.10010  0.08430  1.0000 0.1376733571
H   H22       1.0  0.02480  0.84350  0.11070  1.0000 0.121406841
H   H23       1.0  0.15120  0.87020  0.23180  1.0000 0.1498271242
H   H24       1.0  0.92580  0.44230  0.22890  1.0000 0.121406841
H   H25       1.0  0.32030  0.60240  0.54320  1.0000 0.1376733571
H   H26       1.0  0.42090  0.21490  0.71280  1.0000 0.1100078706
H   H27       1.0  0.18320  0.22060  0.50870  1.0000 0.0981109604
H   H28       1.0  0.77810  0.82950  0.83970  1.0000 0.1100078706
H   H29       1.0  0.67000  0.85240  0.70380  1.0000 0.1498271242
H   H30       1.0  0.64570  0.43290  0.93560  1.0000 0.1289157957
H   H31       1.0  0.72900  0.99080  0.20640  1.0000 0.0879136115
H   H32       1.0  0.63980  0.15060  0.19610  1.0000 0.0981109604
H   H33       1.0  0.47330  0.33750  0.81440  1.0000 0.3018586874
H   H34       1.0  0.05980  0.33940  0.39330  1.0000 0.3018586874
C   C1        1.0  0.31620  0.09790  0.93980  1.0000 0.6093509138
C   C2        1.0  0.38500  0.95250  0.91130  1.0000 -0.3430692315
C   C3        1.0  0.15560  0.84890  0.86870  1.0000 -0.3542234957
C   C4        1.0  0.16910  0.68280  0.90640  1.0000 0.6093509138
C   C5        1.0  0.96920  0.23430  0.83890  1.0000 0.0423404701
C   C6        1.0  0.89180  0.21730  0.76750  1.0000 -0.2002351269
C   C7        1.0  0.88090  0.33710  0.69379  1.0000 0.1614241578
C   C8        1.0  0.94850  0.46460  0.69746  1.0000 0.077499786
C   C9        1.0  0.02790  0.47270  0.77069  1.0000 -0.0191532796
C   C10       1.0  0.82910  0.49820  0.57314  1.0000 0.3018586874
C   C11       1.0  0.76070  0.57490  0.48864  1.0000 -0.0274701756
C   C12       1.0  0.68520  0.50010  0.43855  1.0000 -0.1044708103
C   C13       1.0  0.61800  0.57830  0.36135  1.0000 -0.0191532796
C   C14       1.0  0.62650  0.73160  0.33830  1.0000 0.0214810489
C   C15       1.0  0.76500  0.72860  0.45840  1.0000 0.0214810489
C   C16       1.0  0.53520  0.50500  0.30599  1.0000 0.3139236808
C   C17       1.0  0.27290  0.24830  0.16900  1.0000 0.0294967532
C   C18       1.0  0.33660  0.23260  0.25084  1.0000 -0.2288028918
C   C19       1.0  0.41140  0.35090  0.26210  1.0000 0.1614241578
C   C20       1.0  0.41400  0.47680  0.19209  1.0000 0.0981109604
C   C21       1.0  0.34910  0.48350  0.11105  1.0000 -0.0098037621
C   C22       1.0  0.29560  0.91690  0.83660  1.0000 -0.0900592342
C   C23       1.0  0.68380  0.90210  0.06020  1.0000 0.6093509138
C   C24       1.0  0.61500  0.04750  0.08870  1.0000 -0.3430692315
C   C25       1.0  0.84440  0.15110  0.13130  1.0000 -0.3542234957
C   C26       1.0  0.83090  0.31720  0.09360  1.0000 0.6093509138
C   C27       1.0  0.03080  0.76570  0.16110  1.0000 0.0423404701
C   C28       1.0  0.10820  0.78270  0.23250  1.0000 -0.2002351269
C   C29       1.0  0.11910  0.66290  0.30621  1.0000 0.1614241578
C   C30       1.0  0.05150  0.53540  0.30254  1.0000 0.077499786
C   C31       1.0  0.97210  0.52730  0.22931  1.0000 -0.0191532796
C   C32       1.0  0.17090  0.50180  0.42686  1.0000 0.3018586874
C   C33       1.0  0.23930  0.42510  0.51136  1.0000 -0.0274701756
C   C34       1.0  0.31480  0.49990  0.56145  1.0000 -0.1044708103
C   C35       1.0  0.38200  0.42170  0.63865  1.0000 -0.0191532796
C   C36       1.0  0.37350  0.26840  0.66170  1.0000 0.0214810489
C   C37       1.0  0.23500  0.27140  0.54160  1.0000 0.0214810489
C   C38       1.0  0.46480  0.49500  0.69401  1.0000 0.3139236808
C   C39       1.0  0.72710  0.75170  0.83100  1.0000 0.0294967532
C   C40       1.0  0.66340  0.76740  0.74916  1.0000 -0.2288028918
C   C41       1.0  0.58860  0.64910  0.73790  1.0000 0.1614241578
C   C42       1.0  0.58600  0.52320  0.80791  1.0000 0.0981109604
C   C43       1.0  0.65090  0.51650  0.88895  1.0000 -0.0098037621
C   C44       1.0  0.70440  0.08310  0.16340  1.0000 -0.0900592342
N   N1        1.0  0.03730  0.35740  0.84066  1.0000 -0.2288028918
N   N2        1.0  0.27890  0.36840  0.10053  1.0000 -0.2425822079
N   N3        1.0  0.80790  0.35970  0.61442  1.0000 -0.4053886294
N   N4        1.0  0.91470  0.56550  0.61903  1.0000 -0.3038642764
N   N5        1.0  0.49000  0.37030  0.33311  1.0000 -0.416737622
N   N6        1.0  0.49190  0.57500  0.22230  1.0000 -0.3125140429
N   N7        1.0  0.69890  0.80640  0.38510  1.0000 -0.2425822079
N   N8        1.0  0.96270  0.64260  0.15934  1.0000 -0.2288028918
N   N9        1.0  0.72110  0.63160  0.89947  1.0000 -0.2425822079
N   N10       1.0  0.19210  0.64030  0.38558  1.0000 -0.4053886294
N   N11       1.0  0.08530  0.43450  0.38097  1.0000 -0.3038642764
N   N12       1.0  0.51000  0.62970  0.66689  1.0000 -0.416737622
N   N13       1.0  0.50810  0.42500  0.77770  1.0000 -0.3125140429
N   N14       1.0  0.30110  0.19360  0.61490  1.0000 -0.2425822079
O   O1        1.0  0.36580  0.21970  0.90079  1.0000 -0.5749492407
O   O2        1.0  0.20800  0.09630  0.99696  1.0000 -0.5508804679
O   O3        1.0  0.27920  0.59720  0.88804  1.0000 -0.5033857584
O   O4        1.0  0.05910  0.63090  0.95294  1.0000 -0.5508804679
O   O5        1.0  0.63420  0.78030  0.09921  1.0000 -0.5749492407
O   O6        1.0  0.79200  0.90370  0.00304  1.0000 -0.5508804679
O   O7        1.0  0.72080  0.40280  0.11196  1.0000 -0.5033857584
O   O8        1.0  0.94090  0.36910  0.04706  1.0000 -0.5508804679
