# DDEC6 charges by PACMAN v1.1 (https://github.com/mtap-research/PACMAN-charge/)
data_2019[Cd][nan]2[ASR]4
_chemical_formula_sum              "Cd4 H28 C36 N16 Cl4 O8"
_cell_length_a       8.7219
_cell_length_b       10.4456
_cell_length_c       17.254
_cell_angle_alpha    95.956
_cell_angle_beta     101.053
_cell_angle_gamma    111.87

_symmetry_space_group_name_H-M    "P 1"
_symmetry_Int_Tables_number       1

loop_
  _symmetry_equiv_pos_as_xyz
  'x, y, z'

loop_
  _atom_site_type_symbol
  _atom_site_label
  _atom_site_symmetry_multiplicity
  _atom_site_fract_x
  _atom_site_fract_y
  _atom_site_fract_z
  _atom_site_occupancy
  _atom_site_charge
Cd  Cd1       1.0  0.60436  0.20629  0.18310  1.0000 0.8270172771
Cd  Cd2       1.0  0.19896  0.30984  0.31402  1.0000 0.8236167129
Cd  Cd3       1.0  0.39564  0.79371  0.81690  1.0000 0.8270172771
Cd  Cd4       1.0  0.80104  0.69016  0.68598  1.0000 0.8236167129
H   H1        1.0  0.51910  0.48380  0.20210  1.0000 0.1086703311
H   H2        1.0  0.60230  0.71030  0.18250  1.0000 0.1409443358
H   H3        1.0  0.01550  0.68480  0.12940  1.0000 0.1518809344
H   H4        1.0  0.92270  0.46040  0.15210  1.0000 0.1213565334
H   H5        1.0  0.94320  0.38530  0.64070  1.0000 0.1409443358
H   H6        1.0  0.13610  0.40870  0.66360  1.0000 0.1290677881
H   H7        1.0  0.17560  0.17040  0.61670  1.0000 0.1409443358
H   H8        1.0  0.75800  0.17870  0.67560  1.0000 0.1518809344
H   H9        1.0  0.69000  0.95270  0.69550  1.0000 0.1213565334
H   H10       1.0  0.09720  0.94730  0.64050  1.0000 0.1086703311
H   H11       1.0  0.83160  0.92370  0.16580  1.0000 0.1409443358
H   H12       1.0  0.99230  0.91240  0.14260  1.0000 0.1409443358
H   H13       1.0  0.57450  0.88610  0.04350  1.0000 0.1290677881
H   H14       1.0  0.27450  0.39900  0.54000  1.0000 0.1290677881
H   H15       1.0  0.48090  0.51620  0.79790  1.0000 0.1086703311
H   H16       1.0  0.39770  0.28970  0.81750  1.0000 0.1409443358
H   H17       1.0  0.98450  0.31520  0.87060  1.0000 0.1518809344
H   H18       1.0  0.07730  0.53960  0.84790  1.0000 0.1213565334
H   H19       1.0  0.05680  0.61470  0.35930  1.0000 0.1409443358
H   H20       1.0  0.86390  0.59130  0.33640  1.0000 0.1290677881
H   H21       1.0  0.82440  0.82960  0.38330  1.0000 0.1409443358
H   H22       1.0  0.24200  0.82130  0.32440  1.0000 0.1518809344
H   H23       1.0  0.31000  0.04730  0.30450  1.0000 0.1213565334
H   H24       1.0  0.90280  0.05270  0.35950  1.0000 0.1086703311
H   H25       1.0  0.16840  0.07630  0.83420  1.0000 0.1409443358
H   H26       1.0  0.00770  0.08760  0.85740  1.0000 0.1409443358
H   H27       1.0  0.42550  0.11390  0.95650  1.0000 0.1290677881
H   H28       1.0  0.72550  0.60100  0.46000  1.0000 0.1290677881
C   C1        1.0  0.61940  0.52400  0.18580  1.0000 0.078443651
C   C2        1.0  0.66820  0.66020  0.17410  1.0000 -0.19054357
C   C3        1.0  0.81560  0.72130  0.14990  1.0000 0.1409443358
C   C4        1.0  0.91200  0.64520  0.14300  1.0000 -0.180133209
C   C5        1.0  0.85480  0.51020  0.15640  1.0000 0.078443651
C   C6        1.0  0.02520  0.34940  0.62820  1.0000 -0.2025140677
C   C7        1.0  0.97460  0.20070  0.64260  1.0000 0.1409443358
C   C8        1.0  0.07550  0.12840  0.63280  1.0000 -0.2025140677
C   C9        1.0  0.82880  0.13330  0.66720  1.0000 -0.1740297083
C   C10       1.0  0.94110  0.32430  0.42060  1.0000 0.1633040305
C   C11       1.0  0.83070  0.29190  0.33750  1.0000 0.5006056722
C   C12       1.0  0.78930  0.99730  0.67930  1.0000 0.0888021584
C   C13       1.0  0.02680  0.99400  0.64690  1.0000 0.078443651
C   C14       1.0  0.86890  0.86770  0.13150  1.0000 -0.19054357
C   C15       1.0  0.64590  0.86730  0.01460  1.0000 0.1086703311
C   C16       1.0  0.16250  0.37490  0.51160  1.0000 0.1086703311
C   C17       1.0  0.75500  0.82160  0.92280  1.0000 0.1803223822
C   C18       1.0  0.77120  0.78630  0.83900  1.0000 0.5050338801
C   C19       1.0  0.38060  0.47600  0.81420  1.0000 0.078443651
C   C20       1.0  0.33180  0.33980  0.82590  1.0000 -0.19054357
C   C21       1.0  0.18440  0.27870  0.85010  1.0000 0.1409443358
C   C22       1.0  0.08800  0.35480  0.85700  1.0000 -0.180133209
C   C23       1.0  0.14520  0.48980  0.84360  1.0000 0.078443651
C   C24       1.0  0.97480  0.65060  0.37180  1.0000 -0.2025140677
C   C25       1.0  0.02540  0.79930  0.35740  1.0000 0.1409443358
C   C26       1.0  0.92450  0.87160  0.36720  1.0000 -0.2025140677
C   C27       1.0  0.17120  0.86670  0.33280  1.0000 -0.1740297083
C   C28       1.0  0.05890  0.67570  0.57940  1.0000 0.1633040305
C   C29       1.0  0.16930  0.70810  0.66250  1.0000 0.5006056722
C   C30       1.0  0.21070  0.00270  0.32070  1.0000 0.0888021584
C   C31       1.0  0.97320  0.00600  0.35310  1.0000 0.078443651
C   C32       1.0  0.13110  0.13230  0.86850  1.0000 -0.19054357
C   C33       1.0  0.35410  0.13270  0.98540  1.0000 0.1086703311
C   C34       1.0  0.83750  0.62510  0.48840  1.0000 0.1086703311
C   C35       1.0  0.24500  0.17840  0.07720  1.0000 0.1803223822
C   C36       1.0  0.22880  0.21370  0.16100  1.0000 0.5050338801
N   N1        1.0  0.70750  0.44650  0.17531  1.0000 -0.2393852451
N   N2        1.0  0.03200  0.35460  0.54444  1.0000 0.1633040305
N   N3        1.0  0.11070  0.35600  0.43279  1.0000 -0.3558914665
N   N4        1.0  0.88490  0.92640  0.66909  1.0000 -0.2338110808
N   N5        1.0  0.88650  0.32090  0.48645  1.0000 -0.2393852451
N   N6        1.0  0.86550  0.83090  0.98860  1.0000 -0.2393852451
N   N7        1.0  0.79360  0.86150  0.04691  1.0000 0.1803223822
N   N8        1.0  0.61580  0.84230  0.93554  1.0000 -0.352643669
N   N9        1.0  0.29250  0.55350  0.82469  1.0000 -0.2393852451
N   N10       1.0  0.96800  0.64540  0.45556  1.0000 0.1633040305
N   N11       1.0  0.88930  0.64400  0.56721  1.0000 -0.3558914665
N   N12       1.0  0.11510  0.07360  0.33091  1.0000 -0.2338110808
N   N13       1.0  0.11350  0.67910  0.51355  1.0000 -0.2393852451
N   N14       1.0  0.13450  0.16910  0.01140  1.0000 -0.2393852451
N   N15       1.0  0.20640  0.13850  0.95309  1.0000 0.1803223822
N   N16       1.0  0.38420  0.15770  0.06446  1.0000 -0.352643669
Cl  Cl1       1.0  0.51745  0.95740  0.20620  1.0000 -0.6117824022
Cl  Cl2       1.0  0.29585  0.55453  0.28557  1.0000 -0.6117824022
Cl  Cl3       1.0  0.48255  0.04260  0.79380  1.0000 -0.6117824022
Cl  Cl4       1.0  0.70415  0.44547  0.71443  1.0000 -0.6117824022
O   O1        1.0  0.68220  0.28540  0.32797  1.0000 -0.4873735462
O   O2        1.0  0.89670  0.27330  0.28139  1.0000 -0.510957152
O   O3        1.0  0.64360  0.76470  0.78369  1.0000 -0.520223767
O   O4        1.0  0.90420  0.77900  0.82911  1.0000 -0.4797300402
O   O5        1.0  0.31780  0.71460  0.67203  1.0000 -0.4873735462
O   O6        1.0  0.10330  0.72670  0.71861  1.0000 -0.510957152
O   O7        1.0  0.35640  0.23530  0.21631  1.0000 -0.520223767
O   O8        1.0  0.09580  0.22100  0.17089  1.0000 -0.4797300402
