# DDEC6 charges by PACMAN v1.1 (https://github.com/mtap-research/PACMAN-charge/)
data_2019[Er][hcb]2[ASR]4
_chemical_formula_sum              "Er2 C18 Cl6 O12"
_cell_length_a       10.1018
_cell_length_b       10.1792
_cell_length_c       11.796
_cell_angle_alpha    103.488
_cell_angle_beta     109.692
_cell_angle_gamma    101.082

_symmetry_space_group_name_H-M    "P 1"
_symmetry_Int_Tables_number       1

loop_
  _symmetry_equiv_pos_as_xyz
  'x, y, z'

loop_
  _atom_site_type_symbol
  _atom_site_label
  _atom_site_symmetry_multiplicity
  _atom_site_fract_x
  _atom_site_fract_y
  _atom_site_fract_z
  _atom_site_occupancy
  _atom_site_charge
Er  Er1       1.0  0.46975  0.20300  0.21325  1.0000 1.9714792092
Er  Er2       1.0  0.53025  0.79700  0.78675  1.0000 1.9714792092
C   C1        1.0  0.88480  0.88610  0.89610  1.0000 0.2713737507
C   C2        1.0  0.53980  0.53440  0.90180  1.0000 0.2615180399
C   C3        1.0  0.55320  0.40740  0.92400  1.0000 -0.1208162884
C   C4        1.0  0.51480  0.36680  0.01600  1.0000 0.2615180399
C   C5        1.0  0.41780  0.00850  0.37750  1.0000 0.2713737507
C   C6        1.0  0.14620  0.01440  0.00420  1.0000 0.2615180399
C   C7        1.0  0.41760  0.91240  0.54930  1.0000 0.2615180399
C   C8        1.0  0.03040  0.90660  0.90490  1.0000 -0.1271853614
C   C9        1.0  0.34450  0.92960  0.43210  1.0000 -0.1208162884
C   C10       1.0  0.11520  0.11390  0.10390  1.0000 0.2713737507
C   C11       1.0  0.46020  0.46560  0.09820  1.0000 0.2615180399
C   C12       1.0  0.44680  0.59260  0.07600  1.0000 -0.1208162884
C   C13       1.0  0.48520  0.63320  0.98400  1.0000 0.2615180399
C   C14       1.0  0.58220  0.99150  0.62250  1.0000 0.2615180399
C   C15       1.0  0.85380  0.98560  0.99580  1.0000 0.2615180399
C   C16       1.0  0.58240  0.08760  0.45070  1.0000 0.2615180399
C   C17       1.0  0.96960  0.09340  0.09510  1.0000 -0.1271853614
C   C18       1.0  0.65550  0.07040  0.56790  1.0000 -0.1145234982
Cl  Cl1       1.0  0.61419  0.29534  0.83244  1.0000 -0.0391504186
Cl  Cl2       1.0  0.15728  0.84530  0.34818  1.0000 -0.0078675198
Cl  Cl3       1.0  0.06678  0.79454  0.79245  1.0000 -0.002579518
Cl  Cl4       1.0  0.38581  0.70466  0.16756  1.0000 -0.0391504186
Cl  Cl5       1.0  0.84272  0.15470  0.65182  1.0000 -0.0078675198
Cl  Cl6       1.0  0.93322  0.20546  0.20755  1.0000 -0.0078675198
O   O1        1.0  0.28020  0.04100  0.01960  1.0000 -0.5126309673
O   O2        1.0  0.51910  0.25270  0.03910  1.0000 -0.5418406109
O   O3        1.0  0.36160  0.83880  0.60200  1.0000 -0.5465924124
O   O4        1.0  0.35970  0.02060  0.26980  1.0000 -0.5465924124
O   O5        1.0  0.56820  0.57740  0.81900  1.0000 -0.5126309673
O   O6        1.0  0.77570  0.78930  0.81320  1.0000 -0.4763970057
O   O7        1.0  0.71980  0.95900  0.98040  1.0000 -0.5126309673
O   O8        1.0  0.48090  0.74730  0.96090  1.0000 -0.5418406109
O   O9        1.0  0.63840  0.16120  0.39800  1.0000 -0.5465924124
O   O10       1.0  0.64030  0.97940  0.73020  1.0000 -0.5465924124
O   O11       1.0  0.43180  0.42260  0.18100  1.0000 -0.5161599795
O   O12       1.0  0.22430  0.21070  0.18680  1.0000 -0.4744152705
