# DDEC6 charges by PACMAN v1.1 (https://github.com/mtap-research/PACMAN-charge/)
data_2019[CuMoCr][nan]3[ASR]1
_chemical_formula_sum              "Cr2 Cu2 Mo12 H40 C36 N12 O36"
_cell_length_a       12.98
_cell_length_b       13.542
_cell_length_c       15.452
_cell_angle_alpha    83.793
_cell_angle_beta     67.491
_cell_angle_gamma    76.314

_symmetry_space_group_name_H-M    "P 1"
_symmetry_Int_Tables_number       1

loop_
  _symmetry_equiv_pos_as_xyz
  'x, y, z'

loop_
  _atom_site_type_symbol
  _atom_site_label
  _atom_site_symmetry_multiplicity
  _atom_site_fract_x
  _atom_site_fract_y
  _atom_site_fract_z
  _atom_site_occupancy
  _atom_site_charge
Cr  Cr1       1.0  0.00000  0.00000  0.00000  1.0000 1.5967824568
Cr  Cr2       1.0  0.00000  0.50000  0.00000  1.0000 1.5967824568
Cu  Cu1       1.0  0.16832  0.23645  0.68847  1.0000 0.9577617754
Cu  Cu2       1.0  0.83168  0.76355  0.31153  1.0000 0.9577617754
Mo  Mo1       1.0  0.15357  0.49240  0.76966  1.0000 2.0393644084
Mo  Mo2       1.0  0.23072  0.08911  0.87100  1.0000 2.1799153794
Mo  Mo3       1.0  0.10756  0.97604  0.76846  1.0000 2.0393644084
Mo  Mo4       1.0  0.92830  0.38376  0.86193  1.0000 2.1799153794
Mo  Mo5       1.0  0.23007  0.60530  0.91009  1.0000 1.7214838971
Mo  Mo6       1.0  0.87990  0.87803  0.90009  1.0000 1.8685948361
Mo  Mo7       1.0  0.84643  0.50760  0.23034  1.0000 2.0393644084
Mo  Mo8       1.0  0.76928  0.91089  0.12900  1.0000 2.1799153794
Mo  Mo9       1.0  0.89244  0.02396  0.23154  1.0000 2.0393644084
Mo  Mo10      1.0  0.07170  0.61624  0.13807  1.0000 2.1799153794
Mo  Mo11      1.0  0.76993  0.39470  0.08991  1.0000 1.7289607037
Mo  Mo12      1.0  0.12010  0.12197  0.09991  1.0000 1.8685948361
H   H1        1.0  0.56520  0.43440  0.35690  1.0000 0.1195059453
H   H2        1.0  0.46530  0.38440  0.42410  1.0000 0.1127605036
H   H3        1.0  0.21920  0.06200  0.52630  1.0000 0.1308904697
H   H4        1.0  0.04060  0.43250  0.34830  1.0000 0.1408395354
H   H5        1.0  0.09230  0.13050  0.43170  1.0000 0.1127605036
H   H6        1.0  0.06130  0.08360  0.35890  1.0000 0.1195059453
H   H7        1.0  0.50180  0.97160  0.30110  1.0000 0.1195059453
H   H8        1.0  0.26080  0.41740  0.53460  1.0000 0.1308904697
H   H9        1.0  0.28070  0.52750  0.40490  1.0000 0.1127605036
H   H10       1.0  0.93390  0.08690  0.55400  1.0000 0.1127605036
H   H11       1.0  0.89950  0.04270  0.48190  1.0000 0.1010744233
H   H12       1.0  0.16810  0.53700  0.31750  1.0000 0.1127605036
H   H13       1.0  0.31740  0.96360  0.39420  1.0000 0.1195059453
H   H14       1.0  0.89670  0.20770  0.39100  1.0000 0.1010744233
H   H15       1.0  0.00570  0.25450  0.35270  1.0000 0.1010744233
H   H16       1.0  0.61550  0.45050  0.48480  1.0000 0.1010744233
H   H17       1.0  0.51030  0.40600  0.55090  1.0000 0.1127605036
H   H18       1.0  0.61520  0.25990  0.34220  1.0000 0.1010744233
H   H19       1.0  0.69820  0.29780  0.37620  1.0000 0.1010744233
H   H20       1.0  0.60460  0.05990  0.33960  1.0000 0.1408395354
H   H21       1.0  0.43480  0.56560  0.64310  1.0000 0.1195059453
H   H22       1.0  0.53470  0.61560  0.57590  1.0000 0.1127605036
H   H23       1.0  0.78080  0.93800  0.47370  1.0000 0.1308904697
H   H24       1.0  0.95940  0.56750  0.65170  1.0000 0.1408395354
H   H25       1.0  0.90770  0.86950  0.56830  1.0000 0.1127605036
H   H26       1.0  0.93870  0.91640  0.64110  1.0000 0.1195059453
H   H27       1.0  0.49820  0.02840  0.69890  1.0000 0.1195059453
H   H28       1.0  0.73920  0.58260  0.46540  1.0000 0.1308904697
H   H29       1.0  0.71930  0.47250  0.59510  1.0000 0.1127605036
H   H30       1.0  0.06610  0.91310  0.44600  1.0000 0.1127605036
H   H31       1.0  0.10050  0.95730  0.51810  1.0000 0.1010744233
H   H32       1.0  0.83190  0.46300  0.68250  1.0000 0.1127605036
H   H33       1.0  0.68260  0.03640  0.60580  1.0000 0.1195059453
H   H34       1.0  0.10330  0.79230  0.60900  1.0000 0.1010744233
H   H35       1.0  0.99430  0.74550  0.64730  1.0000 0.1010744233
H   H36       1.0  0.38450  0.54950  0.51520  1.0000 0.1010744233
H   H37       1.0  0.48970  0.59400  0.44910  1.0000 0.1127605036
H   H38       1.0  0.38480  0.74010  0.65780  1.0000 0.1010744233
H   H39       1.0  0.30180  0.70220  0.62380  1.0000 0.1010744233
H   H40       1.0  0.39540  0.94010  0.66040  1.0000 0.1408395354
C   C1        1.0  0.54200  0.39200  0.41280  1.0000 -0.2246910523
C   C2        1.0  0.29450  0.06400  0.48920  1.0000 -0.1814943443
C   C3        1.0  0.08200  0.43130  0.38600  1.0000 -0.1613393839
C   C4        1.0  0.02900  0.11940  0.41760  1.0000 -0.2303836945
C   C5        1.0  0.46700  0.01000  0.35530  1.0000 -0.08817157
C   C6        1.0  0.21660  0.42130  0.49860  1.0000 -0.1863413047
C   C7        1.0  0.35290  0.12600  0.51060  1.0000 0.1127605036
C   C8        1.0  0.22800  0.48630  0.42150  1.0000 -0.1077274832
C   C9        1.0  0.13630  0.36260  0.51910  1.0000 0.1010744233
C   C10       1.0  0.06970  0.36850  0.46500  1.0000 0.0384526287
C   C11       1.0  0.96400  0.05210  0.49500  1.0000 -0.1613393839
C   C12       1.0  0.46750  0.12770  0.45400  1.0000 0.0384526287
C   C13       1.0  0.16000  0.49100  0.36770  1.0000 -0.08817157
C   C14       1.0  0.35340  0.00600  0.41080  1.0000 -0.0959747102
C   C15       1.0  0.96000  0.21850  0.40600  1.0000 -0.0640753325
C   C16       1.0  0.53900  0.44570  0.49400  1.0000 -0.1675138141
C   C17       1.0  0.62040  0.28930  0.39460  1.0000 -0.0697684974
C   C18       1.0  0.52760  0.06360  0.37510  1.0000 -0.1483252089
C   C19       1.0  0.45800  0.60800  0.58720  1.0000 -0.2246910523
C   C20       1.0  0.70550  0.93600  0.51080  1.0000 -0.1814943443
C   C21       1.0  0.91800  0.56870  0.61400  1.0000 -0.1613393839
C   C22       1.0  0.97100  0.88060  0.58240  1.0000 -0.2303836945
C   C23       1.0  0.53300  0.99000  0.64470  1.0000 -0.08817157
C   C24       1.0  0.78340  0.57870  0.50140  1.0000 -0.1863413047
C   C25       1.0  0.64710  0.87400  0.48940  1.0000 0.1127605036
C   C26       1.0  0.77200  0.51370  0.57850  1.0000 -0.1077274832
C   C27       1.0  0.86370  0.63740  0.48090  1.0000 0.1010744233
C   C28       1.0  0.93030  0.63150  0.53500  1.0000 0.0384526287
C   C29       1.0  0.03600  0.94790  0.50500  1.0000 -0.1613393839
C   C30       1.0  0.53250  0.87230  0.54600  1.0000 0.0384526287
C   C31       1.0  0.84000  0.50900  0.63230  1.0000 -0.08817157
C   C32       1.0  0.64660  0.99400  0.58920  1.0000 -0.0959747102
C   C33       1.0  0.04000  0.78150  0.59400  1.0000 -0.0640753325
C   C34       1.0  0.46100  0.55430  0.50600  1.0000 -0.1675138141
C   C35       1.0  0.37960  0.71070  0.60540  1.0000 -0.0697684974
C   C36       1.0  0.47240  0.93640  0.62490  1.0000 -0.1483252089
N   N1        1.0  0.49250  0.19550  0.49760  1.0000 0.1895448376
N   N2        1.0  0.40710  0.23020  0.57600  1.0000 -0.0697684974
N   N3        1.0  0.32170  0.19080  0.58260  1.0000 -0.1953271817
N   N4        1.0  0.10060  0.29380  0.59410  1.0000 -0.2387269254
N   N5        1.0  0.01730  0.25970  0.58500  1.0000 -0.0697684974
N   N6        1.0  0.00010  0.30210  0.51120  1.0000 0.2090317045
N   N7        1.0  0.50750  0.80450  0.50240  1.0000 0.1895448376
N   N8        1.0  0.59290  0.76980  0.42400  1.0000 -0.0697684974
N   N9        1.0  0.67830  0.80920  0.41740  1.0000 -0.1953271817
N   N10       1.0  0.89940  0.70620  0.40590  1.0000 -0.2387269254
N   N11       1.0  0.98270  0.74030  0.41500  1.0000 -0.0697684974
N   N12       1.0  0.99990  0.69790  0.48880  1.0000 0.2090317045
O   O1        1.0  0.95760  0.91070  0.10940  1.0000 -1.0262245427
O   O2        1.0  0.05180  0.88950  0.90830  1.0000 -1.0563859831
O   O3        1.0  0.84530  0.00290  0.00220  1.0000 -1.0994551272
O   O4        1.0  0.94660  0.97440  0.80680  1.0000 -0.906304289
O   O5        1.0  0.84890  0.81750  0.02490  1.0000 -0.8495143543
O   O6        1.0  0.23400  0.97560  0.80620  1.0000 -0.879395787
O   O7        1.0  0.23640  0.18020  0.78170  1.0000 -0.7152757536
O   O8        1.0  0.01620  0.28070  0.79090  1.0000 -0.712418605
O   O9        1.0  0.22200  0.38290  0.70570  1.0000 -0.7481713782
O   O10       1.0  0.06160  0.59400  0.89640  1.0000 -1.047445505
O   O11       1.0  0.07670  0.39220  0.90540  1.0000 -1.047445505
O   O12       1.0  0.59630  0.21650  0.47610  1.0000 -0.2303836945
O   O13       1.0  0.11510  0.08030  0.69450  1.0000 -0.7324054132
O   O14       1.0  0.13810  0.50000  0.02510  1.0000 -1.0994551272
O   O15       1.0  0.26280  0.49710  0.82410  1.0000 -0.9025091221
O   O16       1.0  0.87990  0.31260  0.97900  1.0000 -0.8408900093
O   O17       1.0  0.99690  0.48890  0.78980  1.0000 -0.879395787
O   O18       1.0  0.91280  0.28270  0.48960  1.0000 -0.2597651224
O   O19       1.0  0.04240  0.08930  0.89060  1.0000 -1.0245177041
O   O20       1.0  0.94820  0.11050  0.09170  1.0000 -1.0563859831
O   O21       1.0  0.15470  0.99710  0.99780  1.0000 -1.1076027642
O   O22       1.0  0.05340  0.02560  0.19320  1.0000 -0.9025091221
O   O23       1.0  0.15110  0.18250  0.97510  1.0000 -0.8495143543
O   O24       1.0  0.76600  0.02440  0.19380  1.0000 -0.879395787
O   O25       1.0  0.76360  0.81980  0.21830  1.0000 -0.7152757536
O   O26       1.0  0.98380  0.71930  0.20910  1.0000 -0.712418605
O   O27       1.0  0.77800  0.61710  0.29430  1.0000 -0.7481713782
O   O28       1.0  0.93840  0.40600  0.10360  1.0000 -1.047445505
O   O29       1.0  0.92330  0.60780  0.09460  1.0000 -1.0427628051
O   O30       1.0  0.40370  0.78350  0.52390  1.0000 -0.2303836945
O   O31       1.0  0.88490  0.91970  0.30550  1.0000 -0.7324054132
O   O32       1.0  0.86190  0.50000  0.97490  1.0000 -1.0994551272
O   O33       1.0  0.73720  0.50290  0.17590  1.0000 -0.9025091221
O   O34       1.0  0.12010  0.68740  0.02100  1.0000 -0.8408900093
O   O35       1.0  0.00310  0.51110  0.21020  1.0000 -0.879395787
O   O36       1.0  0.08720  0.71730  0.51040  1.0000 -0.2597651224
