# DDEC6 charges by PACMAN v1.1 (https://github.com/mtap-research/PACMAN-charge/)
data_2019[Cd][sql]2[ASR]6
_chemical_formula_sum              "Cd4 H104 C88 N16 O24"
_cell_length_a       8.7252
_cell_length_b       20.596
_cell_length_c       17.1148
_cell_angle_alpha    90
_cell_angle_beta     98.84
_cell_angle_gamma    90

_symmetry_space_group_name_H-M    "P 1"
_symmetry_Int_Tables_number       1

loop_
  _symmetry_equiv_pos_as_xyz
  'x, y, z'

loop_
  _atom_site_type_symbol
  _atom_site_label
  _atom_site_symmetry_multiplicity
  _atom_site_fract_x
  _atom_site_fract_y
  _atom_site_fract_z
  _atom_site_occupancy
  _atom_site_charge
Cd  Cd1       1.0  0.54763  0.14438  0.78546  1.0000 0.809267564
Cd  Cd2       1.0  0.95237  0.64438  0.21454  1.0000 0.809267564
Cd  Cd3       1.0  0.45237  0.85562  0.21454  1.0000 0.809267564
Cd  Cd4       1.0  0.04763  0.35562  0.78546  1.0000 0.809267564
H   H1        1.0  0.42700  0.15000  0.19300  1.0000 0.2552641763
H   H2        1.0  0.31640  0.16040  0.91360  1.0000 0.1195380605
H   H3        1.0  0.51240  0.02250  0.16730  1.0000 0.138953008
H   H4        1.0  0.33660  0.04690  0.14770  1.0000 0.1500458925
H   H5        1.0  0.76890  0.22470  0.42490  1.0000 0.1083242229
H   H6        1.0  0.59630  0.25190  0.40190  1.0000 0.1015929322
H   H7        1.0  0.63060  0.22040  0.26860  1.0000 0.1015929322
H   H8        1.0  0.79450  0.18770  0.30150  1.0000 0.1083242229
H   H9        1.0  0.41770  0.13720  0.39450  1.0000 0.1083242229
H   H10       1.0  0.40380  0.19010  0.32500  1.0000 0.0873344394
H   H11       1.0  0.70480  0.08650  0.24820  1.0000 0.1299541117
H   H12       1.0  0.68900  0.14000  0.17940  1.0000 0.1299541117
H   H13       1.0  0.71410  0.06690  0.94310  1.0000 0.1195380605
H   H14       1.0  0.27200  0.13060  0.03910  1.0000 0.1500458925
H   H15       1.0  0.13140  0.98920  0.79120  1.0000 0.1083242229
H   H16       1.0  0.95010  0.98120  0.76000  1.0000 0.1015929322
H   H17       1.0  0.71810  0.10640  0.50630  1.0000 0.138953008
H   H18       1.0  0.00960  0.14000  0.69650  1.0000 0.1083242229
H   H19       1.0  0.04560  0.06670  0.67290  1.0000 0.1195380605
H   H20       1.0  0.30830  0.08990  0.27400  1.0000 0.1299541117
H   H21       1.0  0.47060  0.05580  0.30670  1.0000 0.138953008
H   H22       1.0  0.08070  0.09480  0.83800  1.0000 0.1015929322
H   H23       1.0  0.68270  0.03720  0.06990  1.0000 0.138953008
H   H24       1.0  0.47600  0.25100  0.64950  1.0000 0.1195380605
H   H25       1.0  0.67220  0.08220  0.63250  1.0000 0.1195380605
H   H26       1.0  0.52300  0.27970  0.52590  1.0000 0.1299541117
H   H27       1.0  0.07300  0.65000  0.80700  1.0000 0.2552641763
H   H28       1.0  0.18360  0.66040  0.08640  1.0000 0.1195380605
H   H29       1.0  0.98760  0.52250  0.83270  1.0000 0.138953008
H   H30       1.0  0.16340  0.54690  0.85230  1.0000 0.1500458925
H   H31       1.0  0.73110  0.72470  0.57510  1.0000 0.1083242229
H   H32       1.0  0.90370  0.75190  0.59810  1.0000 0.1015929322
H   H33       1.0  0.86940  0.72040  0.73140  1.0000 0.1015929322
H   H34       1.0  0.70550  0.68770  0.69850  1.0000 0.1083242229
H   H35       1.0  0.08230  0.63720  0.60550  1.0000 0.1083242229
H   H36       1.0  0.09620  0.69010  0.67500  1.0000 0.0873344394
H   H37       1.0  0.79520  0.58650  0.75180  1.0000 0.1299541117
H   H38       1.0  0.81100  0.64000  0.82060  1.0000 0.1299541117
H   H39       1.0  0.78590  0.56690  0.05690  1.0000 0.1195380605
H   H40       1.0  0.22800  0.63060  0.96090  1.0000 0.1500458925
H   H41       1.0  0.36860  0.48920  0.20880  1.0000 0.1083242229
H   H42       1.0  0.54990  0.48120  0.24000  1.0000 0.1015929322
H   H43       1.0  0.78190  0.60640  0.49370  1.0000 0.138953008
H   H44       1.0  0.49040  0.64000  0.30350  1.0000 0.1083242229
H   H45       1.0  0.45440  0.56670  0.32710  1.0000 0.1195380605
H   H46       1.0  0.19170  0.58990  0.72600  1.0000 0.1299541117
H   H47       1.0  0.02940  0.55580  0.69330  1.0000 0.138953008
H   H48       1.0  0.41930  0.59480  0.16200  1.0000 0.1015929322
H   H49       1.0  0.81730  0.53720  0.93010  1.0000 0.138953008
H   H50       1.0  0.02400  0.75100  0.35050  1.0000 0.1195380605
H   H51       1.0  0.82780  0.58220  0.36750  1.0000 0.1195380605
H   H52       1.0  0.97700  0.77970  0.47410  1.0000 0.1299541117
H   H53       1.0  0.57300  0.85000  0.80700  1.0000 0.2552641763
H   H54       1.0  0.68360  0.83960  0.08640  1.0000 0.1195380605
H   H55       1.0  0.48760  0.97750  0.83270  1.0000 0.138953008
H   H56       1.0  0.66340  0.95310  0.85230  1.0000 0.1500458925
H   H57       1.0  0.23110  0.77530  0.57510  1.0000 0.1083242229
H   H58       1.0  0.40370  0.74810  0.59810  1.0000 0.1015929322
H   H59       1.0  0.36940  0.77960  0.73140  1.0000 0.1015929322
H   H60       1.0  0.20550  0.81230  0.69850  1.0000 0.1083242229
H   H61       1.0  0.58230  0.86280  0.60550  1.0000 0.1083242229
H   H62       1.0  0.59620  0.80990  0.67500  1.0000 0.0873344394
H   H63       1.0  0.29520  0.91350  0.75180  1.0000 0.1299541117
H   H64       1.0  0.31100  0.86000  0.82060  1.0000 0.1299541117
H   H65       1.0  0.28590  0.93310  0.05690  1.0000 0.1195380605
H   H66       1.0  0.72800  0.86940  0.96090  1.0000 0.1500458925
H   H67       1.0  0.86860  0.01080  0.20880  1.0000 0.1083242229
H   H68       1.0  0.04990  0.01880  0.24000  1.0000 0.1015929322
H   H69       1.0  0.28190  0.89360  0.49370  1.0000 0.138953008
H   H70       1.0  0.99040  0.86000  0.30350  1.0000 0.1083242229
H   H71       1.0  0.95440  0.93330  0.32710  1.0000 0.1195380605
H   H72       1.0  0.69170  0.91010  0.72600  1.0000 0.1299541117
H   H73       1.0  0.52940  0.94420  0.69330  1.0000 0.138953008
H   H74       1.0  0.91930  0.90520  0.16200  1.0000 0.1015929322
H   H75       1.0  0.31730  0.96280  0.93010  1.0000 0.138953008
H   H76       1.0  0.52400  0.74900  0.35050  1.0000 0.1195380605
H   H77       1.0  0.32780  0.91780  0.36750  1.0000 0.1195380605
H   H78       1.0  0.47700  0.72030  0.47410  1.0000 0.1299541117
H   H79       1.0  0.92700  0.35000  0.19300  1.0000 0.2552641763
H   H80       1.0  0.81640  0.33960  0.91360  1.0000 0.1195380605
H   H81       1.0  0.01240  0.47750  0.16730  1.0000 0.138953008
H   H82       1.0  0.83660  0.45310  0.14770  1.0000 0.1500458925
H   H83       1.0  0.26890  0.27530  0.42490  1.0000 0.1083242229
H   H84       1.0  0.09630  0.24810  0.40190  1.0000 0.1015929322
H   H85       1.0  0.13060  0.27960  0.26860  1.0000 0.1015929322
H   H86       1.0  0.29450  0.31230  0.30150  1.0000 0.1083242229
H   H87       1.0  0.91770  0.36280  0.39450  1.0000 0.1083242229
H   H88       1.0  0.90380  0.30990  0.32500  1.0000 0.0873344394
H   H89       1.0  0.20480  0.41350  0.24820  1.0000 0.1299541117
H   H90       1.0  0.18900  0.36000  0.17940  1.0000 0.1299541117
H   H91       1.0  0.21410  0.43310  0.94310  1.0000 0.1195380605
H   H92       1.0  0.77200  0.36940  0.03910  1.0000 0.1500458925
H   H93       1.0  0.63140  0.51080  0.79120  1.0000 0.1083242229
H   H94       1.0  0.45010  0.51880  0.76000  1.0000 0.1015929322
H   H95       1.0  0.21810  0.39360  0.50630  1.0000 0.138953008
H   H96       1.0  0.50960  0.36000  0.69650  1.0000 0.1083242229
H   H97       1.0  0.54560  0.43330  0.67290  1.0000 0.1195380605
H   H98       1.0  0.80830  0.41010  0.27400  1.0000 0.1299541117
H   H99       1.0  0.97060  0.44420  0.30670  1.0000 0.138953008
H   H100      1.0  0.58070  0.40520  0.83800  1.0000 0.1015929322
H   H101      1.0  0.18270  0.46280  0.06990  1.0000 0.138953008
H   H102      1.0  0.97600  0.24900  0.64950  1.0000 0.1195380605
H   H103      1.0  0.17220  0.41780  0.63250  1.0000 0.1195380605
H   H104      1.0  0.02300  0.22030  0.52590  1.0000 0.1299541117
C   C1        1.0  0.39110  0.13420  0.94540  1.0000 0.0873344394
C   C2        1.0  0.44610  0.06050  0.15020  1.0000 -0.1940620725
C   C3        1.0  0.65790  0.21310  0.42080  1.0000 -0.1975540758
C   C4        1.0  0.68150  0.17970  0.28970  1.0000 -0.149608623
C   C5        1.0  0.45720  0.14970  0.34530  1.0000 -0.149608623
C   C6        1.0  0.64960  0.12660  0.22820  1.0000 -0.1392145899
C   C7        1.0  0.62290  0.08010  0.96260  1.0000 0.1015929322
C   C8        1.0  0.36450  0.11730  0.02080  1.0000 -0.1940620725
C   C9        1.0  0.02670  0.00210  0.80100  1.0000 -0.3795265869
C   C10       1.0  0.66840  0.13740  0.53490  1.0000 -0.2061232009
C   C11       1.0  0.06600  0.09980  0.71510  1.0000 -0.3502428622
C   C12       1.0  0.42180  0.09680  0.28520  1.0000 -0.1392145899
C   C13       1.0  0.01120  0.07480  0.79240  1.0000 -0.0685613581
C   C14       1.0  0.62420  0.19560  0.50140  1.0000 0.1299541117
C   C15       1.0  0.60490  0.06230  0.03860  1.0000 -0.1975540758
C   C16       1.0  0.00270  0.97700  0.88090  1.0000 0.6035443081
C   C17       1.0  0.84690  0.09800  0.79660  1.0000 0.5614009781
C   C18       1.0  0.23870  0.11320  0.73460  1.0000 0.6136018469
C   C19       1.0  0.47320  0.08100  0.06890  1.0000 0.1299541117
C   C20       1.0  0.52830  0.22110  0.62070  1.0000 0.0808922353
C   C21       1.0  0.64100  0.12340  0.61050  1.0000 0.0808922353
C   C22       1.0  0.55410  0.23810  0.54640  1.0000 -0.2266577274
C   C23       1.0  0.10890  0.63420  0.05460  1.0000 0.0873344394
C   C24       1.0  0.05390  0.56050  0.84980  1.0000 -0.1940620725
C   C25       1.0  0.84210  0.71310  0.57920  1.0000 -0.1975540758
C   C26       1.0  0.81850  0.67970  0.71030  1.0000 -0.149608623
C   C27       1.0  0.04280  0.64970  0.65470  1.0000 -0.149608623
C   C28       1.0  0.85040  0.62660  0.77180  1.0000 -0.1392145899
C   C29       1.0  0.87710  0.58010  0.03740  1.0000 0.1015929322
C   C30       1.0  0.13550  0.61730  0.97920  1.0000 -0.1940620725
C   C31       1.0  0.47330  0.50210  0.19900  1.0000 -0.3795265869
C   C32       1.0  0.83160  0.63740  0.46510  1.0000 -0.2061232009
C   C33       1.0  0.43400  0.59980  0.28490  1.0000 -0.3502428622
C   C34       1.0  0.07820  0.59680  0.71480  1.0000 -0.1392145899
C   C35       1.0  0.48880  0.57480  0.20760  1.0000 -0.0685613581
C   C36       1.0  0.87580  0.69560  0.49860  1.0000 0.1299541117
C   C37       1.0  0.89510  0.56230  0.96140  1.0000 -0.1975540758
C   C38       1.0  0.49730  0.47700  0.11910  1.0000 0.6035443081
C   C39       1.0  0.65310  0.59800  0.20340  1.0000 0.5614009781
C   C40       1.0  0.26130  0.61320  0.26540  1.0000 0.6136018469
C   C41       1.0  0.02680  0.58100  0.93110  1.0000 0.1299541117
C   C42       1.0  0.97170  0.72110  0.37930  1.0000 0.0808922353
C   C43       1.0  0.85900  0.62340  0.38950  1.0000 0.0808922353
C   C44       1.0  0.94590  0.73810  0.45360  1.0000 -0.2266577274
C   C45       1.0  0.60890  0.86580  0.05460  1.0000 0.0873344394
C   C46       1.0  0.55390  0.93950  0.84980  1.0000 -0.1940620725
C   C47       1.0  0.34210  0.78690  0.57920  1.0000 -0.1975540758
C   C48       1.0  0.31850  0.82030  0.71030  1.0000 -0.149608623
C   C49       1.0  0.54280  0.85030  0.65470  1.0000 -0.149608623
C   C50       1.0  0.35040  0.87340  0.77180  1.0000 -0.1392145899
C   C51       1.0  0.37710  0.91990  0.03740  1.0000 0.1015929322
C   C52       1.0  0.63550  0.88270  0.97920  1.0000 -0.1940620725
C   C53       1.0  0.97330  0.99790  0.19900  1.0000 -0.3795265869
C   C54       1.0  0.33160  0.86260  0.46510  1.0000 -0.2061232009
C   C55       1.0  0.93400  0.90020  0.28490  1.0000 -0.3502428622
C   C56       1.0  0.57820  0.90320  0.71480  1.0000 -0.1392145899
C   C57       1.0  0.98880  0.92520  0.20760  1.0000 -0.0685613581
C   C58       1.0  0.37580  0.80440  0.49860  1.0000 0.1299541117
C   C59       1.0  0.39510  0.93770  0.96140  1.0000 -0.1975540758
C   C60       1.0  0.99730  0.02300  0.11910  1.0000 0.6035443081
C   C61       1.0  0.15310  0.90200  0.20340  1.0000 0.5614009781
C   C62       1.0  0.76130  0.88680  0.26540  1.0000 0.6136018469
C   C63       1.0  0.52680  0.91900  0.93110  1.0000 0.1299541117
C   C64       1.0  0.47170  0.77890  0.37930  1.0000 0.0808922353
C   C65       1.0  0.35900  0.87660  0.38950  1.0000 0.0808922353
C   C66       1.0  0.44590  0.76190  0.45360  1.0000 -0.2266577274
C   C67       1.0  0.89110  0.36580  0.94540  1.0000 0.0873344394
C   C68       1.0  0.94610  0.43950  0.15020  1.0000 -0.1940620725
C   C69       1.0  0.15790  0.28690  0.42080  1.0000 -0.1975540758
C   C70       1.0  0.18150  0.32030  0.28970  1.0000 -0.149608623
C   C71       1.0  0.95720  0.35030  0.34530  1.0000 -0.149608623
C   C72       1.0  0.14960  0.37340  0.22820  1.0000 -0.1392145899
C   C73       1.0  0.12290  0.41990  0.96260  1.0000 0.1015929322
C   C74       1.0  0.86450  0.38270  0.02080  1.0000 -0.1940620725
C   C75       1.0  0.52670  0.49790  0.80100  1.0000 -0.3795265869
C   C76       1.0  0.16840  0.36260  0.53490  1.0000 -0.2061232009
C   C77       1.0  0.56600  0.40020  0.71510  1.0000 -0.3502428622
C   C78       1.0  0.92180  0.40320  0.28520  1.0000 -0.1392145899
C   C79       1.0  0.51120  0.42520  0.79240  1.0000 -0.0685613581
C   C80       1.0  0.12420  0.30440  0.50140  1.0000 0.1299541117
C   C81       1.0  0.10490  0.43770  0.03860  1.0000 -0.1975540758
C   C82       1.0  0.50270  0.52300  0.88090  1.0000 0.6035443081
C   C83       1.0  0.34690  0.40200  0.79660  1.0000 0.5614009781
C   C84       1.0  0.73870  0.38680  0.73460  1.0000 0.6136018469
C   C85       1.0  0.97320  0.41900  0.06890  1.0000 0.1299541117
C   C86       1.0  0.02830  0.27890  0.62070  1.0000 0.0808922353
C   C87       1.0  0.14100  0.37660  0.61050  1.0000 0.0808922353
C   C88       1.0  0.05410  0.26190  0.54640  1.0000 -0.2266577274
N   N1        1.0  0.62330  0.16140  0.36280  1.0000 -0.078666819
N   N2        1.0  0.57260  0.16510  0.65400  1.0000 -0.2061232009
N   N3        1.0  0.51740  0.11530  0.91540  1.0000 -0.2392353506
N   N4        1.0  0.48060  0.11350  0.20990  1.0000 0.0146226825
N   N5        1.0  0.87670  0.66140  0.63720  1.0000 -0.078666819
N   N6        1.0  0.92740  0.66510  0.34600  1.0000 -0.2061232009
N   N7        1.0  0.98260  0.61530  0.08460  1.0000 -0.2392353506
N   N8        1.0  0.01940  0.61350  0.79010  1.0000 0.0146226825
N   N9        1.0  0.37670  0.83860  0.63720  1.0000 -0.078666819
N   N10       1.0  0.42740  0.83490  0.34600  1.0000 -0.2061232009
N   N11       1.0  0.48260  0.88470  0.08460  1.0000 -0.2392353506
N   N12       1.0  0.51940  0.88650  0.79010  1.0000 0.0146226825
N   N13       1.0  0.12330  0.33860  0.36280  1.0000 -0.078666819
N   N14       1.0  0.07260  0.33490  0.65400  1.0000 -0.2061232009
N   N15       1.0  0.01740  0.38470  0.91540  1.0000 -0.2392353506
N   N16       1.0  0.98060  0.38650  0.20990  1.0000 0.0146226825
O   O1        1.0  0.00350  0.02100  0.93410  1.0000 -0.4857377873
O   O2        1.0  0.98750  0.91910  0.89340  1.0000 -0.5884466336
O   O3        1.0  0.33530  0.06822  0.73120  1.0000 -0.5978418754
O   O4        1.0  0.73510  0.05991  0.78170  1.0000 -0.5623780431
O   O5        1.0  0.82920  0.15693  0.81550  1.0000 -0.5623780431
O   O6        1.0  0.28110  0.16865  0.75940  1.0000 -0.5662080215
O   O7        1.0  0.49650  0.52100  0.06590  1.0000 -0.4831421044
O   O8        1.0  0.51250  0.41910  0.10660  1.0000 -0.5884466336
O   O9        1.0  0.16470  0.56822  0.26880  1.0000 -0.5978418754
O   O10       1.0  0.76490  0.55991  0.21830  1.0000 -0.5623780431
O   O11       1.0  0.67080  0.65693  0.18450  1.0000 -0.5623780431
O   O12       1.0  0.21890  0.66865  0.24060  1.0000 -0.5662080215
O   O13       1.0  0.99650  0.97900  0.06590  1.0000 -0.4831421044
O   O14       1.0  0.01250  0.08090  0.10660  1.0000 -0.5884466336
O   O15       1.0  0.66470  0.93178  0.26880  1.0000 -0.5978418754
O   O16       1.0  0.26490  0.94009  0.21830  1.0000 -0.5623780431
O   O17       1.0  0.17080  0.84307  0.18450  1.0000 -0.5623780431
O   O18       1.0  0.71890  0.83135  0.24060  1.0000 -0.5662080215
O   O19       1.0  0.50350  0.47900  0.93410  1.0000 -0.4831421044
O   O20       1.0  0.48750  0.58090  0.89340  1.0000 -0.5884466336
O   O21       1.0  0.83530  0.43178  0.73120  1.0000 -0.5978418754
O   O22       1.0  0.23510  0.44009  0.78170  1.0000 -0.5623780431
O   O23       1.0  0.32920  0.34307  0.81550  1.0000 -0.5623780431
O   O24       1.0  0.78110  0.33135  0.75940  1.0000 -0.5662080215
