# DDEC6 charges by PACMAN v1.1 (https://github.com/mtap-research/PACMAN-charge/)
data_2019[Zn][nan]3[ASR]6
_chemical_formula_sum              "Zn8 H32 C48 N80"
_cell_length_a       8.9365
_cell_length_b       14.646
_cell_length_c       17.561
_cell_angle_alpha    90
_cell_angle_beta     90
_cell_angle_gamma    90

_symmetry_space_group_name_H-M    "P 1"
_symmetry_Int_Tables_number       1

loop_
  _symmetry_equiv_pos_as_xyz
  'x, y, z'

loop_
  _atom_site_type_symbol
  _atom_site_label
  _atom_site_symmetry_multiplicity
  _atom_site_fract_x
  _atom_site_fract_y
  _atom_site_fract_z
  _atom_site_occupancy
  _atom_site_charge
Zn  Zn1       1.0  0.67285  0.18233  0.62523  1.0000 0.6041287303
Zn  Zn2       1.0  0.82715  0.81767  0.12523  1.0000 0.6041287303
Zn  Zn3       1.0  0.32715  0.68233  0.87477  1.0000 0.6041287303
Zn  Zn4       1.0  0.17285  0.31767  0.37477  1.0000 0.6041287303
Zn  Zn5       1.0  0.32715  0.81767  0.37477  1.0000 0.6041287303
Zn  Zn6       1.0  0.17285  0.18233  0.87477  1.0000 0.6041287303
Zn  Zn7       1.0  0.67285  0.31767  0.12523  1.0000 0.6041287303
Zn  Zn8       1.0  0.82715  0.68233  0.62523  1.0000 0.6041287303
H   H1        1.0  0.57620  0.02020  0.57150  1.0000 0.2832937211
H   H2        1.0  0.72630  0.04130  0.53020  1.0000 0.2936276019
H   H3        1.0  0.91690  0.25770  0.74840  1.0000 0.1106057659
H   H4        1.0  0.53930  0.66430  0.46760  1.0000 0.1106057659
H   H5        1.0  0.92380  0.97980  0.07150  1.0000 0.2832937211
H   H6        1.0  0.77370  0.95870  0.03020  1.0000 0.2936276019
H   H7        1.0  0.58310  0.74230  0.24840  1.0000 0.1106057659
H   H8        1.0  0.96070  0.33570  0.96760  1.0000 0.1106057659
H   H9        1.0  0.42380  0.52020  0.92850  1.0000 0.2832937211
H   H10       1.0  0.27370  0.54130  0.96980  1.0000 0.2936276019
H   H11       1.0  0.08310  0.75770  0.75160  1.0000 0.1106057659
H   H12       1.0  0.46070  0.16430  0.03240  1.0000 0.1106057659
H   H13       1.0  0.07620  0.47980  0.42850  1.0000 0.2832937211
H   H14       1.0  0.22630  0.45870  0.46980  1.0000 0.2936276019
H   H15       1.0  0.41690  0.24230  0.25160  1.0000 0.1106057659
H   H16       1.0  0.03930  0.83570  0.53240  1.0000 0.1106057659
H   H17       1.0  0.42380  0.97980  0.42850  1.0000 0.2832937211
H   H18       1.0  0.27370  0.95870  0.46980  1.0000 0.2936276019
H   H19       1.0  0.08310  0.74230  0.25160  1.0000 0.1106057659
H   H20       1.0  0.46070  0.33570  0.53240  1.0000 0.1106057659
H   H21       1.0  0.07620  0.02020  0.92850  1.0000 0.2832937211
H   H22       1.0  0.22630  0.04130  0.96980  1.0000 0.2936276019
H   H23       1.0  0.41690  0.25770  0.75160  1.0000 0.1106057659
H   H24       1.0  0.03930  0.66430  0.03240  1.0000 0.1106057659
H   H25       1.0  0.57620  0.47980  0.07150  1.0000 0.2832937211
H   H26       1.0  0.72630  0.45870  0.03020  1.0000 0.2936276019
H   H27       1.0  0.91690  0.24230  0.24840  1.0000 0.1106057659
H   H28       1.0  0.53930  0.83570  0.96760  1.0000 0.1106057659
H   H29       1.0  0.92380  0.52020  0.57150  1.0000 0.2832937211
H   H30       1.0  0.77370  0.54130  0.53020  1.0000 0.2936276019
H   H31       1.0  0.58310  0.75770  0.74840  1.0000 0.1106057659
H   H32       1.0  0.96070  0.16430  0.46760  1.0000 0.1106057659
C   C1        1.0  0.92440  0.19441  0.74664  1.0000 0.146746504
C   C2        1.0  0.89440  0.05755  0.71731  1.0000 0.2316177607
C   C3        1.0  0.84420  0.97311  0.68089  1.0000 0.1600560368
C   C4        1.0  0.73580  0.87617  0.60523  1.0000 0.1315038622
C   C5        1.0  0.64630  0.83109  0.54738  1.0000 0.2221670121
C   C6        1.0  0.55940  0.72259  0.48586  1.0000 0.1399762024
C   C7        1.0  0.57560  0.80559  0.24664  1.0000 0.146746504
C   C8        1.0  0.60560  0.94245  0.21731  1.0000 0.2316177607
C   C9        1.0  0.65580  0.02689  0.18089  1.0000 0.1600560368
C   C10       1.0  0.76420  0.12383  0.10523  1.0000 0.1315038622
C   C11       1.0  0.85370  0.16891  0.04738  1.0000 0.2221670121
C   C12       1.0  0.94060  0.27741  0.98586  1.0000 0.1399762024
C   C13       1.0  0.07560  0.69441  0.75336  1.0000 0.146746504
C   C14       1.0  0.10560  0.55755  0.78269  1.0000 0.2316177607
C   C15       1.0  0.15580  0.47311  0.81911  1.0000 0.1600560368
C   C16       1.0  0.26420  0.37617  0.89477  1.0000 0.1315038622
C   C17       1.0  0.35370  0.33109  0.95262  1.0000 0.2221670121
C   C18       1.0  0.44060  0.22259  0.01414  1.0000 0.1399762024
C   C19       1.0  0.42440  0.30559  0.25336  1.0000 0.146746504
C   C20       1.0  0.39440  0.44245  0.28269  1.0000 0.2316177607
C   C21       1.0  0.34420  0.52689  0.31911  1.0000 0.1600560368
C   C22       1.0  0.23580  0.62383  0.39477  1.0000 0.1315038622
C   C23       1.0  0.14630  0.66891  0.45262  1.0000 0.2221670121
C   C24       1.0  0.05940  0.77741  0.51414  1.0000 0.1399762024
C   C25       1.0  0.07560  0.80559  0.25336  1.0000 0.146746504
C   C26       1.0  0.10560  0.94245  0.28269  1.0000 0.2316177607
C   C27       1.0  0.15580  0.02689  0.31911  1.0000 0.1600560368
C   C28       1.0  0.26420  0.12383  0.39477  1.0000 0.1315038622
C   C29       1.0  0.35370  0.16891  0.45262  1.0000 0.2221670121
C   C30       1.0  0.44060  0.27741  0.51414  1.0000 0.1399762024
C   C31       1.0  0.42440  0.19441  0.75336  1.0000 0.146746504
C   C32       1.0  0.39440  0.05755  0.78269  1.0000 0.2316177607
C   C33       1.0  0.34420  0.97311  0.81911  1.0000 0.1600560368
C   C34       1.0  0.23580  0.87617  0.89477  1.0000 0.1315038622
C   C35       1.0  0.14630  0.83109  0.95262  1.0000 0.2221670121
C   C36       1.0  0.05940  0.72259  0.01414  1.0000 0.1399762024
C   C37       1.0  0.92440  0.30559  0.24664  1.0000 0.146746504
C   C38       1.0  0.89440  0.44245  0.21731  1.0000 0.2316177607
C   C39       1.0  0.84420  0.52689  0.18089  1.0000 0.1600560368
C   C40       1.0  0.73580  0.62383  0.10523  1.0000 0.1315038622
C   C41       1.0  0.64630  0.66891  0.04738  1.0000 0.2221670121
C   C42       1.0  0.55940  0.77741  0.98586  1.0000 0.1399762024
C   C43       1.0  0.57560  0.69441  0.74664  1.0000 0.146746504
C   C44       1.0  0.60560  0.55755  0.71731  1.0000 0.2316177607
C   C45       1.0  0.65580  0.47311  0.68089  1.0000 0.1600560368
C   C46       1.0  0.76420  0.37617  0.60523  1.0000 0.1315038622
C   C47       1.0  0.85370  0.33109  0.54738  1.0000 0.2221670121
C   C48       1.0  0.94060  0.22259  0.48586  1.0000 0.1399762024
N   N1        1.0  0.84680  0.14246  0.69832  1.0000 -0.3485142953
N   N2        1.0  0.01310  0.14653  0.79176  1.0000 -0.1805062044
N   N3        1.0  0.99390  0.05645  0.77298  1.0000 -0.2633040614
N   N4        1.0  0.88820  0.89098  0.70155  1.0000 -0.2366731531
N   N5        1.0  0.81820  0.82946  0.65343  1.0000 -0.2083349518
N   N6        1.0  0.74910  0.96667  0.62022  1.0000 0.097745004
N   N7        1.0  0.67920  0.03854  0.57993  1.0000 -0.4798371374
N   N8        1.0  0.65790  0.73961  0.54170  1.0000 -0.3485142953
N   N9        1.0  0.49360  0.79705  0.45930  1.0000 -0.1805062044
N   N10       1.0  0.55060  0.86954  0.50001  1.0000 -0.2858836643
N   N11       1.0  0.65320  0.85754  0.19832  1.0000 -0.3485142953
N   N12       1.0  0.48690  0.85347  0.29176  1.0000 -0.1805062044
N   N13       1.0  0.50610  0.94355  0.27298  1.0000 -0.2633040614
N   N14       1.0  0.61180  0.10902  0.20155  1.0000 -0.2366731531
N   N15       1.0  0.68180  0.17054  0.15343  1.0000 -0.2083349518
N   N16       1.0  0.75090  0.03333  0.12022  1.0000 0.097745004
N   N17       1.0  0.82080  0.96146  0.07993  1.0000 -0.4798371374
N   N18       1.0  0.84210  0.26039  0.04170  1.0000 -0.3485142953
N   N19       1.0  0.00640  0.20295  0.95930  1.0000 -0.1805062044
N   N20       1.0  0.94940  0.13046  0.00001  1.0000 -0.2858836643
N   N21       1.0  0.15320  0.64246  0.80168  1.0000 -0.3485142953
N   N22       1.0  0.98690  0.64653  0.70824  1.0000 -0.1805062044
N   N23       1.0  0.00610  0.55645  0.72702  1.0000 -0.2633040614
N   N24       1.0  0.11180  0.39098  0.79845  1.0000 -0.2366731531
N   N25       1.0  0.18180  0.32946  0.84657  1.0000 -0.2083349518
N   N26       1.0  0.25090  0.46667  0.87978  1.0000 0.097745004
N   N27       1.0  0.32080  0.53854  0.92007  1.0000 -0.4798371374
N   N28       1.0  0.34210  0.23961  0.95830  1.0000 -0.3485142953
N   N29       1.0  0.50640  0.29705  0.04070  1.0000 -0.1805062044
N   N30       1.0  0.44940  0.36954  0.99999  1.0000 -0.2858836643
N   N31       1.0  0.34680  0.35754  0.30168  1.0000 -0.3485142953
N   N32       1.0  0.51310  0.35347  0.20824  1.0000 -0.1805062044
N   N33       1.0  0.49390  0.44355  0.22702  1.0000 -0.2633040614
N   N34       1.0  0.38820  0.60902  0.29845  1.0000 -0.2366731531
N   N35       1.0  0.31820  0.67054  0.34657  1.0000 -0.2083349518
N   N36       1.0  0.24910  0.53333  0.37978  1.0000 0.097745004
N   N37       1.0  0.17920  0.46146  0.42007  1.0000 -0.4798371374
N   N38       1.0  0.15790  0.76039  0.45830  1.0000 -0.3485142953
N   N39       1.0  0.99360  0.70295  0.54070  1.0000 -0.1805062044
N   N40       1.0  0.05060  0.63046  0.49999  1.0000 -0.2858836643
N   N41       1.0  0.15320  0.85754  0.30168  1.0000 -0.3485142953
N   N42       1.0  0.98690  0.85347  0.20824  1.0000 -0.1805062044
N   N43       1.0  0.00610  0.94355  0.22702  1.0000 -0.2633040614
N   N44       1.0  0.11180  0.10902  0.29845  1.0000 -0.2366731531
N   N45       1.0  0.18180  0.17054  0.34657  1.0000 -0.2083349518
N   N46       1.0  0.25090  0.03333  0.37978  1.0000 0.097745004
N   N47       1.0  0.32080  0.96146  0.42007  1.0000 -0.4798371374
N   N48       1.0  0.34210  0.26039  0.45830  1.0000 -0.3485142953
N   N49       1.0  0.50640  0.20295  0.54070  1.0000 -0.1805062044
N   N50       1.0  0.44940  0.13046  0.49999  1.0000 -0.2858836643
N   N51       1.0  0.34680  0.14246  0.80168  1.0000 -0.3485142953
N   N52       1.0  0.51310  0.14653  0.70824  1.0000 -0.1805062044
N   N53       1.0  0.49390  0.05645  0.72702  1.0000 -0.2633040614
N   N54       1.0  0.38820  0.89098  0.79845  1.0000 -0.2366731531
N   N55       1.0  0.31820  0.82946  0.84657  1.0000 -0.2083349518
N   N56       1.0  0.24910  0.96667  0.87978  1.0000 0.097745004
N   N57       1.0  0.17920  0.03854  0.92007  1.0000 -0.4798371374
N   N58       1.0  0.15790  0.73961  0.95830  1.0000 -0.3485142953
N   N59       1.0  0.99360  0.79705  0.04070  1.0000 -0.1805062044
N   N60       1.0  0.05060  0.86954  0.99999  1.0000 -0.2858836643
N   N61       1.0  0.84680  0.35754  0.19832  1.0000 -0.3485142953
N   N62       1.0  0.01310  0.35347  0.29176  1.0000 -0.1805062044
N   N63       1.0  0.99390  0.44355  0.27298  1.0000 -0.2633040614
N   N64       1.0  0.88820  0.60902  0.20155  1.0000 -0.2366731531
N   N65       1.0  0.81820  0.67054  0.15343  1.0000 -0.2083349518
N   N66       1.0  0.74910  0.53333  0.12022  1.0000 0.097745004
N   N67       1.0  0.67920  0.46146  0.07993  1.0000 -0.4798371374
N   N68       1.0  0.65790  0.76039  0.04170  1.0000 -0.3485142953
N   N69       1.0  0.49360  0.70295  0.95930  1.0000 -0.1805062044
N   N70       1.0  0.55060  0.63046  0.00001  1.0000 -0.2858836643
N   N71       1.0  0.65320  0.64246  0.69832  1.0000 -0.3485142953
N   N72       1.0  0.48690  0.64653  0.79176  1.0000 -0.1805062044
N   N73       1.0  0.50610  0.55645  0.77298  1.0000 -0.2633040614
N   N74       1.0  0.61180  0.39098  0.70155  1.0000 -0.2366731531
N   N75       1.0  0.68180  0.32946  0.65343  1.0000 -0.2083349518
N   N76       1.0  0.75090  0.46667  0.62022  1.0000 0.097745004
N   N77       1.0  0.82080  0.53854  0.57993  1.0000 -0.4798371374
N   N78       1.0  0.84210  0.23961  0.54170  1.0000 -0.3485142953
N   N79       1.0  0.00640  0.29705  0.45930  1.0000 -0.1805062044
N   N80       1.0  0.94940  0.36954  0.50001  1.0000 -0.2858836643
