# DDEC6 charges by PACMAN v1.1 (https://github.com/mtap-research/PACMAN-charge/)
data_2019[Cu][sql]2[ASR]7
_chemical_formula_sum              "Cu2 H48 C52 S4 N24"
_cell_length_a       9.1819
_cell_length_b       18.0782
_cell_length_c       11.7932
_cell_angle_alpha    90
_cell_angle_beta     102.977
_cell_angle_gamma    90

_symmetry_space_group_name_H-M    "P 1"
_symmetry_Int_Tables_number       1

loop_
  _symmetry_equiv_pos_as_xyz
  'x, y, z'

loop_
  _atom_site_type_symbol
  _atom_site_label
  _atom_site_symmetry_multiplicity
  _atom_site_fract_x
  _atom_site_fract_y
  _atom_site_fract_z
  _atom_site_occupancy
  _atom_site_charge
Cu  Cu1       1.0  0.00000  0.00000  0.50000  1.0000 0.5247819173
Cu  Cu2       1.0  0.00000  0.50000  0.00000  1.0000 0.5247819173
H   H1        1.0  0.76730  0.15600  0.48000  1.0000 0.0991375966
H   H2        1.0  0.51700  0.18330  0.42130  1.0000 0.1088792915
H   H3        1.0  0.35040  0.09010  0.34700  1.0000 0.0991375966
H   H4        1.0  0.43970  0.97140  0.32640  1.0000 0.1206282686
H   H5        1.0  0.97950  0.68650  0.44110  1.0000 0.1337058126
H   H6        1.0  0.00630  0.71490  0.32110  1.0000 0.1337058126
H   H7        1.0  0.86530  0.55870  0.44710  1.0000 0.1206282686
H   H8        1.0  0.84730  0.43990  0.37030  1.0000 0.1206282686
H   H9        1.0  0.90830  0.41940  0.19430  1.0000 0.0991375966
H   H10       1.0  0.99940  0.62880  0.16630  1.0000 0.1088792915
H   H11       1.0  0.48040  0.80730  0.33380  1.0000 0.2405338334
H   H12       1.0  0.52530  0.83290  0.22100  1.0000 0.2511251691
H   H13       1.0  0.23270  0.65600  0.02000  1.0000 0.0991375966
H   H14       1.0  0.48300  0.68330  0.07870  1.0000 0.1088792915
H   H15       1.0  0.64960  0.59010  0.15300  1.0000 0.0991375966
H   H16       1.0  0.56030  0.47140  0.17360  1.0000 0.1206282686
H   H17       1.0  0.02050  0.18650  0.05890  1.0000 0.1337058126
H   H18       1.0  0.99370  0.21490  0.17890  1.0000 0.1337058126
H   H19       1.0  0.13470  0.05870  0.05290  1.0000 0.1206282686
H   H20       1.0  0.15270  0.93990  0.12970  1.0000 0.1206282686
H   H21       1.0  0.09170  0.91940  0.30570  1.0000 0.0991375966
H   H22       1.0  0.00060  0.12880  0.33370  1.0000 0.1088792915
H   H23       1.0  0.51960  0.30730  0.16620  1.0000 0.2405338334
H   H24       1.0  0.47470  0.33290  0.27900  1.0000 0.2511251691
H   H25       1.0  0.23270  0.84400  0.52000  1.0000 0.0991375966
H   H26       1.0  0.48300  0.81670  0.57870  1.0000 0.1088792915
H   H27       1.0  0.64960  0.90990  0.65300  1.0000 0.0991375966
H   H28       1.0  0.56030  0.02860  0.67360  1.0000 0.1206282686
H   H29       1.0  0.02050  0.31350  0.55890  1.0000 0.1337058126
H   H30       1.0  0.99370  0.28510  0.67890  1.0000 0.1337058126
H   H31       1.0  0.13470  0.44130  0.55290  1.0000 0.1206282686
H   H32       1.0  0.15270  0.56010  0.62970  1.0000 0.1206282686
H   H33       1.0  0.09170  0.58060  0.80570  1.0000 0.0991375966
H   H34       1.0  0.00060  0.37120  0.83370  1.0000 0.1088792915
H   H35       1.0  0.51960  0.19270  0.66620  1.0000 0.2405338334
H   H36       1.0  0.47470  0.16710  0.77900  1.0000 0.2511251691
H   H37       1.0  0.76730  0.34400  0.98000  1.0000 0.0991375966
H   H38       1.0  0.51700  0.31670  0.92130  1.0000 0.1088792915
H   H39       1.0  0.35040  0.40990  0.84700  1.0000 0.0991375966
H   H40       1.0  0.43970  0.52860  0.82640  1.0000 0.1206282686
H   H41       1.0  0.97950  0.81350  0.94110  1.0000 0.1337058126
H   H42       1.0  0.00630  0.78510  0.82110  1.0000 0.1337058126
H   H43       1.0  0.86530  0.94130  0.94710  1.0000 0.1206282686
H   H44       1.0  0.84730  0.06010  0.87030  1.0000 0.1206282686
H   H45       1.0  0.90830  0.08060  0.69430  1.0000 0.0991375966
H   H46       1.0  0.99940  0.87120  0.66630  1.0000 0.1088792915
H   H47       1.0  0.48040  0.69270  0.83380  1.0000 0.2405338334
H   H48       1.0  0.52530  0.66710  0.72100  1.0000 0.2511251691
C   C1        1.0  0.70080  0.11847  0.44920  1.0000 0.0601393507
C   C2        1.0  0.55070  0.13536  0.41450  1.0000 -0.1742516083
C   C3        1.0  0.45220  0.08003  0.36960  1.0000 -0.0604044114
C   C4        1.0  0.50440  0.00942  0.35800  1.0000 -0.1742516083
C   C5        1.0  0.65720  0.99722  0.39540  1.0000 0.1560649788
C   C6        1.0  0.72740  0.92468  0.39170  1.0000 0.1560649788
C   C7        1.0  0.78150  0.81017  0.36690  1.0000 0.1206282686
C   C8        1.0  0.94160  0.68518  0.35740  1.0000 -0.292216639
C   C9        1.0  0.93480  0.60712  0.31350  1.0000 0.0783520295
C   C10       1.0  0.88880  0.54961  0.37560  1.0000 -0.1155698699
C   C11       1.0  0.87850  0.47897  0.33010  1.0000 -0.1465020877
C   C12       1.0  0.91480  0.46712  0.22440  1.0000 0.0337079419
C   C13       1.0  0.96870  0.59060  0.20820  1.0000 0.003794442
C   C14       1.0  0.29920  0.61847  0.05080  1.0000 0.0601393507
C   C15       1.0  0.44930  0.63536  0.08550  1.0000 -0.1759958965
C   C16       1.0  0.54780  0.58003  0.13040  1.0000 -0.0604044114
C   C17       1.0  0.49560  0.50942  0.14200  1.0000 -0.1742516083
C   C18       1.0  0.34280  0.49722  0.10460  1.0000 0.1560649788
C   C19       1.0  0.27260  0.42468  0.10830  1.0000 0.1560649788
C   C20       1.0  0.21850  0.31017  0.13310  1.0000 0.1206282686
C   C21       1.0  0.05840  0.18518  0.14260  1.0000 -0.292216639
C   C22       1.0  0.06520  0.10712  0.18650  1.0000 0.0783520295
C   C23       1.0  0.11120  0.04961  0.12440  1.0000 -0.1085464932
C   C24       1.0  0.12150  0.97897  0.16990  1.0000 -0.1465020877
C   C25       1.0  0.08520  0.96712  0.27560  1.0000 0.0337079419
C   C26       1.0  0.03130  0.09060  0.29180  1.0000 0.0058233348
C   C27       1.0  0.29920  0.88153  0.55080  1.0000 0.0601393507
C   C28       1.0  0.44930  0.86464  0.58550  1.0000 -0.1759958965
C   C29       1.0  0.54780  0.91997  0.63040  1.0000 -0.0604044114
C   C30       1.0  0.49560  0.99058  0.64200  1.0000 -0.1742516083
C   C31       1.0  0.34280  0.00278  0.60460  1.0000 0.1560649788
C   C32       1.0  0.27260  0.07532  0.60830  1.0000 0.1560649788
C   C33       1.0  0.21850  0.18983  0.63310  1.0000 0.1206282686
C   C34       1.0  0.05840  0.31482  0.64260  1.0000 -0.292216639
C   C35       1.0  0.06520  0.39288  0.68650  1.0000 0.0783520295
C   C36       1.0  0.11120  0.45039  0.62440  1.0000 -0.1155698699
C   C37       1.0  0.12150  0.52103  0.66990  1.0000 -0.1465020877
C   C38       1.0  0.08520  0.53288  0.77560  1.0000 0.0337079419
C   C39       1.0  0.03130  0.40940  0.79180  1.0000 0.003794442
C   C40       1.0  0.70080  0.38153  0.94920  1.0000 0.0601393507
C   C41       1.0  0.55070  0.36464  0.91450  1.0000 -0.1759958965
C   C42       1.0  0.45220  0.41997  0.86960  1.0000 -0.0604044114
C   C43       1.0  0.50440  0.49058  0.85800  1.0000 -0.1742516083
C   C44       1.0  0.65720  0.50278  0.89540  1.0000 0.1560649788
C   C45       1.0  0.72740  0.57532  0.89170  1.0000 0.1560649788
C   C46       1.0  0.78150  0.68983  0.86690  1.0000 0.1206282686
C   C47       1.0  0.94160  0.81482  0.85740  1.0000 -0.292216639
C   C48       1.0  0.93480  0.89288  0.81350  1.0000 0.0783520295
C   C49       1.0  0.88880  0.95039  0.87560  1.0000 -0.1155698699
C   C50       1.0  0.87850  0.02103  0.83010  1.0000 -0.1465020877
C   C51       1.0  0.91480  0.03288  0.72440  1.0000 0.0337079419
C   C52       1.0  0.96870  0.90940  0.70820  1.0000 0.003794442
S   S1        1.0  0.75085  0.71976  0.31899  1.0000 -0.1085464932
S   S2        1.0  0.24915  0.21976  0.18101  1.0000 -0.144032414
S   S3        1.0  0.24915  0.28024  0.68101  1.0000 -0.1085464932
S   S4        1.0  0.75085  0.78024  0.81899  1.0000 -0.1046194312
N   N1        1.0  0.75450  0.05047  0.44060  1.0000 -0.292216639
N   N2        1.0  0.87090  0.91452  0.43420  1.0000 -0.1996142631
N   N3        1.0  0.90820  0.84147  0.42020  1.0000 -0.2654361379
N   N4        1.0  0.66667  0.85951  0.34930  1.0000 0.0601393507
N   N5        1.0  0.51460  0.84705  0.29270  1.0000 -0.5379430456
N   N6        1.0  0.95950  0.52205  0.16310  1.0000 -0.1941412826
N   N7        1.0  0.24550  0.55047  0.05940  1.0000 -0.292216639
N   N8        1.0  0.12910  0.41452  0.06580  1.0000 -0.1996142631
N   N9        1.0  0.09180  0.34147  0.07980  1.0000 -0.2646096798
N   N10       1.0  0.33340  0.35951  0.15070  1.0000 0.0601393507
N   N11       1.0  0.48540  0.34705  0.20730  1.0000 -0.5379430456
N   N12       1.0  0.04050  0.02205  0.33690  1.0000 -0.1941412826
N   N13       1.0  0.24550  0.94953  0.55940  1.0000 -0.292216639
N   N14       1.0  0.12910  0.08548  0.56580  1.0000 -0.1996142631
N   N15       1.0  0.09180  0.15853  0.57980  1.0000 -0.2646096798
N   N16       1.0  0.33340  0.14049  0.65070  1.0000 0.0601393507
N   N17       1.0  0.48540  0.15295  0.70730  1.0000 -0.5379430456
N   N18       1.0  0.04050  0.47795  0.83690  1.0000 -0.1941412826
N   N19       1.0  0.75450  0.44953  0.94060  1.0000 -0.292216639
N   N20       1.0  0.87090  0.58548  0.93420  1.0000 -0.1996142631
N   N21       1.0  0.90820  0.65853  0.92020  1.0000 -0.2646096798
N   N22       1.0  0.66667  0.64049  0.84930  1.0000 0.0601393507
N   N23       1.0  0.51460  0.65295  0.79270  1.0000 -0.5379430456
N   N24       1.0  0.95950  0.97795  0.66310  1.0000 -0.1941412826
