# DDEC6 charges by PACMAN v1.1 (https://github.com/mtap-research/PACMAN-charge/)
data_2019[Dy][sql]2[ASR]2
_chemical_formula_sum              "Dy8 H56 C64 O52"
_cell_length_a       8.7553
_cell_length_b       13.98
_cell_length_c       24.7475
_cell_angle_alpha    90
_cell_angle_beta     90
_cell_angle_gamma    90

_symmetry_space_group_name_H-M    "P 1"
_symmetry_Int_Tables_number       1

loop_
  _symmetry_equiv_pos_as_xyz
  'x, y, z'

loop_
  _atom_site_type_symbol
  _atom_site_label
  _atom_site_symmetry_multiplicity
  _atom_site_fract_x
  _atom_site_fract_y
  _atom_site_fract_z
  _atom_site_occupancy
  _atom_site_charge
Dy  Dy1       1.0  0.52705  0.10561  0.44282  1.0000 1.9876380352
Dy  Dy2       1.0  0.47295  0.89439  0.94282  1.0000 1.9876380352
Dy  Dy3       1.0  0.47295  0.89439  0.55718  1.0000 1.9876380352
Dy  Dy4       1.0  0.52705  0.10561  0.05718  1.0000 1.9876380352
Dy  Dy5       1.0  0.97295  0.60561  0.55718  1.0000 1.9876380352
Dy  Dy6       1.0  0.02705  0.39439  0.05718  1.0000 1.9876380352
Dy  Dy7       1.0  0.02705  0.39439  0.44282  1.0000 1.9876380352
Dy  Dy8       1.0  0.97295  0.60561  0.94282  1.0000 1.9876380352
H   H1        1.0  0.24042  0.93470  0.37912  1.0000 0.1221680989
H   H2        1.0  0.16614  0.83763  0.39794  1.0000 0.1372475115
H   H3        1.0  0.07826  0.01542  0.44626  1.0000 0.1003778012
H   H4        1.0  0.99208  0.91798  0.45395  1.0000 0.1003778012
H   H5        1.0  0.99745  0.02318  0.35649  1.0000 0.1221680989
H   H6        1.0  0.91685  0.92321  0.36222  1.0000 0.1221680989
H   H7        1.0  0.10405  0.22778  0.30118  1.0000 0.1501226512
H   H8        1.0  0.75958  0.06530  0.87912  1.0000 0.1221680989
H   H9        1.0  0.83386  0.16237  0.89794  1.0000 0.1372475115
H   H10       1.0  0.92174  0.98458  0.94626  1.0000 0.1003778012
H   H11       1.0  0.00792  0.08202  0.95395  1.0000 0.1003778012
H   H12       1.0  0.00255  0.97682  0.85649  1.0000 0.1221680989
H   H13       1.0  0.08315  0.07679  0.86222  1.0000 0.1221680989
H   H14       1.0  0.89595  0.77222  0.80118  1.0000 0.1501226512
H   H15       1.0  0.75958  0.06530  0.62088  1.0000 0.1221680989
H   H16       1.0  0.83386  0.16237  0.60206  1.0000 0.1372475115
H   H17       1.0  0.92174  0.98458  0.55374  1.0000 0.1003778012
H   H18       1.0  0.00792  0.08202  0.54605  1.0000 0.1003778012
H   H19       1.0  0.00255  0.97682  0.64351  1.0000 0.1221680989
H   H20       1.0  0.08315  0.07679  0.63778  1.0000 0.1221680989
H   H21       1.0  0.89595  0.77222  0.69882  1.0000 0.1501226512
H   H22       1.0  0.24042  0.93470  0.12088  1.0000 0.1221680989
H   H23       1.0  0.16614  0.83763  0.10206  1.0000 0.1372475115
H   H24       1.0  0.07826  0.01542  0.05374  1.0000 0.1003778012
H   H25       1.0  0.99208  0.91798  0.04605  1.0000 0.1003778012
H   H26       1.0  0.99745  0.02318  0.14351  1.0000 0.1221680989
H   H27       1.0  0.91685  0.92321  0.13778  1.0000 0.1221680989
H   H28       1.0  0.10405  0.22778  0.19882  1.0000 0.1501226512
H   H29       1.0  0.25958  0.43470  0.62088  1.0000 0.1221680989
H   H30       1.0  0.33386  0.33763  0.60206  1.0000 0.1372475115
H   H31       1.0  0.42174  0.51542  0.55374  1.0000 0.1003778012
H   H32       1.0  0.50792  0.41798  0.54605  1.0000 0.1003778012
H   H33       1.0  0.50255  0.52318  0.64351  1.0000 0.1221680989
H   H34       1.0  0.58315  0.42321  0.63778  1.0000 0.1221680989
H   H35       1.0  0.39595  0.72778  0.69882  1.0000 0.1501226512
H   H36       1.0  0.74042  0.56530  0.12088  1.0000 0.1221680989
H   H37       1.0  0.66614  0.66237  0.10206  1.0000 0.1372475115
H   H38       1.0  0.57826  0.48458  0.05374  1.0000 0.1003778012
H   H39       1.0  0.49208  0.58202  0.04605  1.0000 0.1003778012
H   H40       1.0  0.49745  0.47682  0.14351  1.0000 0.1221680989
H   H41       1.0  0.41685  0.57679  0.13778  1.0000 0.1221680989
H   H42       1.0  0.60405  0.27222  0.19882  1.0000 0.1501226512
H   H43       1.0  0.74042  0.56530  0.37912  1.0000 0.1221680989
H   H44       1.0  0.66614  0.66237  0.39794  1.0000 0.1372475115
H   H45       1.0  0.57826  0.48458  0.44626  1.0000 0.1003778012
H   H46       1.0  0.49208  0.58202  0.45395  1.0000 0.1003778012
H   H47       1.0  0.49745  0.47682  0.35649  1.0000 0.1221680989
H   H48       1.0  0.41685  0.57679  0.36222  1.0000 0.1221680989
H   H49       1.0  0.60405  0.27222  0.30118  1.0000 0.1501226512
H   H50       1.0  0.25958  0.43470  0.87912  1.0000 0.1221680989
H   H51       1.0  0.33386  0.33763  0.89794  1.0000 0.1372475115
H   H52       1.0  0.42174  0.51542  0.94626  1.0000 0.1003778012
H   H53       1.0  0.50792  0.41798  0.95395  1.0000 0.1003778012
H   H54       1.0  0.50255  0.52318  0.85649  1.0000 0.1221680989
H   H55       1.0  0.58315  0.42321  0.86222  1.0000 0.1221680989
H   H56       1.0  0.39595  0.72778  0.80118  1.0000 0.1501226512
C   C1        1.0  0.35750  0.12010  0.34710  1.0000 0.5076818181
C   C2        1.0  0.30020  0.89850  0.45670  1.0000 0.6728586046
C   C3        1.0  0.19290  0.90190  0.40930  1.0000 -0.3207707988
C   C4        1.0  0.80280  0.02980  0.40240  1.0000 0.6178439645
C   C5        1.0  0.04770  0.95690  0.42820  1.0000 -0.1091443288
C   C6        1.0  0.29000  0.14510  0.29500  1.0000 0.0634062899
C   C7        1.0  0.94460  0.98110  0.38140  1.0000 -0.3064047309
C   C8        1.0  0.17400  0.19670  0.27900  1.0000 -0.1694182368
C   C9        1.0  0.64250  0.87990  0.84710  1.0000 0.5076818181
C   C10       1.0  0.69980  0.10150  0.95670  1.0000 0.6728586046
C   C11       1.0  0.80710  0.09810  0.90930  1.0000 -0.3207707988
C   C12       1.0  0.19720  0.97020  0.90240  1.0000 0.6178439645
C   C13       1.0  0.95230  0.04310  0.92820  1.0000 -0.1091443288
C   C14       1.0  0.71000  0.85490  0.79500  1.0000 0.0634062899
C   C15       1.0  0.05540  0.01890  0.88140  1.0000 -0.3064047309
C   C16       1.0  0.82600  0.80330  0.77900  1.0000 -0.1694182368
C   C17       1.0  0.64250  0.87990  0.65290  1.0000 0.5076818181
C   C18       1.0  0.69980  0.10150  0.54330  1.0000 0.6728586046
C   C19       1.0  0.80710  0.09810  0.59070  1.0000 -0.3207707988
C   C20       1.0  0.19720  0.97020  0.59760  1.0000 0.6178439645
C   C21       1.0  0.95230  0.04310  0.57180  1.0000 -0.1091443288
C   C22       1.0  0.71000  0.85490  0.70500  1.0000 0.0634062899
C   C23       1.0  0.05540  0.01890  0.61860  1.0000 -0.3064047309
C   C24       1.0  0.82600  0.80330  0.72100  1.0000 -0.1694182368
C   C25       1.0  0.35750  0.12010  0.15290  1.0000 0.5076818181
C   C26       1.0  0.30020  0.89850  0.04330  1.0000 0.6728586046
C   C27       1.0  0.19290  0.90190  0.09070  1.0000 -0.3207707988
C   C28       1.0  0.80280  0.02980  0.09760  1.0000 0.6178439645
C   C29       1.0  0.04770  0.95690  0.07180  1.0000 -0.1091443288
C   C30       1.0  0.29000  0.14510  0.20500  1.0000 0.0634062899
C   C31       1.0  0.94460  0.98110  0.11860  1.0000 -0.3064047309
C   C32       1.0  0.17400  0.19670  0.22100  1.0000 -0.1694182368
C   C33       1.0  0.14250  0.62010  0.65290  1.0000 0.5076818181
C   C34       1.0  0.19980  0.39850  0.54330  1.0000 0.6728586046
C   C35       1.0  0.30710  0.40190  0.59070  1.0000 -0.3207707988
C   C36       1.0  0.69720  0.52980  0.59760  1.0000 0.6178439645
C   C37       1.0  0.45230  0.45690  0.57180  1.0000 -0.1091443288
C   C38       1.0  0.21000  0.64510  0.70500  1.0000 0.0634062899
C   C39       1.0  0.55540  0.48110  0.61860  1.0000 -0.3064047309
C   C40       1.0  0.32600  0.69670  0.72100  1.0000 -0.1694182368
C   C41       1.0  0.85750  0.37990  0.15290  1.0000 0.5076818181
C   C42       1.0  0.80020  0.60150  0.04330  1.0000 0.6728586046
C   C43       1.0  0.69290  0.59810  0.09070  1.0000 -0.3207707988
C   C44       1.0  0.30280  0.47020  0.09760  1.0000 0.6178439645
C   C45       1.0  0.54770  0.54310  0.07180  1.0000 -0.1091443288
C   C46       1.0  0.79000  0.35490  0.20500  1.0000 0.0634062899
C   C47       1.0  0.44460  0.51890  0.11860  1.0000 -0.3064047309
C   C48       1.0  0.67400  0.30330  0.22100  1.0000 -0.1694182368
C   C49       1.0  0.85750  0.37990  0.34710  1.0000 0.5076818181
C   C50       1.0  0.80020  0.60150  0.45670  1.0000 0.6728586046
C   C51       1.0  0.69290  0.59810  0.40930  1.0000 -0.3207707988
C   C52       1.0  0.30280  0.47020  0.40240  1.0000 0.6178439645
C   C53       1.0  0.54770  0.54310  0.42820  1.0000 -0.1091443288
C   C54       1.0  0.79000  0.35490  0.29500  1.0000 0.0634062899
C   C55       1.0  0.44460  0.51890  0.38140  1.0000 -0.3064047309
C   C56       1.0  0.67400  0.30330  0.27900  1.0000 -0.1694182368
C   C57       1.0  0.14250  0.62010  0.84710  1.0000 0.5076818181
C   C58       1.0  0.19980  0.39850  0.95670  1.0000 0.6728586046
C   C59       1.0  0.30710  0.40190  0.90930  1.0000 -0.3207707988
C   C60       1.0  0.69720  0.52980  0.90240  1.0000 0.6178439645
C   C61       1.0  0.45230  0.45690  0.92820  1.0000 -0.1091443288
C   C62       1.0  0.21000  0.64510  0.79500  1.0000 0.0634062899
C   C63       1.0  0.55540  0.48110  0.88140  1.0000 -0.3064047309
C   C64       1.0  0.32600  0.69670  0.77900  1.0000 -0.1694182368
O   O1        1.0  0.28960  0.14130  0.39127  1.0000 -0.6199176261
O   O2        1.0  0.39170  0.96660  0.46518  1.0000 -0.7202334615
O   O3        1.0  0.29310  0.83250  0.49083  1.0000 -0.6199176261
O   O4        1.0  0.70000  0.97760  0.42246  1.0000 -0.6377621653
O   O5        1.0  0.78630  0.11810  0.40000  1.0000 -0.5971953483
O   O6        1.0  0.48410  0.08050  0.34792  1.0000 -0.5720196726
O   O7        1.0  0.71040  0.85870  0.89127  1.0000 -0.6199176261
O   O8        1.0  0.60830  0.03340  0.96518  1.0000 -0.7202334615
O   O9        1.0  0.70690  0.16750  0.99083  1.0000 -0.6199176261
O   O10       1.0  0.30000  0.02240  0.92246  1.0000 -0.6377621653
O   O11       1.0  0.21370  0.88190  0.90000  1.0000 -0.5971953483
O   O12       1.0  0.51590  0.91950  0.84792  1.0000 -0.5720196726
O   O13       1.0  0.71040  0.85870  0.60873  1.0000 -0.6199176261
O   O14       1.0  0.60830  0.03340  0.53482  1.0000 -0.7202334615
O   O15       1.0  0.70690  0.16750  0.50917  1.0000 -0.6199176261
O   O16       1.0  0.30000  0.02240  0.57754  1.0000 -0.6377621653
O   O17       1.0  0.21370  0.88190  0.60000  1.0000 -0.5971953483
O   O18       1.0  0.51590  0.91950  0.65208  1.0000 -0.5720196726
O   O19       1.0  0.28960  0.14130  0.10873  1.0000 -0.6199176261
O   O20       1.0  0.39170  0.96660  0.03482  1.0000 -0.7202334615
O   O21       1.0  0.29310  0.83250  0.00917  1.0000 -0.6199176261
O   O22       1.0  0.70000  0.97760  0.07754  1.0000 -0.6377621653
O   O23       1.0  0.78630  0.11810  0.10000  1.0000 -0.5971953483
O   O24       1.0  0.48410  0.08050  0.15208  1.0000 -0.5720196726
O   O25       1.0  0.36700  0.11310  0.25000  1.0000 -0.0625495572
O   O26       1.0  0.63300  0.88690  0.75000  1.0000 -0.0625495572
O   O27       1.0  0.21040  0.64130  0.60873  1.0000 -0.6199176261
O   O28       1.0  0.10830  0.46660  0.53482  1.0000 -0.7202334615
O   O29       1.0  0.20690  0.33250  0.50917  1.0000 -0.6199176261
O   O30       1.0  0.80000  0.47760  0.57754  1.0000 -0.6377621653
O   O31       1.0  0.71370  0.61810  0.60000  1.0000 -0.5971953483
O   O32       1.0  0.01590  0.58050  0.65208  1.0000 -0.5720196726
O   O33       1.0  0.78960  0.35870  0.10873  1.0000 -0.6199176261
O   O34       1.0  0.89170  0.53340  0.03482  1.0000 -0.7202334615
O   O35       1.0  0.79310  0.66750  0.00917  1.0000 -0.6199176261
O   O36       1.0  0.20000  0.52240  0.07754  1.0000 -0.6377621653
O   O37       1.0  0.28630  0.38190  0.10000  1.0000 -0.5971953483
O   O38       1.0  0.98410  0.41950  0.15208  1.0000 -0.5720196726
O   O39       1.0  0.78960  0.35870  0.39127  1.0000 -0.6199176261
O   O40       1.0  0.89170  0.53340  0.46518  1.0000 -0.7202334615
O   O41       1.0  0.79310  0.66750  0.49083  1.0000 -0.6199176261
O   O42       1.0  0.20000  0.52240  0.42246  1.0000 -0.6377621653
O   O43       1.0  0.28630  0.38190  0.40000  1.0000 -0.5971953483
O   O44       1.0  0.98410  0.41950  0.34792  1.0000 -0.5720196726
O   O45       1.0  0.21040  0.64130  0.89127  1.0000 -0.6199176261
O   O46       1.0  0.10830  0.46660  0.96518  1.0000 -0.7202334615
O   O47       1.0  0.20690  0.33250  0.99083  1.0000 -0.6199176261
O   O48       1.0  0.80000  0.47760  0.92246  1.0000 -0.6377621653
O   O49       1.0  0.71370  0.61810  0.90000  1.0000 -0.5971953483
O   O50       1.0  0.01590  0.58050  0.84792  1.0000 -0.5720196726
O   O51       1.0  0.13300  0.61310  0.75000  1.0000 -0.0625495572
O   O52       1.0  0.86700  0.38690  0.25000  1.0000 -0.0625495572
