# DDEC6 charges by PACMAN v1.1 (https://github.com/mtap-research/PACMAN-charge/)
data_2019[Ni][sql]2[ASR]2
_chemical_formula_sum              "Ni2 H50 C80 N10 O12"
_cell_length_a       10.1966
_cell_length_b       11.7021
_cell_length_c       16.7732
_cell_angle_alpha    86.147
_cell_angle_beta     105.239
_cell_angle_gamma    113.017

_symmetry_space_group_name_H-M    "P 1"
_symmetry_Int_Tables_number       1

loop_
  _symmetry_equiv_pos_as_xyz
  'x, y, z'

loop_
  _atom_site_type_symbol
  _atom_site_label
  _atom_site_symmetry_multiplicity
  _atom_site_fract_x
  _atom_site_fract_y
  _atom_site_fract_z
  _atom_site_occupancy
  _atom_site_charge
Ni  Ni1       1.0  0.44989  0.10250  0.14642  1.0000 0.7469271368
Ni  Ni2       1.0  0.55011  0.89750  0.85358  1.0000 0.7469271368
H   H1        1.0  0.46881  0.64931  0.69823  1.0000 0.3644952423
H   H2        1.0  0.89161  0.28208  0.28333  1.0000 0.1190921537
H   H3        1.0  0.98967  0.10130  0.12699  1.0000 0.1190921537
H   H4        1.0  0.23568  0.11112  0.98419  1.0000 0.1190921537
H   H5        1.0  0.30359  0.29581  0.32432  1.0000 0.111429467
H   H6        1.0  0.20314  0.17097  0.64637  1.0000 0.111429467
H   H7        1.0  0.61629  0.13638  0.32319  1.0000 0.1190921537
H   H8        1.0  0.01887  0.47371  0.35557  1.0000 0.1398000627
H   H9        1.0  0.38219  0.42953  0.56578  1.0000 0.0996454603
H   H10       1.0  0.86638  0.11918  0.40718  1.0000 0.1301578938
H   H11       1.0  0.26850  0.77125  0.16336  1.0000 0.1507416017
H   H12       1.0  0.11102  0.60276  0.47382  1.0000 0.1190921537
H   H13       1.0  0.56893  0.91203  0.52883  1.0000 0.1301578938
H   H14       1.0  0.72585  0.38509  0.11532  1.0000 0.1398000627
H   H15       1.0  0.74434  0.98202  0.65227  1.0000 0.1190921537
H   H16       1.0  0.37571  0.23530  0.77172  1.0000 0.1190921537
H   H17       1.0  0.04005  0.18977  0.53031  1.0000 0.1190921537
H   H18       1.0  0.88309  0.13232  0.75471  1.0000 0.1190921537
H   H19       1.0  0.53445  0.72848  0.43105  1.0000 0.1301578938
H   H20       1.0  0.05525  0.19940  0.87884  1.0000 0.1398000627
H   H21       1.0  0.50766  0.46324  0.84499  1.0000 0.1301578938
H   H22       1.0  0.74488  0.59223  0.91435  1.0000 0.111429467
H   H23       1.0  0.37652  0.55770  0.34504  1.0000 0.111429467
H   H24       1.0  0.85071  0.55352  0.04700  1.0000 0.111429467
H   H25       1.0  0.24240  0.57785  0.21551  1.0000 0.1190921537
H   H26       1.0  0.53119  0.35069  0.30177  1.0000 0.3644952423
H   H27       1.0  0.10839  0.71792  0.71667  1.0000 0.1190921537
H   H28       1.0  0.01033  0.89870  0.87301  1.0000 0.1190921537
H   H29       1.0  0.76432  0.88888  0.01581  1.0000 0.1190921537
H   H30       1.0  0.69641  0.70419  0.67568  1.0000 0.1190921537
H   H31       1.0  0.79686  0.82903  0.35363  1.0000 0.111429467
H   H32       1.0  0.38371  0.86362  0.67681  1.0000 0.1190921537
H   H33       1.0  0.98113  0.52629  0.64443  1.0000 0.1398000627
H   H34       1.0  0.61781  0.57047  0.43422  1.0000 0.0996454603
H   H35       1.0  0.13362  0.88082  0.59282  1.0000 0.1301578938
H   H36       1.0  0.73150  0.22875  0.83664  1.0000 0.1507416017
H   H37       1.0  0.88898  0.39724  0.52618  1.0000 0.1190921537
H   H38       1.0  0.43107  0.08797  0.47117  1.0000 0.1301578938
H   H39       1.0  0.27415  0.61491  0.88468  1.0000 0.1398000627
H   H40       1.0  0.25566  0.01798  0.34773  1.0000 0.111429467
H   H41       1.0  0.62429  0.76470  0.22828  1.0000 0.1190921537
H   H42       1.0  0.95995  0.81023  0.46969  1.0000 0.1190921537
H   H43       1.0  0.11691  0.86768  0.24529  1.0000 0.1190921537
H   H44       1.0  0.46555  0.27152  0.56895  1.0000 0.1301578938
H   H45       1.0  0.94475  0.80060  0.12116  1.0000 0.1398000627
H   H46       1.0  0.49234  0.53676  0.15501  1.0000 0.1301578938
H   H47       1.0  0.25512  0.40777  0.08565  1.0000 0.111429467
H   H48       1.0  0.62348  0.44230  0.65496  1.0000 0.111429467
H   H49       1.0  0.14929  0.44648  0.95300  1.0000 0.111429467
H   H50       1.0  0.75760  0.42215  0.78449  1.0000 0.1190921537
C   C1        1.0  0.95970  0.25893  0.26846  1.0000 -0.1538364195
C   C2        1.0  0.91550  0.18331  0.19800  1.0000 -0.0083411435
C   C3        1.0  0.01850  0.15190  0.17405  1.0000 -0.1221327071
C   C4        1.0  0.10430  0.30058  0.31714  1.0000 0.0375537559
C   C5        1.0  0.16490  0.19647  0.22074  1.0000 -0.0274451931
C   C6        1.0  0.75520  0.13180  0.15000  1.0000 0.5513183421
C   C7        1.0  0.27540  0.16421  0.19320  1.0000 0.5334552772
C   C8        1.0  0.15200  0.37900  0.39365  1.0000 0.2037355251
C   C9        1.0  0.91160  0.09620  0.60629  1.0000 0.0693554478
C   C10       1.0  0.32150  0.17960  0.98325  1.0000 0.1692190117
C   C11       1.0  0.20660  0.26852  0.29239  1.0000 -0.1538364195
C   C12       1.0  0.17230  0.17540  0.69315  1.0000 -0.1323781662
C   C13       1.0  0.70000  0.01060  0.45549  1.0000 0.1613012499
C   C14       1.0  0.54050  0.32060  0.01998  1.0000 0.1507416017
C   C15       1.0  0.42240  0.86790  0.26595  1.0000 0.1398000627
C   C16       1.0  0.49910  0.85330  0.34629  1.0000 0.0919527992
C   C17       1.0  0.23260  0.22250  0.83828  1.0000 0.1692190117
C   C18       1.0  0.56700  0.05050  0.31732  1.0000 0.1507416017
C   C19       1.0  0.25680  0.52790  0.53361  1.0000 -0.0909129211
C   C20       1.0  0.47860  0.34540  0.93931  1.0000 0.0919527992
C   C21       1.0  0.02300  0.14260  0.68586  1.0000 0.064899633
C   C22       1.0  0.09340  0.46650  0.39891  1.0000 -0.1700828228
C   C23       1.0  0.30860  0.43910  0.52290  1.0000 0.0527330174
C   C24       1.0  0.84140  0.09250  0.45663  1.0000 -0.1604167176
C   C25       1.0  0.32270  0.76360  0.21600  1.0000 -0.1604167176
C   C26       1.0  0.14740  0.54260  0.46945  1.0000 -0.0612921768
C   C27       1.0  0.31530  0.60710  0.61071  1.0000 0.5429185576
C   C28       1.0  0.66350  0.96840  0.52922  1.0000 -0.1700828228
C   C29       1.0  0.68250  0.39970  0.06164  1.0000 -0.1426963263
C   C30       1.0  0.76910  0.01110  0.60307  1.0000 -0.1221327071
C   C31       1.0  0.27650  0.21450  0.76835  1.0000 -0.1604167176
C   C32       1.0  0.94520  0.13460  0.53051  1.0000 -0.1221327071
C   C33       1.0  0.98210  0.15280  0.75756  1.0000 -0.109321525
C   C34       1.0  0.48320  0.73740  0.37786  1.0000 -0.1858606615
C   C35       1.0  0.08510  0.19260  0.83215  1.0000 -0.1700828228
C   C36       1.0  0.55130  0.44710  0.89823  1.0000 -0.1777111941
C   C37       1.0  0.69160  0.52350  0.94020  1.0000 -0.0990944334
C   C38       1.0  0.38800  0.63690  0.32656  1.0000 -0.0990944334
C   C39       1.0  0.75570  0.49990  0.02060  1.0000 -0.1221327071
C   C40       1.0  0.30770  0.64900  0.24761  1.0000 -0.109321525
C   C41       1.0  0.04030  0.74107  0.73154  1.0000 -0.1538364195
C   C42       1.0  0.08450  0.81669  0.80200  1.0000 -0.0083411435
C   C43       1.0  0.98150  0.84810  0.82595  1.0000 -0.1221327071
C   C44       1.0  0.89570  0.69942  0.68286  1.0000 0.0375537559
C   C45       1.0  0.83510  0.80353  0.77926  1.0000 -0.0274451931
C   C46       1.0  0.24480  0.86820  0.85000  1.0000 0.5513183421
C   C47       1.0  0.72460  0.83579  0.80680  1.0000 0.5334552772
C   C48       1.0  0.84800  0.62100  0.60635  1.0000 0.2037355251
C   C49       1.0  0.08840  0.90380  0.39371  1.0000 0.0693554478
C   C50       1.0  0.67850  0.82040  0.01675  1.0000 0.1692190117
C   C51       1.0  0.79340  0.73148  0.70761  1.0000 -0.1538364195
C   C52       1.0  0.82770  0.82460  0.30685  1.0000 -0.1323781662
C   C53       1.0  0.30000  0.98940  0.54451  1.0000 0.1613012499
C   C54       1.0  0.45950  0.67940  0.98002  1.0000 0.1507416017
C   C55       1.0  0.57760  0.13210  0.73405  1.0000 0.1398000627
C   C56       1.0  0.50090  0.14670  0.65371  1.0000 0.0919527992
C   C57       1.0  0.76740  0.77750  0.16172  1.0000 0.1692190117
C   C58       1.0  0.43300  0.94950  0.68268  1.0000 0.1507416017
C   C59       1.0  0.74320  0.47210  0.46639  1.0000 -0.0909129211
C   C60       1.0  0.52140  0.65460  0.06069  1.0000 0.0919527992
C   C61       1.0  0.97700  0.85740  0.31414  1.0000 0.0693554478
C   C62       1.0  0.90660  0.53350  0.60109  1.0000 -0.1700828228
C   C63       1.0  0.69140  0.56090  0.47710  1.0000 0.0527330174
C   C64       1.0  0.15860  0.90750  0.54337  1.0000 -0.1604167176
C   C65       1.0  0.67730  0.23640  0.78400  1.0000 -0.1604167176
C   C66       1.0  0.85260  0.45740  0.53055  1.0000 -0.0612921768
C   C67       1.0  0.68470  0.39290  0.38929  1.0000 0.5429185576
C   C68       1.0  0.33650  0.03160  0.47078  1.0000 -0.1700828228
C   C69       1.0  0.31750  0.60030  0.93836  1.0000 -0.1426963263
C   C70       1.0  0.23090  0.98890  0.39693  1.0000 -0.1221327071
C   C71       1.0  0.72350  0.78550  0.23165  1.0000 -0.1604167176
C   C72       1.0  0.05480  0.86540  0.46949  1.0000 -0.1221327071
C   C73       1.0  0.01790  0.84720  0.24244  1.0000 -0.109321525
C   C74       1.0  0.51680  0.26260  0.62214  1.0000 -0.1858606615
C   C75       1.0  0.91490  0.80740  0.16785  1.0000 -0.1700828228
C   C76       1.0  0.44870  0.55290  0.10177  1.0000 -0.1777111941
C   C77       1.0  0.30840  0.47650  0.05980  1.0000 -0.0990944334
C   C78       1.0  0.61200  0.36310  0.67344  1.0000 -0.0990944334
C   C79       1.0  0.24430  0.50010  0.97940  1.0000 -0.1221327071
C   C80       1.0  0.69230  0.35100  0.75239  1.0000 -0.109321525
N   N1        1.0  0.46830  0.99410  0.25026  1.0000 -0.3373527878
N   N2        1.0  0.25970  0.36566  0.45466  1.0000 -0.2896010333
N   N3        1.0  0.59150  0.97275  0.37778  1.0000 -0.06827273
N   N4        1.0  0.33680  0.25200  0.91701  1.0000 -0.0612921768
N   N5        1.0  0.43873  0.21508  0.04573  1.0000 -0.3266751223
N   N6        1.0  0.53170  0.00590  0.74974  1.0000 -0.3373527878
N   N7        1.0  0.74030  0.63434  0.54534  1.0000 -0.2896010333
N   N8        1.0  0.40850  0.02725  0.62222  1.0000 -0.06827273
N   N9        1.0  0.66320  0.74800  0.08299  1.0000 -0.0612921768
N   N10       1.0  0.56127  0.78492  0.95427  1.0000 -0.3266751223
O   O1        1.0  0.23154  0.07551  0.14169  1.0000 -0.5143630259
O   O2        1.0  0.67205  0.16960  0.17445  1.0000 -0.546291297
O   O3        1.0  0.43020  0.59351  0.66226  1.0000 -0.4500207507
O   O4        1.0  0.41342  0.22592  0.22254  1.0000 -0.546291297
O   O5        1.0  0.71551  0.05496  0.09130  1.0000 -0.5753283256
O   O6        1.0  0.25990  0.67480  0.62527  1.0000 -0.4867072904
O   O7        1.0  0.76846  0.92449  0.85831  1.0000 -0.5143630259
O   O8        1.0  0.32795  0.83040  0.82555  1.0000 -0.546291297
O   O9        1.0  0.56980  0.40649  0.33774  1.0000 -0.4500207507
O   O10       1.0  0.58658  0.77408  0.77746  1.0000 -0.546291297
O   O11       1.0  0.28449  0.94504  0.90870  1.0000 -0.5746640318
O   O12       1.0  0.74010  0.32520  0.37473  1.0000 -0.4867072904
