# DDEC6 charges by PACMAN v1.1 (https://github.com/mtap-research/PACMAN-charge/)
data_2019[Zn][hcb]2[ASR]5
_chemical_formula_sum              "Zn4 H84 C120 N36"
_cell_length_a       9.8464
_cell_length_b       32.7011
_cell_length_c       13.0155
_cell_angle_alpha    90
_cell_angle_beta     110.228
_cell_angle_gamma    90

_symmetry_space_group_name_H-M    "P 1"
_symmetry_Int_Tables_number       1

loop_
  _symmetry_equiv_pos_as_xyz
  'x, y, z'

loop_
  _atom_site_type_symbol
  _atom_site_label
  _atom_site_symmetry_multiplicity
  _atom_site_fract_x
  _atom_site_fract_y
  _atom_site_fract_z
  _atom_site_occupancy
  _atom_site_charge
Zn  Zn1       1.0  0.61964  0.12744  0.82139  1.0000 0.4704001362
Zn  Zn2       1.0  0.88036  0.62744  0.17861  1.0000 0.4704001362
Zn  Zn3       1.0  0.38036  0.87256  0.17861  1.0000 0.4704001362
Zn  Zn4       1.0  0.11964  0.37256  0.82139  1.0000 0.4704001362
H   H1        1.0  0.13568  0.19593  0.43821  1.0000 0.1182880541
H   H2        1.0  0.07205  0.15569  0.56260  1.0000 0.1284308448
H   H3        1.0  0.85999  0.25244  0.63271  1.0000 0.1182880541
H   H4        1.0  0.92631  0.29284  0.50922  1.0000 0.1096820939
H   H5        1.0  0.12136  0.15028  0.78829  1.0000 0.1284308448
H   H6        1.0  0.97686  0.12183  0.89337  1.0000 0.1182880541
H   H7        1.0  0.70687  0.18543  0.64837  1.0000 0.1096820939
H   H8        1.0  0.12764  0.39806  0.19366  1.0000 0.1096820939
H   H9        1.0  0.05929  0.46688  0.18374  1.0000 0.1182880541
H   H10       1.0  0.91270  0.44947  0.43617  1.0000 0.1096820939
H   H11       1.0  0.98081  0.38107  0.44535  1.0000 0.1096820939
H   H12       1.0  0.81041  0.50919  0.40518  1.0000 0.1284308448
H   H13       1.0  0.76430  0.58080  0.34416  1.0000 0.1182880541
H   H14       1.0  0.00658  0.53266  0.18952  1.0000 0.1096820939
H   H15       1.0  0.32747  0.32347  0.14493  1.0000 0.1096820939
H   H16       1.0  0.43673  0.29746  0.02524  1.0000 0.1182880541
H   H17       1.0  0.34430  0.18185  0.09570  1.0000 0.1182880541
H   H18       1.0  0.23879  0.20821  0.21690  1.0000 0.1096820939
H   H19       1.0  0.51593  0.27312  0.89978  1.0000 0.1182880541
H   H20       1.0  0.61576  0.22416  0.80039  1.0000 0.1096820939
H   H21       1.0  0.46433  0.15898  0.99388  1.0000 0.1096820939
H   H22       1.0  0.36432  0.69593  0.56179  1.0000 0.1182880541
H   H23       1.0  0.42795  0.65569  0.43740  1.0000 0.1284308448
H   H24       1.0  0.64001  0.75244  0.36729  1.0000 0.1182880541
H   H25       1.0  0.57369  0.79284  0.49078  1.0000 0.1096820939
H   H26       1.0  0.37864  0.65028  0.21171  1.0000 0.1284308448
H   H27       1.0  0.52314  0.62183  0.10663  1.0000 0.1182880541
H   H28       1.0  0.79313  0.68543  0.35163  1.0000 0.1096820939
H   H29       1.0  0.37236  0.89806  0.80634  1.0000 0.1096820939
H   H30       1.0  0.44071  0.96688  0.81626  1.0000 0.1182880541
H   H31       1.0  0.58730  0.94947  0.56383  1.0000 0.1096820939
H   H32       1.0  0.51919  0.88107  0.55465  1.0000 0.1096820939
H   H33       1.0  0.68959  0.00919  0.59482  1.0000 0.1284308448
H   H34       1.0  0.73570  0.08080  0.65584  1.0000 0.1182880541
H   H35       1.0  0.49342  0.03266  0.81048  1.0000 0.1096820939
H   H36       1.0  0.17253  0.82347  0.85507  1.0000 0.1096820939
H   H37       1.0  0.06327  0.79746  0.97476  1.0000 0.1182880541
H   H38       1.0  0.15570  0.68185  0.90430  1.0000 0.1182880541
H   H39       1.0  0.26121  0.70821  0.78310  1.0000 0.1096820939
H   H40       1.0  0.98407  0.77312  0.10022  1.0000 0.1182880541
H   H41       1.0  0.88424  0.72416  0.19961  1.0000 0.1096820939
H   H42       1.0  0.03567  0.65898  0.00612  1.0000 0.1096820939
H   H43       1.0  0.86432  0.80407  0.56179  1.0000 0.1182880541
H   H44       1.0  0.92795  0.84431  0.43740  1.0000 0.1284308448
H   H45       1.0  0.14001  0.74756  0.36729  1.0000 0.1182880541
H   H46       1.0  0.07369  0.70716  0.49078  1.0000 0.1096820939
H   H47       1.0  0.87864  0.84972  0.21171  1.0000 0.1284308448
H   H48       1.0  0.02314  0.87817  0.10663  1.0000 0.1182880541
H   H49       1.0  0.29313  0.81457  0.35163  1.0000 0.1096820939
H   H50       1.0  0.87236  0.60194  0.80634  1.0000 0.1096820939
H   H51       1.0  0.94071  0.53312  0.81626  1.0000 0.1182880541
H   H52       1.0  0.08730  0.55053  0.56383  1.0000 0.1096820939
H   H53       1.0  0.01919  0.61893  0.55465  1.0000 0.1096820939
H   H54       1.0  0.18959  0.49081  0.59482  1.0000 0.1284308448
H   H55       1.0  0.23570  0.41920  0.65584  1.0000 0.1182880541
H   H56       1.0  0.99342  0.46734  0.81048  1.0000 0.1096820939
H   H57       1.0  0.67253  0.67653  0.85507  1.0000 0.1096820939
H   H58       1.0  0.56327  0.70254  0.97476  1.0000 0.1182880541
H   H59       1.0  0.65570  0.81815  0.90430  1.0000 0.1182880541
H   H60       1.0  0.76121  0.79179  0.78310  1.0000 0.1096820939
H   H61       1.0  0.48407  0.72688  0.10022  1.0000 0.1182880541
H   H62       1.0  0.38424  0.77584  0.19961  1.0000 0.1096820939
H   H63       1.0  0.53567  0.84102  0.00612  1.0000 0.1096820939
H   H64       1.0  0.63568  0.30407  0.43821  1.0000 0.1182880541
H   H65       1.0  0.57205  0.34431  0.56260  1.0000 0.1284308448
H   H66       1.0  0.35999  0.24756  0.63271  1.0000 0.1182880541
H   H67       1.0  0.42631  0.20716  0.50922  1.0000 0.1096820939
H   H68       1.0  0.62136  0.34972  0.78829  1.0000 0.1284308448
H   H69       1.0  0.47686  0.37817  0.89337  1.0000 0.1182880541
H   H70       1.0  0.20687  0.31457  0.64837  1.0000 0.1096820939
H   H71       1.0  0.62764  0.10194  0.19366  1.0000 0.1096820939
H   H72       1.0  0.55929  0.03312  0.18374  1.0000 0.1182880541
H   H73       1.0  0.41270  0.05053  0.43617  1.0000 0.1096820939
H   H74       1.0  0.48081  0.11893  0.44535  1.0000 0.1096820939
H   H75       1.0  0.31041  0.99081  0.40518  1.0000 0.1284308448
H   H76       1.0  0.26430  0.91920  0.34416  1.0000 0.1182880541
H   H77       1.0  0.50658  0.96734  0.18952  1.0000 0.1096820939
H   H78       1.0  0.82747  0.17653  0.14493  1.0000 0.1096820939
H   H79       1.0  0.93673  0.20254  0.02524  1.0000 0.1182880541
H   H80       1.0  0.84430  0.31815  0.09570  1.0000 0.1182880541
H   H81       1.0  0.73879  0.29179  0.21690  1.0000 0.1096820939
H   H82       1.0  0.01593  0.22688  0.89978  1.0000 0.1182880541
H   H83       1.0  0.11576  0.27584  0.80039  1.0000 0.1096820939
H   H84       1.0  0.96433  0.34102  0.99388  1.0000 0.1096820939
C   C1        1.0  0.08700  0.27528  0.38950  1.0000 0.3606070866
C   C2        1.0  0.03980  0.24852  0.46330  1.0000 0.0030757896
C   C3        1.0  0.08100  0.20748  0.47850  1.0000 -0.1110008754
C   C4        1.0  0.04300  0.18352  0.55180  1.0000 -0.1914164907
C   C5        1.0  0.96180  0.20056  0.60950  1.0000 0.1502176264
C   C6        1.0  0.91690  0.24121  0.59370  1.0000 -0.2019047791
C   C7        1.0  0.95630  0.26508  0.52050  1.0000 -0.1110008754
C   C8        1.0  0.02060  0.15397  0.77310  1.0000 -0.1204704203
C   C9        1.0  0.94030  0.13848  0.82990  1.0000 -0.0691262072
C   C10       1.0  0.79230  0.17307  0.69700  1.0000 0.0398712104
C   C11       1.0  0.10030  0.33885  0.32510  1.0000 0.3606070866
C   C12       1.0  0.06090  0.38269  0.32050  1.0000 0.0030757896
C   C13       1.0  0.08370  0.40850  0.24280  1.0000 -0.1204704203
C   C14       1.0  0.04290  0.44935  0.23650  1.0000 -0.2090620285
C   C15       1.0  0.97760  0.46440  0.30840  1.0000 0.1502176264
C   C16       1.0  0.95570  0.43900  0.38660  1.0000 -0.2019047791
C   C17       1.0  0.99660  0.39844  0.39210  1.0000 -0.1204704203
C   C18       1.0  0.84450  0.52259  0.35410  1.0000 -0.1204704203
C   C19       1.0  0.81980  0.56176  0.32010  1.0000 -0.048203484
C   C20       1.0  0.95110  0.53590  0.23590  1.0000 0.0319084201
C   C21       1.0  0.19640  0.28507  0.26500  1.0000 0.3606070866
C   C22       1.0  0.27120  0.26862  0.19270  1.0000 0.0030757896
C   C23       1.0  0.33100  0.29475  0.13520  1.0000 -0.1008559017
C   C24       1.0  0.39560  0.27938  0.06360  1.0000 -0.2090620285
C   C25       1.0  0.39970  0.23722  0.04880  1.0000 0.1633429343
C   C26       1.0  0.34110  0.21056  0.10580  1.0000 -0.2090620285
C   C27       1.0  0.27800  0.22636  0.17740  1.0000 -0.1008559017
C   C28       1.0  0.51730  0.24419  0.90660  1.0000 -0.1110008754
C   C29       1.0  0.57190  0.21716  0.85250  1.0000 -0.0691262072
C   C30       1.0  0.48970  0.18129  0.95740  1.0000 0.0543126652
C   C31       1.0  0.41300  0.77528  0.61050  1.0000 0.3606070866
C   C32       1.0  0.46020  0.74852  0.53670  1.0000 0.0030757896
C   C33       1.0  0.41900  0.70748  0.52150  1.0000 -0.1110008754
C   C34       1.0  0.45700  0.68352  0.44820  1.0000 -0.1914164907
C   C35       1.0  0.53820  0.70056  0.39050  1.0000 0.1502176264
C   C36       1.0  0.58310  0.74121  0.40630  1.0000 -0.2019047791
C   C37       1.0  0.54370  0.76508  0.47950  1.0000 -0.1110008754
C   C38       1.0  0.47940  0.65397  0.22690  1.0000 -0.1204704203
C   C39       1.0  0.55970  0.63848  0.17010  1.0000 -0.0691262072
C   C40       1.0  0.70770  0.67307  0.30300  1.0000 0.0398712104
C   C41       1.0  0.39970  0.83885  0.67490  1.0000 0.3606070866
C   C42       1.0  0.43910  0.88269  0.67950  1.0000 0.0030757896
C   C43       1.0  0.41630  0.90850  0.75720  1.0000 -0.1204704203
C   C44       1.0  0.45710  0.94935  0.76350  1.0000 -0.2090620285
C   C45       1.0  0.52240  0.96440  0.69160  1.0000 0.1502176264
C   C46       1.0  0.54430  0.93900  0.61340  1.0000 -0.2019047791
C   C47       1.0  0.50340  0.89844  0.60790  1.0000 -0.1204704203
C   C48       1.0  0.65550  0.02259  0.64590  1.0000 -0.1204704203
C   C49       1.0  0.68020  0.06176  0.67990  1.0000 -0.048203484
C   C50       1.0  0.54890  0.03590  0.76410  1.0000 0.0319084201
C   C51       1.0  0.30360  0.78507  0.73500  1.0000 0.3606070866
C   C52       1.0  0.22880  0.76862  0.80730  1.0000 0.0030757896
C   C53       1.0  0.16900  0.79475  0.86480  1.0000 -0.1008559017
C   C54       1.0  0.10440  0.77938  0.93640  1.0000 -0.2090620285
C   C55       1.0  0.10030  0.73722  0.95120  1.0000 0.1633429343
C   C56       1.0  0.15890  0.71056  0.89420  1.0000 -0.2090620285
C   C57       1.0  0.22200  0.72636  0.82260  1.0000 -0.1008559017
C   C58       1.0  0.98270  0.74419  0.09340  1.0000 -0.1110008754
C   C59       1.0  0.92810  0.71716  0.14750  1.0000 -0.0691262072
C   C60       1.0  0.01030  0.68129  0.04260  1.0000 0.0552403817
C   C61       1.0  0.91300  0.72472  0.61050  1.0000 0.3606070866
C   C62       1.0  0.96020  0.75148  0.53670  1.0000 0.0030757896
C   C63       1.0  0.91900  0.79252  0.52150  1.0000 -0.1110008754
C   C64       1.0  0.95700  0.81648  0.44820  1.0000 -0.1914164907
C   C65       1.0  0.03820  0.79944  0.39050  1.0000 0.1502176264
C   C66       1.0  0.08310  0.75879  0.40630  1.0000 -0.2019047791
C   C67       1.0  0.04370  0.73492  0.47950  1.0000 -0.1110008754
C   C68       1.0  0.97940  0.84603  0.22690  1.0000 -0.1204704203
C   C69       1.0  0.05970  0.86152  0.17010  1.0000 -0.0691262072
C   C70       1.0  0.20770  0.82693  0.30300  1.0000 0.0398712104
C   C71       1.0  0.89970  0.66115  0.67490  1.0000 0.3606070866
C   C72       1.0  0.93910  0.61731  0.67950  1.0000 0.0030757896
C   C73       1.0  0.91630  0.59150  0.75720  1.0000 -0.1204704203
C   C74       1.0  0.95710  0.55065  0.76350  1.0000 -0.2090620285
C   C75       1.0  0.02240  0.53560  0.69160  1.0000 0.1502176264
C   C76       1.0  0.04430  0.56100  0.61340  1.0000 -0.2019047791
C   C77       1.0  0.00340  0.60156  0.60790  1.0000 -0.1204704203
C   C78       1.0  0.15550  0.47741  0.64590  1.0000 -0.1204704203
C   C79       1.0  0.18020  0.43824  0.67990  1.0000 -0.048203484
C   C80       1.0  0.04890  0.46410  0.76410  1.0000 0.0319084201
C   C81       1.0  0.80360  0.71493  0.73500  1.0000 0.3606070866
C   C82       1.0  0.72880  0.73138  0.80730  1.0000 0.0030757896
C   C83       1.0  0.66900  0.70525  0.86480  1.0000 -0.1008559017
C   C84       1.0  0.60440  0.72062  0.93640  1.0000 -0.2090620285
C   C85       1.0  0.60030  0.76278  0.95120  1.0000 0.1633429343
C   C86       1.0  0.65890  0.78944  0.89420  1.0000 -0.2090620285
C   C87       1.0  0.72200  0.77364  0.82260  1.0000 -0.1008559017
C   C88       1.0  0.48270  0.75581  0.09340  1.0000 -0.1110008754
C   C89       1.0  0.42810  0.78284  0.14750  1.0000 -0.0691262072
C   C90       1.0  0.51030  0.81871  0.04260  1.0000 0.0552403817
C   C91       1.0  0.58700  0.22472  0.38950  1.0000 0.3606070866
C   C92       1.0  0.53980  0.25148  0.46330  1.0000 0.0030757896
C   C93       1.0  0.58100  0.29252  0.47850  1.0000 -0.1110008754
C   C94       1.0  0.54300  0.31648  0.55180  1.0000 -0.1914164907
C   C95       1.0  0.46180  0.29944  0.60950  1.0000 0.1502176264
C   C96       1.0  0.41690  0.25879  0.59370  1.0000 -0.2019047791
C   C97       1.0  0.45630  0.23492  0.52050  1.0000 -0.1110008754
C   C98       1.0  0.52060  0.34603  0.77310  1.0000 -0.1204704203
C   C99       1.0  0.44030  0.36152  0.82990  1.0000 -0.0691262072
C   C100      1.0  0.29230  0.32693  0.69700  1.0000 0.0398712104
C   C101      1.0  0.60030  0.16115  0.32510  1.0000 0.3606070866
C   C102      1.0  0.56090  0.11731  0.32050  1.0000 0.0030757896
C   C103      1.0  0.58370  0.09150  0.24280  1.0000 -0.1204704203
C   C104      1.0  0.54290  0.05065  0.23650  1.0000 -0.2090620285
C   C105      1.0  0.47760  0.03560  0.30840  1.0000 0.1502176264
C   C106      1.0  0.45570  0.06100  0.38660  1.0000 -0.2019047791
C   C107      1.0  0.49660  0.10156  0.39210  1.0000 -0.1204704203
C   C108      1.0  0.34450  0.97741  0.35410  1.0000 -0.1204704203
C   C109      1.0  0.31980  0.93824  0.32010  1.0000 -0.048203484
C   C110      1.0  0.45110  0.96410  0.23590  1.0000 0.0319084201
C   C111      1.0  0.69640  0.21493  0.26500  1.0000 0.3606070866
C   C112      1.0  0.77120  0.23138  0.19270  1.0000 0.0030757896
C   C113      1.0  0.83100  0.20525  0.13520  1.0000 -0.1008559017
C   C114      1.0  0.89560  0.22062  0.06360  1.0000 -0.2090620285
C   C115      1.0  0.89970  0.26278  0.04880  1.0000 0.1633429343
C   C116      1.0  0.84110  0.28944  0.10580  1.0000 -0.2090620285
C   C117      1.0  0.77800  0.27364  0.17740  1.0000 -0.1008559017
C   C118      1.0  0.01730  0.25581  0.90660  1.0000 -0.1110008754
C   C119      1.0  0.07190  0.28284  0.85250  1.0000 -0.0691262072
C   C120      1.0  0.98970  0.31871  0.95740  1.0000 0.0552403817
N   N1        1.0  0.05760  0.31523  0.39222  1.0000 -0.4520170426
N   N2        1.0  0.17190  0.32561  0.26043  1.0000 -0.4582740998
N   N3        1.0  0.15480  0.25832  0.32662  1.0000 -0.4368361568
N   N4        1.0  0.92520  0.17632  0.68812  1.0000 0.0030757896
N   N5        1.0  0.79770  0.15033  0.78247  1.0000 -0.2783767766
N   N6        1.0  0.92880  0.50598  0.30007  1.0000 0.0030757896
N   N7        1.0  0.88620  0.57003  0.24597  1.0000 -0.26736778
N   N8        1.0  0.46400  0.22148  0.97345  1.0000 -0.0008807413
N   N9        1.0  0.55430  0.17769  0.88469  1.0000 -0.26736778
N   N10       1.0  0.44240  0.81523  0.60778  1.0000 -0.4520170426
N   N11       1.0  0.32810  0.82561  0.73957  1.0000 -0.4582740998
N   N12       1.0  0.34520  0.75832  0.67338  1.0000 -0.4368361568
N   N13       1.0  0.57480  0.67632  0.31188  1.0000 0.0030757896
N   N14       1.0  0.70230  0.65033  0.21753  1.0000 -0.2783767766
N   N15       1.0  0.57120  0.00598  0.69993  1.0000 0.0030757896
N   N16       1.0  0.61380  0.07003  0.75403  1.0000 -0.26736778
N   N17       1.0  0.03600  0.72148  0.02655  1.0000 -0.0008807413
N   N18       1.0  0.94570  0.67769  0.11531  1.0000 -0.26736778
N   N19       1.0  0.94240  0.68477  0.60778  1.0000 -0.4520170426
N   N20       1.0  0.82810  0.67439  0.73957  1.0000 -0.4582740998
N   N21       1.0  0.84520  0.74168  0.67338  1.0000 -0.4368361568
N   N22       1.0  0.07480  0.82368  0.31188  1.0000 0.0030757896
N   N23       1.0  0.20230  0.84967  0.21753  1.0000 -0.2783767766
N   N24       1.0  0.07120  0.49402  0.69993  1.0000 0.0030757896
N   N25       1.0  0.11380  0.42997  0.75403  1.0000 -0.26736778
N   N26       1.0  0.53600  0.77852  0.02655  1.0000 -0.0008807413
N   N27       1.0  0.44570  0.82231  0.11531  1.0000 -0.26736778
N   N28       1.0  0.55760  0.18477  0.39222  1.0000 -0.4520170426
N   N29       1.0  0.67190  0.17439  0.26043  1.0000 -0.4582740998
N   N30       1.0  0.65480  0.24168  0.32662  1.0000 -0.4368361568
N   N31       1.0  0.42520  0.32368  0.68812  1.0000 0.0030757896
N   N32       1.0  0.29770  0.34967  0.78247  1.0000 -0.2783767766
N   N33       1.0  0.42880  0.99402  0.30007  1.0000 0.0030757896
N   N34       1.0  0.38620  0.92997  0.24597  1.0000 -0.26736778
N   N35       1.0  0.96400  0.27852  0.97345  1.0000 -0.0008807413
N   N36       1.0  0.05430  0.32231  0.88469  1.0000 -0.26736778
