# DDEC6 charges by PACMAN v1.1 (https://github.com/mtap-research/PACMAN-charge/)
data_2019[Ce][bnn]3[ASR]1
_chemical_formula_sum              "Ce2 H22 C60 N4 O24"
_cell_length_a       8.4259
_cell_length_b       11.4299
_cell_length_c       17.9923
_cell_angle_alpha    93.349
_cell_angle_beta     95.926
_cell_angle_gamma    107.913

_symmetry_space_group_name_H-M    "P 1"
_symmetry_Int_Tables_number       1

loop_
  _symmetry_equiv_pos_as_xyz
  'x, y, z'

loop_
  _atom_site_type_symbol
  _atom_site_label
  _atom_site_symmetry_multiplicity
  _atom_site_fract_x
  _atom_site_fract_y
  _atom_site_fract_z
  _atom_site_occupancy
  _atom_site_charge
Ce  Ce1       1.0  0.10601  0.14598  0.89292  1.0000 1.9866632739
Ce  Ce2       1.0  0.89399  0.85402  0.10708  1.0000 1.9866632739
H   H1        1.0  0.77457  0.41098  0.03538  1.0000 0.3441544094
H   H2        1.0  0.46117  0.85276  0.97568  1.0000 0.1307649234
H   H3        1.0  0.95144  0.32810  0.04477  1.0000 0.1201107049
H   H4        1.0  0.07062  0.57001  0.22878  1.0000 0.1389864454
H   H5        1.0  0.32157  0.85106  0.75450  1.0000 0.1467311339
H   H6        1.0  0.53267  0.60177  0.82752  1.0000 0.1389864454
H   H7        1.0  0.16734  0.24743  0.23576  1.0000 0.1467311339
H   H8        1.0  0.05175  0.35267  0.62021  1.0000 0.1307649234
H   H9        1.0  0.96633  0.28638  0.49300  1.0000 0.1201107049
H   H10       1.0  0.58801  0.73167  0.40942  1.0000 0.1307649234
H   H11       1.0  0.65497  0.80932  0.53555  1.0000 0.1307649234
H   H12       1.0  0.22543  0.58902  0.96462  1.0000 0.3441544094
H   H13       1.0  0.53883  0.14724  0.02432  1.0000 0.1307649234
H   H14       1.0  0.04856  0.67190  0.95523  1.0000 0.1201107049
H   H15       1.0  0.92938  0.42999  0.77122  1.0000 0.1389864454
H   H16       1.0  0.67843  0.14894  0.24550  1.0000 0.1467311339
H   H17       1.0  0.46733  0.39823  0.17248  1.0000 0.1389864454
H   H18       1.0  0.83266  0.75257  0.76424  1.0000 0.1467311339
H   H19       1.0  0.94825  0.64733  0.37979  1.0000 0.1307649234
H   H20       1.0  0.03367  0.71362  0.50700  1.0000 0.1201107049
H   H21       1.0  0.41199  0.26833  0.59058  1.0000 0.1307649234
H   H22       1.0  0.34503  0.19068  0.46445  1.0000 0.1307649234
C   C1        1.0  0.38130  0.86900  0.86763  1.0000 0.0077785937
C   C2        1.0  0.45260  0.81940  0.92648  1.0000 -0.1133852197
C   C3        1.0  0.06700  0.27260  0.13335  1.0000 0.0011210845
C   C4        1.0  0.59310  0.66820  0.97309  1.0000 0.590791277
C   C5        1.0  0.99660  0.34990  0.09489  1.0000 -0.1362673721
C   C6        1.0  0.06500  0.49400  0.20518  1.0000 -0.1453674069
C   C7        1.0  0.07590  0.15690  0.09275  1.0000 0.6331306615
C   C8        1.0  0.36890  0.81870  0.79403  1.0000 -0.168249794
C   C9        1.0  0.99330  0.45990  0.13083  1.0000 -0.0388458042
C   C10       1.0  0.12790  0.41300  0.24342  1.0000 0.1907144183
C   C11       1.0  0.49620  0.66930  0.83772  1.0000 -0.1782137683
C   C12       1.0  0.12750  0.30180  0.20877  1.0000 -0.1453674069
C   C13       1.0  0.30990  0.97200  0.88296  1.0000 0.5556713262
C   C14       1.0  0.51050  0.72030  0.91151  1.0000 -0.0388458042
C   C15       1.0  0.42770  0.72010  0.78037  1.0000 0.1844517806
C   C16       1.0  0.34470  0.53900  0.34231  1.0000 0.4240716317
C   C17       1.0  0.10900  0.39730  0.58418  1.0000 -0.0900008287
C   C18       1.0  0.90900  0.53950  0.09036  1.0000 0.6048983255
C   C19       1.0  0.28880  0.52630  0.47553  1.0000 0.0227403402
C   C20       1.0  0.47000  0.67840  0.57381  1.0000 -0.0631372413
C   C21       1.0  0.38700  0.58800  0.42248  1.0000 -0.0679586685
C   C22       1.0  0.08750  0.38170  0.37347  1.0000 0.4319537499
C   C23       1.0  0.05860  0.35640  0.50762  1.0000 -0.0900008287
C   C24       1.0  0.33370  0.57010  0.55239  1.0000 0.0308760957
C   C25       1.0  0.50980  0.73190  0.65383  1.0000 0.4361610034
C   C26       1.0  0.28870  0.54780  0.68662  1.0000 0.4470344403
C   C27       1.0  0.24180  0.50260  0.60606  1.0000 -0.0631372413
C   C28       1.0  0.14680  0.42060  0.45423  1.0000 -0.0679586685
C   C29       1.0  0.52300  0.69190  0.44484  1.0000 -0.0832246846
C   C30       1.0  0.56420  0.73830  0.52092  1.0000 -0.0900008287
C   C31       1.0  0.61870  0.13100  0.13237  1.0000 0.0077785937
C   C32       1.0  0.54740  0.18060  0.07352  1.0000 -0.1133852197
C   C33       1.0  0.93300  0.72740  0.86665  1.0000 0.0011210845
C   C34       1.0  0.40690  0.33180  0.02691  1.0000 0.590791277
C   C35       1.0  0.00340  0.65010  0.90511  1.0000 -0.1362673721
C   C36       1.0  0.93500  0.50600  0.79482  1.0000 -0.1453674069
C   C37       1.0  0.92410  0.84310  0.90725  1.0000 0.6331306615
C   C38       1.0  0.63110  0.18130  0.20597  1.0000 -0.168249794
C   C39       1.0  0.00670  0.54010  0.86917  1.0000 -0.0388458042
C   C40       1.0  0.87210  0.58700  0.75658  1.0000 0.1907144183
C   C41       1.0  0.50380  0.33070  0.16228  1.0000 -0.1782137683
C   C42       1.0  0.87250  0.69820  0.79123  1.0000 -0.1453674069
C   C43       1.0  0.69010  0.02800  0.11704  1.0000 0.5556713262
C   C44       1.0  0.48950  0.27970  0.08849  1.0000 -0.0388458042
C   C45       1.0  0.57230  0.27990  0.21963  1.0000 0.1844517806
C   C46       1.0  0.65530  0.46100  0.65769  1.0000 0.4240716317
C   C47       1.0  0.89100  0.60270  0.41582  1.0000 -0.0900008287
C   C48       1.0  0.09100  0.46050  0.90964  1.0000 0.6048983255
C   C49       1.0  0.71120  0.47370  0.52447  1.0000 0.0227403402
C   C50       1.0  0.53000  0.32160  0.42619  1.0000 -0.0631372413
C   C51       1.0  0.61300  0.41200  0.57752  1.0000 -0.0679586685
C   C52       1.0  0.91250  0.61830  0.62653  1.0000 0.4319537499
C   C53       1.0  0.94140  0.64360  0.49238  1.0000 -0.0900008287
C   C54       1.0  0.66630  0.42990  0.44761  1.0000 0.0308760957
C   C55       1.0  0.49020  0.26810  0.34617  1.0000 0.4361610034
C   C56       1.0  0.71130  0.45220  0.31338  1.0000 0.4470344403
C   C57       1.0  0.75820  0.49740  0.39394  1.0000 -0.0631372413
C   C58       1.0  0.85320  0.57940  0.54577  1.0000 -0.0679586685
C   C59       1.0  0.47700  0.30810  0.55516  1.0000 -0.0832246846
C   C60       1.0  0.43580  0.26170  0.47908  1.0000 -0.0900008287
N   N1        1.0  0.40730  0.66540  0.70401  1.0000 -0.239167065
N   N2        1.0  0.18910  0.44510  0.32291  1.0000 -0.239167065
N   N3        1.0  0.59270  0.33460  0.29599  1.0000 -0.239167065
N   N4        1.0  0.81090  0.55490  0.67709  1.0000 -0.239167065
O   O1        1.0  0.27320  0.99314  0.94694  1.0000 -0.5720843157
O   O2        1.0  0.63770  0.57644  0.95319  1.0000 -0.5005977234
O   O3        1.0  0.08430  0.15630  0.02394  1.0000 -0.6202338716
O   O4        1.0  0.61810  0.71799  0.03937  1.0000 -0.6202338716
O   O5        1.0  0.80650  0.48573  0.03234  1.0000 -0.3879661939
O   O6        1.0  0.93960  0.64963  0.11445  1.0000 -0.6120526673
O   O7        1.0  0.07400  0.06829  0.13112  1.0000 -0.6120526673
O   O8        1.0  0.43650  0.57490  0.29548  1.0000 -0.3995546779
O   O9        1.0  0.28400  0.03420  0.82921  1.0000 -0.6120526673
O   O10       1.0  0.95710  0.30070  0.35157  1.0000 -0.4106014402
O   O11       1.0  0.22610  0.48843  0.73579  1.0000 -0.4106014402
O   O12       1.0  0.62260  0.82580  0.67513  1.0000 -0.4106014402
O   O13       1.0  0.72680  0.00686  0.05306  1.0000 -0.5720843157
O   O14       1.0  0.36230  0.42356  0.04681  1.0000 -0.5005977234
O   O15       1.0  0.91570  0.84370  0.97606  1.0000 -0.6202338716
O   O16       1.0  0.38190  0.28201  0.96063  1.0000 -0.6202338716
O   O17       1.0  0.19350  0.51427  0.96766  1.0000 -0.3879661939
O   O18       1.0  0.06040  0.35037  0.88555  1.0000 -0.6120526673
O   O19       1.0  0.92600  0.93171  0.86888  1.0000 -0.6120526673
O   O20       1.0  0.56350  0.42510  0.70452  1.0000 -0.3995546779
O   O21       1.0  0.71600  0.96580  0.17079  1.0000 -0.6120526673
O   O22       1.0  0.04290  0.69930  0.64843  1.0000 -0.4106014402
O   O23       1.0  0.77390  0.51157  0.26421  1.0000 -0.4106014402
O   O24       1.0  0.37740  0.17420  0.32487  1.0000 -0.4106014402
