# DDEC6 charges by PACMAN v1.1 (https://github.com/mtap-research/PACMAN-charge/)
data_2019[Zn][sql]2[ASR]2
_chemical_formula_sum              "Zn2 H12 C20 O8"
_cell_length_a       10.719
_cell_length_b       10.8245
_cell_length_c       10.8403
_cell_angle_alpha    80.291
_cell_angle_beta     70.015
_cell_angle_gamma    77.531

_symmetry_space_group_name_H-M    "P 1"
_symmetry_Int_Tables_number       1

loop_
  _symmetry_equiv_pos_as_xyz
  'x, y, z'

loop_
  _atom_site_type_symbol
  _atom_site_label
  _atom_site_symmetry_multiplicity
  _atom_site_fract_x
  _atom_site_fract_y
  _atom_site_fract_z
  _atom_site_occupancy
  _atom_site_charge
Zn  Zn1       1.0  0.14850  0.47670  0.45157  1.0000 0.9484395914
Zn  Zn2       1.0  0.85150  0.52330  0.54843  1.0000 0.9484395914
H   H1        1.0  0.98685  0.30328  0.12370  1.0000 0.093814195
H   H2        1.0  0.18488  0.35204  0.89828  1.0000 0.1103938211
H   H3        1.0  0.19885  0.56498  0.98514  1.0000 0.1103938211
H   H4        1.0  0.01060  0.87851  0.69582  1.0000 0.0966029696
H   H5        1.0  0.80978  0.07082  0.67270  1.0000 0.1103938211
H   H6        1.0  0.80622  0.97943  0.45869  1.0000 0.1103938211
H   H7        1.0  0.01315  0.69672  0.87630  1.0000 0.093814195
H   H8        1.0  0.81512  0.64796  0.10172  1.0000 0.1103938211
H   H9        1.0  0.80115  0.43502  0.01486  1.0000 0.1103938211
H   H10       1.0  0.98940  0.12149  0.30418  1.0000 0.0966029696
H   H11       1.0  0.19022  0.92918  0.32730  1.0000 0.1103938211
H   H12       1.0  0.19378  0.02057  0.54131  1.0000 0.1103938211
C   C1        1.0  0.00480  0.51430  0.25890  1.0000 0.6079998992
C   C2        1.0  0.00130  0.51010  0.12250  1.0000 -0.0258066231
C   C3        1.0  0.99230  0.38640  0.07150  1.0000 -0.1002546448
C   C4        1.0  0.10740  0.41460  0.94070  1.0000 -0.1002546448
C   C5        1.0  0.11540  0.53740  0.99160  1.0000 -0.1002546448
C   C6        1.0  0.00580  0.73800  0.48400  1.0000 0.6079998992
C   C7        1.0  0.00330  0.87650  0.48860  1.0000 -0.0258066231
C   C8        1.0  0.00620  0.92970  0.61330  1.0000 -0.1002546448
C   C9        1.0  0.88950  0.04140  0.59990  1.0000 -0.1002546448
C   C10       1.0  0.88760  0.98790  0.47630  1.0000 -0.1002546448
C   C11       1.0  0.99520  0.48570  0.74110  1.0000 0.6079998992
C   C12       1.0  0.99870  0.48990  0.87750  1.0000 -0.0249125503
C   C13       1.0  0.00770  0.61360  0.92850  1.0000 -0.1002546448
C   C14       1.0  0.89260  0.58540  0.05930  1.0000 -0.1002546448
C   C15       1.0  0.88460  0.46260  0.00840  1.0000 -0.1002546448
C   C16       1.0  0.99420  0.26200  0.51600  1.0000 0.6079998992
C   C17       1.0  0.99670  0.12350  0.51140  1.0000 -0.0258066231
C   C18       1.0  0.99380  0.07030  0.38670  1.0000 -0.1002546448
C   C19       1.0  0.11050  0.95860  0.40010  1.0000 -0.1002546448
C   C20       1.0  0.11240  0.01210  0.52370  1.0000 -0.1002546448
O   O1        1.0  0.11800  0.49720  0.27350  1.0000 -0.5303941138
O   O2        1.0  0.89420  0.53170  0.34794  1.0000 -0.5414747663
O   O3        1.0  0.11880  0.66915  0.44640  1.0000 -0.5303941138
O   O4        1.0  0.89430  0.70245  0.52190  1.0000 -0.5414747663
O   O5        1.0  0.88200  0.50280  0.72650  1.0000 -0.5303941138
O   O6        1.0  0.10580  0.46830  0.65206  1.0000 -0.5414747663
O   O7        1.0  0.88120  0.33085  0.55360  1.0000 -0.5303941138
O   O8        1.0  0.10570  0.29755  0.47810  1.0000 -0.5414747663
