# DDEC6 charges by PACMAN v1.1 (https://github.com/mtap-research/PACMAN-charge/)
data_2019[Eu][nan]3[ASR]11
_chemical_formula_sum              "Eu4 H24 C60 N4 O32"
_cell_length_a       13.838
_cell_length_b       13.838
_cell_length_c       15.401
_cell_angle_alpha    86.6373
_cell_angle_beta     93.3627
_cell_angle_gamma    128.751

_symmetry_space_group_name_H-M    "P 1"
_symmetry_Int_Tables_number       1

loop_
  _symmetry_equiv_pos_as_xyz
  'x, y, z'

loop_
  _atom_site_type_symbol
  _atom_site_label
  _atom_site_symmetry_multiplicity
  _atom_site_fract_x
  _atom_site_fract_y
  _atom_site_fract_z
  _atom_site_occupancy
  _atom_site_charge
Eu  Eu1       1.0  0.36154  0.00668  0.97133  1.0000 2.0481468302
Eu  Eu2       1.0  0.00668  0.36154  0.52867  1.0000 2.0481468302
Eu  Eu3       1.0  0.63846  0.99332  0.02867  1.0000 2.0481468302
Eu  Eu4       1.0  0.99332  0.63846  0.47133  1.0000 2.0481468302
H   H1        1.0  0.37616  0.64808  0.07593  1.0000 0.1315350563
H   H2        1.0  0.12696  0.28270  0.16167  1.0000 0.1207680341
H   H3        1.0  0.18275  0.42367  0.28047  1.0000 0.1207680341
H   H4        1.0  0.50677  0.41041  0.07795  1.0000 0.1354651482
H   H5        1.0  0.14098  0.14188  0.10639  1.0000 0.1315350563
H   H6        1.0  0.18327  0.70955  0.21614  1.0000 0.1354651482
H   H7        1.0  0.64808  0.37616  0.42407  1.0000 0.1315350563
H   H8        1.0  0.28270  0.12696  0.33833  1.0000 0.1207680341
H   H9        1.0  0.42367  0.18275  0.21953  1.0000 0.1207680341
H   H10       1.0  0.41041  0.50677  0.42205  1.0000 0.1354651482
H   H11       1.0  0.14188  0.14098  0.39361  1.0000 0.1315350563
H   H12       1.0  0.70955  0.18327  0.28386  1.0000 0.1354651482
H   H13       1.0  0.62384  0.35192  0.92407  1.0000 0.1315350563
H   H14       1.0  0.87304  0.71730  0.83833  1.0000 0.1207680341
H   H15       1.0  0.81725  0.57633  0.71953  1.0000 0.1207680341
H   H16       1.0  0.49323  0.58959  0.92205  1.0000 0.1354651482
H   H17       1.0  0.85902  0.85812  0.89361  1.0000 0.1315350563
H   H18       1.0  0.81673  0.29045  0.78386  1.0000 0.1354651482
H   H19       1.0  0.35192  0.62384  0.57593  1.0000 0.1315350563
H   H20       1.0  0.71730  0.87304  0.66167  1.0000 0.1207680341
H   H21       1.0  0.57633  0.81725  0.78047  1.0000 0.1207680341
H   H22       1.0  0.58959  0.49323  0.57795  1.0000 0.1354651482
H   H23       1.0  0.85812  0.85902  0.60639  1.0000 0.1315350563
H   H24       1.0  0.29045  0.81673  0.71614  1.0000 0.1354651482
C   C1        1.0  0.32340  0.62520  0.12120  1.0000 -0.1476920552
C   C2        1.0  0.33450  0.17590  0.03390  1.0000 0.5567208391
C   C3        1.0  0.41930  0.46710  0.12850  1.0000 0.0073828923
C   C4        1.0  0.20330  0.30950  0.14340  1.0000 -0.1476920552
C   C5        1.0  0.20980  0.49240  0.24470  1.0000 -0.1421468544
C   C6        1.0  0.28320  0.52140  0.17430  1.0000 0.0680986729
C   C7        1.0  0.30580  0.43380  0.15100  1.0000 0.0353117001
C   C8        1.0  0.32450  0.26190  0.08030  1.0000 -0.0023930854
C   C9        1.0  0.28460  0.69480  0.13600  1.0000 -0.0109693497
C   C10       1.0  0.42950  0.38430  0.09320  1.0000 -0.1327742401
C   C11       1.0  0.21120  0.22460  0.10970  1.0000 -0.0746886197
C   C12       1.0  0.10030  0.53630  0.34020  1.0000 0.6375323397
C   C13       1.0  0.31730  0.79950  0.07650  1.0000 0.6228462917
C   C14       1.0  0.17650  0.56630  0.26220  1.0000 -0.0109693497
C   C15       1.0  0.21010  0.66410  0.20660  1.0000 -0.1046168345
C   C16       1.0  0.62520  0.32340  0.37880  1.0000 -0.1476920552
C   C17       1.0  0.17590  0.33450  0.46610  1.0000 0.5567208391
C   C18       1.0  0.46710  0.41930  0.37150  1.0000 0.0073828923
C   C19       1.0  0.30950  0.20330  0.35660  1.0000 -0.1476920552
C   C20       1.0  0.49240  0.20980  0.25530  1.0000 -0.1421468544
C   C21       1.0  0.52140  0.28320  0.32570  1.0000 0.0680986729
C   C22       1.0  0.43380  0.30580  0.34900  1.0000 0.0353117001
C   C23       1.0  0.26190  0.32450  0.41970  1.0000 -0.0023930854
C   C24       1.0  0.69480  0.28460  0.36400  1.0000 -0.0109693497
C   C25       1.0  0.38430  0.42950  0.40680  1.0000 -0.1327742401
C   C26       1.0  0.22460  0.21120  0.39030  1.0000 -0.0746886197
C   C27       1.0  0.53630  0.10030  0.15980  1.0000 0.6375323397
C   C28       1.0  0.79950  0.31730  0.42350  1.0000 0.6228462917
C   C29       1.0  0.56630  0.17650  0.23780  1.0000 -0.0109693497
C   C30       1.0  0.66410  0.21010  0.29340  1.0000 -0.1046168345
C   C31       1.0  0.67660  0.37480  0.87880  1.0000 -0.1476920552
C   C32       1.0  0.66550  0.82410  0.96610  1.0000 0.5567208391
C   C33       1.0  0.58070  0.53290  0.87150  1.0000 0.0073828923
C   C34       1.0  0.79670  0.69050  0.85660  1.0000 -0.1476920552
C   C35       1.0  0.79020  0.50760  0.75530  1.0000 -0.1421468544
C   C36       1.0  0.71680  0.47860  0.82570  1.0000 0.0680986729
C   C37       1.0  0.69420  0.56620  0.84900  1.0000 0.0353117001
C   C38       1.0  0.67550  0.73810  0.91970  1.0000 -0.0023930854
C   C39       1.0  0.71540  0.30520  0.86400  1.0000 -0.0109693497
C   C40       1.0  0.57050  0.61570  0.90680  1.0000 -0.1327742401
C   C41       1.0  0.78880  0.77540  0.89030  1.0000 -0.0746886197
C   C42       1.0  0.89970  0.46370  0.65980  1.0000 0.6375323397
C   C43       1.0  0.68270  0.20050  0.92350  1.0000 0.6228462917
C   C44       1.0  0.82350  0.43370  0.73780  1.0000 -0.0109693497
C   C45       1.0  0.78990  0.33590  0.79340  1.0000 -0.1046168345
C   C46       1.0  0.37480  0.67660  0.62120  1.0000 -0.1476920552
C   C47       1.0  0.82410  0.66550  0.53390  1.0000 0.5567208391
C   C48       1.0  0.53290  0.58070  0.62850  1.0000 0.0073828923
C   C49       1.0  0.69050  0.79670  0.64340  1.0000 -0.1476920552
C   C50       1.0  0.50760  0.79020  0.74470  1.0000 -0.1421468544
C   C51       1.0  0.47860  0.71680  0.67430  1.0000 0.0680986729
C   C52       1.0  0.56620  0.69420  0.65100  1.0000 0.0353117001
C   C53       1.0  0.73810  0.67550  0.58030  1.0000 -0.0023930854
C   C54       1.0  0.30520  0.71540  0.63600  1.0000 -0.0109693497
C   C55       1.0  0.61570  0.57050  0.59320  1.0000 -0.1327742401
C   C56       1.0  0.77540  0.78880  0.60970  1.0000 -0.0746886197
C   C57       1.0  0.46370  0.89970  0.84020  1.0000 0.6375323397
C   C58       1.0  0.20050  0.68270  0.57650  1.0000 0.6228462917
C   C59       1.0  0.43370  0.82350  0.76220  1.0000 -0.0109693497
C   C60       1.0  0.33590  0.78990  0.70660  1.0000 -0.1046168345
N   N1        1.0  0.53686  0.59174  0.14790  1.0000 0.5084414345
N   N2        1.0  0.59174  0.53686  0.35210  1.0000 0.5084414345
N   N3        1.0  0.46314  0.40826  0.85210  1.0000 0.5084414345
N   N4        1.0  0.40826  0.46314  0.64790  1.0000 0.5084414345
O   O1        1.0  0.43355  0.22045  0.99850  1.0000 -0.6174282867
O   O2        1.0  0.23865  0.81615  0.06620  1.0000 -0.5893322367
O   O3        1.0  0.08735  0.61405  0.35910  1.0000 -0.6692940134
O   O4        1.0  0.42035  0.86545  0.03820  1.0000 -0.7565295237
O   O5        1.0  0.24155  0.06225  0.03280  1.0000 -0.6398772734
O   O6        1.0  0.06005  0.43995  0.37910  1.0000 -0.5893322367
O   O7        1.0  0.53674  0.64966  0.20450  1.0000 -0.3228074747
O   O8        1.0  0.62758  0.62662  0.10820  1.0000 -0.3014739889
O   O9        1.0  0.22045  0.43355  0.50150  1.0000 -0.6174282867
O   O10       1.0  0.81615  0.23865  0.43380  1.0000 -0.5893322367
O   O11       1.0  0.61405  0.08735  0.14090  1.0000 -0.6692940134
O   O12       1.0  0.86545  0.42035  0.46180  1.0000 -0.7565295237
O   O13       1.0  0.06225  0.24155  0.46720  1.0000 -0.6398772734
O   O14       1.0  0.43995  0.06005  0.12090  1.0000 -0.5893322367
O   O15       1.0  0.64966  0.53674  0.29550  1.0000 -0.3228074747
O   O16       1.0  0.62662  0.62758  0.39180  1.0000 -0.3014739889
O   O17       1.0  0.56645  0.77955  0.00150  1.0000 -0.6174282867
O   O18       1.0  0.76135  0.18385  0.93380  1.0000 -0.5893322367
O   O19       1.0  0.91265  0.38595  0.64090  1.0000 -0.6692940134
O   O20       1.0  0.57965  0.13455  0.96180  1.0000 -0.7565295237
O   O21       1.0  0.75845  0.93775  0.96720  1.0000 -0.6398772734
O   O22       1.0  0.93995  0.56005  0.62090  1.0000 -0.5893322367
O   O23       1.0  0.46326  0.35034  0.79550  1.0000 -0.3228074747
O   O24       1.0  0.37242  0.37338  0.89180  1.0000 -0.3014739889
O   O25       1.0  0.77955  0.56645  0.49850  1.0000 -0.6174282867
O   O26       1.0  0.18385  0.76135  0.56620  1.0000 -0.5893322367
O   O27       1.0  0.38595  0.91265  0.85910  1.0000 -0.6692940134
O   O28       1.0  0.13455  0.57965  0.53820  1.0000 -0.7565295237
O   O29       1.0  0.93775  0.75845  0.53280  1.0000 -0.6398772734
O   O30       1.0  0.56005  0.93995  0.87910  1.0000 -0.5893322367
O   O31       1.0  0.35034  0.46326  0.70450  1.0000 -0.3228074747
O   O32       1.0  0.37338  0.37242  0.60820  1.0000 -0.3014739889
