# DDEC6 charges by PACMAN v1.1 (https://github.com/mtap-research/PACMAN-charge/)
data_2019[Ce][hcb]2[ASR]1
_chemical_formula_sum              "Ce8 C72 Cl24 O48"
_cell_length_a       12.3779
_cell_length_b       13.4577
_cell_length_c       26.9167
_cell_angle_alpha    90
_cell_angle_beta     90
_cell_angle_gamma    90

_symmetry_space_group_name_H-M    "P 1"
_symmetry_Int_Tables_number       1

loop_
  _symmetry_equiv_pos_as_xyz
  'x, y, z'

loop_
  _atom_site_type_symbol
  _atom_site_label
  _atom_site_symmetry_multiplicity
  _atom_site_fract_x
  _atom_site_fract_y
  _atom_site_fract_z
  _atom_site_occupancy
  _atom_site_charge
Ce  Ce1       1.0  0.25000  0.43112  0.72425  1.0000 1.8980788567
Ce  Ce2       1.0  0.25000  0.06858  0.44534  1.0000 1.9870983539
Ce  Ce3       1.0  0.25000  0.56888  0.22425  1.0000 1.8980788567
Ce  Ce4       1.0  0.25000  0.93142  0.94534  1.0000 1.9870983539
Ce  Ce5       1.0  0.75000  0.56888  0.27575  1.0000 1.8980788567
Ce  Ce6       1.0  0.75000  0.93142  0.55466  1.0000 1.9870983539
Ce  Ce7       1.0  0.75000  0.43112  0.77575  1.0000 1.8980788567
Ce  Ce8       1.0  0.75000  0.06858  0.05466  1.0000 1.9849159099
C   C1        1.0  0.31210  0.75400  0.30375  1.0000 0.2592450358
C   C2        1.0  0.31200  0.89870  0.35801  1.0000 0.2508433364
C   C3        1.0  0.13310  0.66980  0.84112  1.0000 -0.1282206722
C   C4        1.0  0.18780  0.59800  0.81372  1.0000 0.2508433364
C   C5        1.0  0.36650  0.82920  0.32938  1.0000 -0.1182584108
C   C6        1.0  0.18810  0.74490  0.86603  1.0000 0.2508433364
C   C7        1.0  0.18790  0.24600  0.80375  1.0000 0.2592450358
C   C8        1.0  0.18800  0.10130  0.85801  1.0000 0.2508433364
C   C9        1.0  0.36690  0.33020  0.34112  1.0000 -0.1282206722
C   C10       1.0  0.31220  0.40200  0.31372  1.0000 0.2508433364
C   C11       1.0  0.13350  0.17080  0.82938  1.0000 -0.1182584108
C   C12       1.0  0.31190  0.25510  0.36603  1.0000 0.2508433364
C   C13       1.0  0.18790  0.75400  0.30375  1.0000 0.2592450358
C   C14       1.0  0.18800  0.89870  0.35801  1.0000 0.2508433364
C   C15       1.0  0.36690  0.66980  0.84112  1.0000 -0.1282206722
C   C16       1.0  0.31220  0.59800  0.81372  1.0000 0.2508433364
C   C17       1.0  0.13350  0.82920  0.32938  1.0000 -0.1182584108
C   C18       1.0  0.31190  0.74490  0.86603  1.0000 0.2508433364
C   C19       1.0  0.31210  0.24600  0.80375  1.0000 0.2592450358
C   C20       1.0  0.31200  0.10130  0.85801  1.0000 0.2508433364
C   C21       1.0  0.13310  0.33020  0.34112  1.0000 -0.1282206722
C   C22       1.0  0.18780  0.40200  0.31372  1.0000 0.2508433364
C   C23       1.0  0.36650  0.17080  0.82938  1.0000 -0.1182584108
C   C24       1.0  0.18810  0.25510  0.36603  1.0000 0.2508433364
C   C25       1.0  0.25000  0.35290  0.60523  1.0000 0.2674941846
C   C26       1.0  0.25000  0.25700  0.63629  1.0000 0.2508433364
C   C27       1.0  0.25000  0.34340  0.55322  1.0000 -0.1182584108
C   C28       1.0  0.25000  0.16440  0.61287  1.0000 -0.1024745725
C   C29       1.0  0.25000  0.25190  0.52950  1.0000 0.2418760933
C   C30       1.0  0.25000  0.15670  0.56097  1.0000 0.2763487675
C   C31       1.0  0.25000  0.64710  0.10523  1.0000 0.2674941846
C   C32       1.0  0.25000  0.74300  0.13629  1.0000 0.2508433364
C   C33       1.0  0.25000  0.65660  0.05322  1.0000 -0.1182584108
C   C34       1.0  0.25000  0.83560  0.11287  1.0000 -0.1024745725
C   C35       1.0  0.25000  0.74810  0.02950  1.0000 0.2418760933
C   C36       1.0  0.25000  0.84330  0.06097  1.0000 0.2763487675
C   C37       1.0  0.81210  0.24600  0.69625  1.0000 0.2592450358
C   C38       1.0  0.81200  0.10130  0.64199  1.0000 0.2508433364
C   C39       1.0  0.63310  0.33020  0.15888  1.0000 -0.1282206722
C   C40       1.0  0.68780  0.40200  0.18628  1.0000 0.2508433364
C   C41       1.0  0.86650  0.17080  0.67062  1.0000 -0.1182584108
C   C42       1.0  0.68810  0.25510  0.13397  1.0000 0.2508433364
C   C43       1.0  0.68790  0.75400  0.19625  1.0000 0.2592450358
C   C44       1.0  0.68800  0.89870  0.14199  1.0000 0.2508433364
C   C45       1.0  0.86690  0.66980  0.65888  1.0000 -0.1282206722
C   C46       1.0  0.81220  0.59800  0.68628  1.0000 0.2508433364
C   C47       1.0  0.63350  0.82920  0.17062  1.0000 -0.1182584108
C   C48       1.0  0.81190  0.74490  0.63397  1.0000 0.2508433364
C   C49       1.0  0.68790  0.24600  0.69625  1.0000 0.2592450358
C   C50       1.0  0.68800  0.10130  0.64199  1.0000 0.2508433364
C   C51       1.0  0.86690  0.33020  0.15888  1.0000 -0.1282206722
C   C52       1.0  0.81220  0.40200  0.18628  1.0000 0.2508433364
C   C53       1.0  0.63350  0.17080  0.67062  1.0000 -0.1182584108
C   C54       1.0  0.81190  0.25510  0.13397  1.0000 0.2508433364
C   C55       1.0  0.81210  0.75400  0.19625  1.0000 0.2592450358
C   C56       1.0  0.81200  0.89870  0.14199  1.0000 0.2508433364
C   C57       1.0  0.63310  0.66980  0.65888  1.0000 -0.1282206722
C   C58       1.0  0.68780  0.59800  0.68628  1.0000 0.2508433364
C   C59       1.0  0.86650  0.82920  0.17062  1.0000 -0.1182584108
C   C60       1.0  0.68810  0.74490  0.63397  1.0000 0.2508433364
C   C61       1.0  0.75000  0.64710  0.39477  1.0000 0.2674941846
C   C62       1.0  0.75000  0.74300  0.36371  1.0000 0.2508433364
C   C63       1.0  0.75000  0.65660  0.44678  1.0000 -0.1182584108
C   C64       1.0  0.75000  0.83560  0.38713  1.0000 -0.1024745725
C   C65       1.0  0.75000  0.74810  0.47050  1.0000 0.2418760933
C   C66       1.0  0.75000  0.84330  0.43903  1.0000 0.2763487675
C   C67       1.0  0.75000  0.35290  0.89477  1.0000 0.2674941846
C   C68       1.0  0.75000  0.25700  0.86371  1.0000 0.2508433364
C   C69       1.0  0.75000  0.34340  0.94678  1.0000 -0.1182584108
C   C70       1.0  0.75000  0.16440  0.88713  1.0000 -0.1024745725
C   C71       1.0  0.75000  0.25190  0.97050  1.0000 0.2418760933
C   C72       1.0  0.75000  0.15670  0.93903  1.0000 0.2763487675
Cl  Cl1       1.0  0.99365  0.66941  0.84082  1.0000 -0.0414451781
Cl  Cl2       1.0  0.50602  0.83234  0.32688  1.0000 -0.0513721466
Cl  Cl3       1.0  0.50635  0.33059  0.34082  1.0000 -0.0414451781
Cl  Cl4       1.0  0.99398  0.16766  0.82688  1.0000 -0.0513721466
Cl  Cl5       1.0  0.50635  0.66941  0.84082  1.0000 -0.0414451781
Cl  Cl6       1.0  0.99398  0.83234  0.32688  1.0000 -0.0513721466
Cl  Cl7       1.0  0.99365  0.33059  0.34082  1.0000 -0.0414451781
Cl  Cl8       1.0  0.50602  0.16766  0.82688  1.0000 -0.0513721466
Cl  Cl9       1.0  0.25000  0.05907  0.64909  1.0000 -0.026645851
Cl  Cl10      1.0  0.25000  0.45087  0.51703  1.0000 -0.026645851
Cl  Cl11      1.0  0.25000  0.94093  0.14909  1.0000 -0.0248832874
Cl  Cl12      1.0  0.25000  0.54913  0.01703  1.0000 -0.026645851
Cl  Cl13      1.0  0.49365  0.33059  0.15918  1.0000 -0.0414451781
Cl  Cl14      1.0  0.00602  0.16766  0.67312  1.0000 -0.0414451781
Cl  Cl15      1.0  0.00635  0.66941  0.65918  1.0000 -0.0414451781
Cl  Cl16      1.0  0.49398  0.83234  0.17312  1.0000 -0.0513721466
Cl  Cl17      1.0  0.00635  0.33059  0.15918  1.0000 -0.0414451781
Cl  Cl18      1.0  0.49398  0.16766  0.67312  1.0000 -0.0414451781
Cl  Cl19      1.0  0.49365  0.66941  0.65918  1.0000 -0.0414451781
Cl  Cl20      1.0  0.00602  0.83234  0.17312  1.0000 -0.0513721466
Cl  Cl21      1.0  0.75000  0.94093  0.35091  1.0000 -0.026645851
Cl  Cl22      1.0  0.75000  0.54913  0.48297  1.0000 -0.026645851
Cl  Cl23      1.0  0.75000  0.05907  0.85091  1.0000 -0.026645851
Cl  Cl24      1.0  0.75000  0.45087  0.98297  1.0000 -0.026645851
O   O1        1.0  0.14417  0.53137  0.78816  1.0000 -0.4943153732
O   O2        1.0  0.35609  0.68482  0.28009  1.0000 -0.4706347954
O   O3        1.0  0.35553  0.96513  0.38388  1.0000 -0.5012205266
O   O4        1.0  0.14437  0.81671  0.88825  1.0000 -0.4706347954
O   O5        1.0  0.35583  0.46863  0.28816  1.0000 -0.4943153732
O   O6        1.0  0.14391  0.31518  0.78009  1.0000 -0.4706347954
O   O7        1.0  0.14447  0.03487  0.88388  1.0000 -0.5012205266
O   O8        1.0  0.35563  0.18329  0.38825  1.0000 -0.4761517666
O   O9        1.0  0.35583  0.53137  0.78816  1.0000 -0.4943153732
O   O10       1.0  0.14391  0.68482  0.28009  1.0000 -0.4706347954
O   O11       1.0  0.14447  0.96513  0.38388  1.0000 -0.5012205266
O   O12       1.0  0.35563  0.81671  0.88825  1.0000 -0.4706347954
O   O13       1.0  0.14417  0.46863  0.28816  1.0000 -0.4943153732
O   O14       1.0  0.35609  0.31518  0.78009  1.0000 -0.4706347954
O   O15       1.0  0.35553  0.03487  0.88388  1.0000 -0.5012205266
O   O16       1.0  0.14437  0.18329  0.38825  1.0000 -0.4761517666
O   O17       1.0  0.25000  0.43250  0.62888  1.0000 -0.5238741063
O   O18       1.0  0.25000  0.26930  0.68295  1.0000 -0.5495585822
O   O19       1.0  0.25000  0.07660  0.53768  1.0000 -0.5495585822
O   O20       1.0  0.25000  0.23840  0.48342  1.0000 -0.5012205266
O   O21       1.0  0.25000  0.56750  0.12888  1.0000 -0.525202813
O   O22       1.0  0.25000  0.73070  0.18295  1.0000 -0.5435351453
O   O23       1.0  0.25000  0.92340  0.03768  1.0000 -0.5551506899
O   O24       1.0  0.25000  0.76160  0.98342  1.0000 -0.5012205266
O   O25       1.0  0.64417  0.46863  0.21184  1.0000 -0.4943153732
O   O26       1.0  0.85609  0.31518  0.71991  1.0000 -0.4706347954
O   O27       1.0  0.85553  0.03487  0.61612  1.0000 -0.5012205266
O   O28       1.0  0.64437  0.18329  0.11175  1.0000 -0.4706347954
O   O29       1.0  0.85583  0.53137  0.71184  1.0000 -0.4943153732
O   O30       1.0  0.64391  0.68482  0.21991  1.0000 -0.4643006347
O   O31       1.0  0.64447  0.96513  0.11612  1.0000 -0.5012205266
O   O32       1.0  0.85563  0.81671  0.61175  1.0000 -0.4706347954
O   O33       1.0  0.85583  0.46863  0.21184  1.0000 -0.4943153732
O   O34       1.0  0.64391  0.31518  0.71991  1.0000 -0.4706347954
O   O35       1.0  0.64447  0.03487  0.61612  1.0000 -0.5012205266
O   O36       1.0  0.85563  0.18329  0.11175  1.0000 -0.4706347954
O   O37       1.0  0.64417  0.53137  0.71184  1.0000 -0.4943153732
O   O38       1.0  0.85609  0.68482  0.21991  1.0000 -0.4643006347
O   O39       1.0  0.85553  0.96513  0.11612  1.0000 -0.5012205266
O   O40       1.0  0.64437  0.81671  0.61175  1.0000 -0.4706347954
O   O41       1.0  0.75000  0.56750  0.37112  1.0000 -0.5238741063
O   O42       1.0  0.75000  0.73070  0.31705  1.0000 -0.5495585822
O   O43       1.0  0.75000  0.92340  0.46232  1.0000 -0.5551506899
O   O44       1.0  0.75000  0.76160  0.51658  1.0000 -0.5012205266
O   O45       1.0  0.75000  0.43250  0.87112  1.0000 -0.5238741063
O   O46       1.0  0.75000  0.26930  0.81705  1.0000 -0.5435351453
O   O47       1.0  0.75000  0.07660  0.96232  1.0000 -0.5495585822
O   O48       1.0  0.75000  0.23840  0.01658  1.0000 -0.5012205266
