# DDEC6 charges by PACMAN v1.1 (https://github.com/mtap-research/PACMAN-charge/)
data_2019[Cd][nan]3[ASR]10
_chemical_formula_sum              "Cd8 H140 C182 N20 O24"
_cell_length_a       13.9124
_cell_length_b       13.9366
_cell_length_c       28.512
_cell_angle_alpha    90
_cell_angle_beta     91.332
_cell_angle_gamma    90

_symmetry_space_group_name_H-M    "P 1"
_symmetry_Int_Tables_number       1

loop_
  _symmetry_equiv_pos_as_xyz
  'x, y, z'

loop_
  _atom_site_type_symbol
  _atom_site_label
  _atom_site_symmetry_multiplicity
  _atom_site_fract_x
  _atom_site_fract_y
  _atom_site_fract_z
  _atom_site_occupancy
  _atom_site_charge
Cd  Cd1       1.0  0.54155  0.00405  0.42585  1.0000 0.8599546915
Cd  Cd2       1.0  0.98418  0.31610  0.31928  1.0000 0.8599546915
Cd  Cd3       1.0  0.45845  0.00405  0.07415  1.0000 0.8599546915
Cd  Cd4       1.0  0.01582  0.31610  0.18072  1.0000 0.8599546915
Cd  Cd5       1.0  0.45845  0.99595  0.57415  1.0000 0.8599546915
Cd  Cd6       1.0  0.01582  0.68390  0.68072  1.0000 0.8599546915
Cd  Cd7       1.0  0.54155  0.99595  0.92585  1.0000 0.8599546915
Cd  Cd8       1.0  0.98418  0.68390  0.81928  1.0000 0.8599546915
H   H1        1.0  0.57240  0.28570  0.43980  1.0000 0.1083619633
H   H2        1.0  0.53850  0.44020  0.41680  1.0000 0.1083619633
H   H3        1.0  0.40970  0.51580  0.44980  1.0000 0.1205499885
H   H4        1.0  0.36550  0.29860  0.53490  1.0000 0.1205499885
H   H5        1.0  0.31210  0.47040  0.55180  1.0000 0.1205499885
H   H6        1.0  0.29650  0.53330  0.50670  1.0000 0.1276995189
H   H7        1.0  0.20790  0.39850  0.44320  1.0000 0.1276995189
H   H8        1.0  0.95330  0.32800  0.49470  1.0000 0.1205499885
H   H9        1.0  0.00950  0.37670  0.56730  1.0000 0.1276995189
H   H10       1.0  0.16370  0.43580  0.57800  1.0000 0.1083619633
H   H11       1.0  0.24020  0.28040  0.32790  1.0000 0.1205499885
H   H12       1.0  0.37780  0.32360  0.36950  1.0000 0.1008516354
H   H13       1.0  0.49880  0.40220  0.33100  1.0000 0.1083619633
H   H14       1.0  0.33080  0.42680  0.21810  1.0000 0.1205499885
H   H15       1.0  0.47080  0.52710  0.22610  1.0000 0.1205499885
H   H16       1.0  0.13380  0.48700  0.31630  1.0000 0.1083619633
H   H17       1.0  0.15020  0.64690  0.31820  1.0000 0.1276995189
H   H18       1.0  0.86680  0.67190  0.31950  1.0000 0.1083619633
H   H19       1.0  0.85150  0.50800  0.31780  1.0000 0.1083619633
H   H20       1.0  0.08590  0.81030  0.31910  1.0000 0.1083619633
H   H21       1.0  0.89410  0.82260  0.31250  1.0000 0.1205499885
H   H22       1.0  0.10910  0.96410  0.30710  1.0000 0.1276995189
H   H23       1.0  0.11580  0.12570  0.30740  1.0000 0.1083619633
H   H24       1.0  0.84150  0.14490  0.32200  1.0000 0.1083619633
H   H25       1.0  0.82360  0.98130  0.31960  1.0000 0.1276995189
H   H26       1.0  0.71830  0.85810  0.42580  1.0000 0.1008516354
H   H27       1.0  0.88110  0.84710  0.43130  1.0000 0.1276995189
H   H28       1.0  0.89300  0.13320  0.44540  1.0000 0.1276995189
H   H29       1.0  0.72830  0.13530  0.44180  1.0000 0.1083619633
H   H30       1.0  0.03840  0.92190  0.44080  1.0000 0.1083619633
H   H31       1.0  0.04940  0.11440  0.43110  1.0000 0.1205499885
H   H32       1.0  0.18560  0.90080  0.43920  1.0000 0.1205499885
H   H33       1.0  0.34870  0.88410  0.43250  1.0000 0.1083619633
H   H34       1.0  0.37160  0.16210  0.41540  1.0000 0.0920062217
H   H35       1.0  0.20900  0.18160  0.42000  1.0000 0.1276995189
H   H36       1.0  0.42760  0.28570  0.06020  1.0000 0.1083619633
H   H37       1.0  0.46150  0.44020  0.08320  1.0000 0.1083619633
H   H38       1.0  0.59030  0.51580  0.05020  1.0000 0.1205499885
H   H39       1.0  0.63450  0.29860  0.96510  1.0000 0.1205499885
H   H40       1.0  0.68790  0.47040  0.94820  1.0000 0.1205499885
H   H41       1.0  0.70350  0.53330  0.99330  1.0000 0.1276995189
H   H42       1.0  0.79210  0.39850  0.05680  1.0000 0.1276995189
H   H43       1.0  0.04670  0.32800  0.00530  1.0000 0.1205499885
H   H44       1.0  0.99050  0.37670  0.93270  1.0000 0.1276995189
H   H45       1.0  0.83630  0.43580  0.92200  1.0000 0.1083619633
H   H46       1.0  0.75980  0.28040  0.17210  1.0000 0.1205499885
H   H47       1.0  0.62220  0.32360  0.13050  1.0000 0.1008516354
H   H48       1.0  0.50120  0.40220  0.16900  1.0000 0.1083619633
H   H49       1.0  0.66920  0.42680  0.28190  1.0000 0.1205499885
H   H50       1.0  0.52920  0.52710  0.27390  1.0000 0.1205499885
H   H51       1.0  0.86620  0.48700  0.18370  1.0000 0.1083619633
H   H52       1.0  0.84980  0.64690  0.18180  1.0000 0.1276995189
H   H53       1.0  0.13320  0.67190  0.18050  1.0000 0.1083619633
H   H54       1.0  0.14850  0.50800  0.18220  1.0000 0.1083619633
H   H55       1.0  0.91410  0.81030  0.18090  1.0000 0.1083619633
H   H56       1.0  0.10590  0.82260  0.18750  1.0000 0.1205499885
H   H57       1.0  0.89090  0.96410  0.19290  1.0000 0.1276995189
H   H58       1.0  0.88420  0.12570  0.19260  1.0000 0.1083619633
H   H59       1.0  0.15850  0.14490  0.17800  1.0000 0.1083619633
H   H60       1.0  0.17640  0.98130  0.18040  1.0000 0.1276995189
H   H61       1.0  0.28170  0.85810  0.07420  1.0000 0.1008516354
H   H62       1.0  0.11890  0.84710  0.06870  1.0000 0.1276995189
H   H63       1.0  0.10700  0.13320  0.05460  1.0000 0.1276995189
H   H64       1.0  0.27170  0.13530  0.05820  1.0000 0.1083619633
H   H65       1.0  0.96160  0.92190  0.05920  1.0000 0.1083619633
H   H66       1.0  0.95060  0.11440  0.06890  1.0000 0.1205499885
H   H67       1.0  0.81440  0.90080  0.06080  1.0000 0.1205499885
H   H68       1.0  0.65130  0.88410  0.06750  1.0000 0.1083619633
H   H69       1.0  0.62840  0.16210  0.08460  1.0000 0.0920062217
H   H70       1.0  0.79100  0.18160  0.08000  1.0000 0.1276995189
H   H71       1.0  0.42760  0.71430  0.56020  1.0000 0.1083619633
H   H72       1.0  0.46150  0.55980  0.58320  1.0000 0.1083619633
H   H73       1.0  0.59030  0.48420  0.55020  1.0000 0.1205499885
H   H74       1.0  0.63450  0.70140  0.46510  1.0000 0.1205499885
H   H75       1.0  0.68790  0.52960  0.44820  1.0000 0.1205499885
H   H76       1.0  0.70350  0.46670  0.49330  1.0000 0.1276995189
H   H77       1.0  0.79210  0.60150  0.55680  1.0000 0.1276995189
H   H78       1.0  0.04670  0.67200  0.50530  1.0000 0.1205499885
H   H79       1.0  0.99050  0.62330  0.43270  1.0000 0.1276995189
H   H80       1.0  0.83630  0.56420  0.42200  1.0000 0.1083619633
H   H81       1.0  0.75980  0.71960  0.67210  1.0000 0.1205499885
H   H82       1.0  0.62220  0.67640  0.63050  1.0000 0.1008516354
H   H83       1.0  0.50120  0.59780  0.66900  1.0000 0.1083619633
H   H84       1.0  0.66920  0.57320  0.78190  1.0000 0.1205499885
H   H85       1.0  0.52920  0.47290  0.77390  1.0000 0.1205499885
H   H86       1.0  0.86620  0.51300  0.68370  1.0000 0.1083619633
H   H87       1.0  0.84980  0.35310  0.68180  1.0000 0.1276995189
H   H88       1.0  0.13320  0.32810  0.68050  1.0000 0.1083619633
H   H89       1.0  0.14850  0.49200  0.68220  1.0000 0.1083619633
H   H90       1.0  0.91410  0.18970  0.68090  1.0000 0.1083619633
H   H91       1.0  0.10590  0.17740  0.68750  1.0000 0.1205499885
H   H92       1.0  0.89090  0.03590  0.69290  1.0000 0.1276995189
H   H93       1.0  0.88420  0.87430  0.69260  1.0000 0.1083619633
H   H94       1.0  0.15850  0.85510  0.67800  1.0000 0.1083619633
H   H95       1.0  0.17640  0.01870  0.68040  1.0000 0.1276995189
H   H96       1.0  0.28170  0.14190  0.57420  1.0000 0.1008516354
H   H97       1.0  0.11890  0.15290  0.56870  1.0000 0.1276995189
H   H98       1.0  0.10700  0.86680  0.55460  1.0000 0.1276995189
H   H99       1.0  0.27170  0.86470  0.55820  1.0000 0.1083619633
H   H100      1.0  0.96160  0.07810  0.55920  1.0000 0.1083619633
H   H101      1.0  0.95060  0.88560  0.56890  1.0000 0.1205499885
H   H102      1.0  0.81440  0.09920  0.56080  1.0000 0.1205499885
H   H103      1.0  0.65130  0.11590  0.56750  1.0000 0.1083619633
H   H104      1.0  0.62840  0.83790  0.58460  1.0000 0.0920062217
H   H105      1.0  0.79100  0.81840  0.58000  1.0000 0.1276995189
H   H106      1.0  0.57240  0.71430  0.93980  1.0000 0.1083619633
H   H107      1.0  0.53850  0.55980  0.91680  1.0000 0.1083619633
H   H108      1.0  0.40970  0.48420  0.94980  1.0000 0.1205499885
H   H109      1.0  0.36550  0.70140  0.03490  1.0000 0.1205499885
H   H110      1.0  0.31210  0.52960  0.05180  1.0000 0.1205499885
H   H111      1.0  0.29650  0.46670  0.00670  1.0000 0.1276995189
H   H112      1.0  0.20790  0.60150  0.94320  1.0000 0.1276995189
H   H113      1.0  0.95330  0.67200  0.99470  1.0000 0.1205499885
H   H114      1.0  0.00950  0.62330  0.06730  1.0000 0.1276995189
H   H115      1.0  0.16370  0.56420  0.07800  1.0000 0.1083619633
H   H116      1.0  0.24020  0.71960  0.82790  1.0000 0.1205499885
H   H117      1.0  0.37780  0.67640  0.86950  1.0000 0.1008516354
H   H118      1.0  0.49880  0.59780  0.83100  1.0000 0.1083619633
H   H119      1.0  0.33080  0.57320  0.71810  1.0000 0.1205499885
H   H120      1.0  0.47080  0.47290  0.72610  1.0000 0.1205499885
H   H121      1.0  0.13380  0.51300  0.81630  1.0000 0.1083619633
H   H122      1.0  0.15020  0.35310  0.81820  1.0000 0.1276995189
H   H123      1.0  0.86680  0.32810  0.81950  1.0000 0.1083619633
H   H124      1.0  0.85150  0.49200  0.81780  1.0000 0.1083619633
H   H125      1.0  0.08590  0.18970  0.81910  1.0000 0.1083619633
H   H126      1.0  0.89410  0.17740  0.81250  1.0000 0.1205499885
H   H127      1.0  0.10910  0.03590  0.80710  1.0000 0.1276995189
H   H128      1.0  0.11580  0.87430  0.80740  1.0000 0.1083619633
H   H129      1.0  0.84150  0.85510  0.82200  1.0000 0.1083619633
H   H130      1.0  0.82360  0.01870  0.81960  1.0000 0.1276995189
H   H131      1.0  0.71830  0.14190  0.92580  1.0000 0.1008516354
H   H132      1.0  0.88110  0.15290  0.93130  1.0000 0.1276995189
H   H133      1.0  0.89300  0.86680  0.94540  1.0000 0.1276995189
H   H134      1.0  0.72830  0.86470  0.94180  1.0000 0.1083619633
H   H135      1.0  0.03840  0.07810  0.94080  1.0000 0.1083619633
H   H136      1.0  0.04940  0.88560  0.93110  1.0000 0.1205499885
H   H137      1.0  0.18560  0.09920  0.93920  1.0000 0.1205499885
H   H138      1.0  0.34870  0.11590  0.93250  1.0000 0.1083619633
H   H139      1.0  0.37160  0.83790  0.91540  1.0000 0.0920062217
H   H140      1.0  0.20900  0.81840  0.92000  1.0000 0.1276995189
C   C1        1.0  0.47270  0.27280  0.48870  1.0000 -0.0667741465
C   C2        1.0  0.52260  0.31860  0.45400  1.0000 -0.1395350984
C   C3        1.0  0.50240  0.40990  0.43950  1.0000 -0.1099870513
C   C4        1.0  0.42640  0.45450  0.46000  1.0000 -0.1669756457
C   C5        1.0  0.39800  0.32550  0.51000  1.0000 -0.1890048395
C   C6        1.0  0.37360  0.41360  0.49480  1.0000 0.0920062217
C   C7        1.0  0.49350  0.17450  0.50340  1.0000 0.5502775748
C   C8        1.0  0.29700  0.46790  0.51840  1.0000 -0.2097782726
C   C9        1.0  0.16640  0.39460  0.46820  1.0000 -0.0667741465
C   C10       1.0  0.07590  0.35790  0.46020  1.0000 -0.063084994
C   C11       1.0  0.01550  0.35170  0.49840  1.0000 -0.0974596674
C   C12       1.0  0.04950  0.38120  0.54170  1.0000 -0.1573499659
C   C13       1.0  0.14160  0.41750  0.54830  1.0000 -0.0279187831
C   C14       1.0  0.04090  0.33333  0.41220  1.0000 0.5223502283
C   C15       1.0  0.27150  0.35150  0.26850  1.0000 -0.0215231311
C   C16       1.0  0.28640  0.31840  0.31390  1.0000 -0.1289911802
C   C17       1.0  0.36940  0.34160  0.33830  1.0000 -0.1099870513
C   C18       1.0  0.43990  0.39180  0.31580  1.0000 -0.1573499659
C   C19       1.0  0.42470  0.42670  0.27140  1.0000 0.1205499885
C   C20       1.0  0.34090  0.40460  0.24860  1.0000 -0.1669756457
C   C21       1.0  0.18060  0.32970  0.24130  1.0000 0.5502775748
C   C22       1.0  0.07840  0.52430  0.31690  1.0000 0.0382704697
C   C23       1.0  0.08870  0.62080  0.31720  1.0000 -0.1573499659
C   C24       1.0  0.02110  0.67340  0.31620  1.0000 0.1276995189
C   C25       1.0  0.92050  0.63240  0.31810  1.0000 -0.2375857393
C   C26       1.0  0.91220  0.53580  0.31780  1.0000 0.0498215788
C   C27       1.0  0.02440  0.78430  0.31680  1.0000 -0.1573499659
C   C28       1.0  0.95660  0.84610  0.31460  1.0000 -0.1669756457
C   C29       1.0  0.96800  0.95150  0.31520  1.0000 0.1440739231
C   C30       1.0  0.05270  0.99900  0.31060  1.0000 -0.2097782726
C   C31       1.0  0.05620  0.09680  0.31080  1.0000 0.0712581148
C   C32       1.0  0.89630  0.10740  0.31890  1.0000 0.0625627709
C   C33       1.0  0.88430  0.00890  0.31820  1.0000 -0.2097782726
C   C34       1.0  0.75360  0.91420  0.43010  1.0000 0.0625627709
C   C35       1.0  0.85180  0.90690  0.43290  1.0000 -0.2179135318
C   C36       1.0  0.90730  0.98890  0.43810  1.0000 0.1476504867
C   C37       1.0  0.85900  0.07620  0.44160  1.0000 -0.199191534
C   C38       1.0  0.75980  0.07670  0.43910  1.0000 0.0498215788
C   C39       1.0  0.01230  0.98310  0.43750  1.0000 -0.1573499659
C   C40       1.0  0.07360  0.05230  0.43300  1.0000 -0.1395350984
C   C41       1.0  0.17840  0.04020  0.43050  1.0000 0.1440739231
C   C42       1.0  0.22260  0.95520  0.43400  1.0000 -0.1890048395
C   C43       1.0  0.32100  0.94470  0.43030  1.0000 0.0625627709
C   C44       1.0  0.33370  0.10800  0.42000  1.0000 0.0712581148
C   C45       1.0  0.23610  0.12080  0.42300  1.0000 -0.2097782726
C   C46       1.0  0.52730  0.27280  0.01130  1.0000 -0.0667741465
C   C47       1.0  0.47740  0.31860  0.04600  1.0000 -0.1395350984
C   C48       1.0  0.49760  0.40990  0.06050  1.0000 -0.1099870513
C   C49       1.0  0.57360  0.45450  0.04000  1.0000 -0.1669756457
C   C50       1.0  0.60200  0.32550  0.99000  1.0000 -0.1890048395
C   C51       1.0  0.62640  0.41360  0.00520  1.0000 0.0920062217
C   C52       1.0  0.50650  0.17450  0.99660  1.0000 0.5502775748
C   C53       1.0  0.70300  0.46790  0.98160  1.0000 -0.2097782726
C   C54       1.0  0.83360  0.39460  0.03180  1.0000 -0.063084994
C   C55       1.0  0.92410  0.35790  0.03980  1.0000 -0.063084994
C   C56       1.0  0.98450  0.35170  0.00160  1.0000 -0.0974596674
C   C57       1.0  0.95050  0.38120  0.95830  1.0000 -0.1573499659
C   C58       1.0  0.85840  0.41750  0.95170  1.0000 -0.0279187831
C   C59       1.0  0.95910  0.33333  0.08780  1.0000 0.5223502283
C   C60       1.0  0.72850  0.35150  0.23150  1.0000 -0.0215231311
C   C61       1.0  0.71360  0.31840  0.18610  1.0000 -0.1289911802
C   C62       1.0  0.63060  0.34160  0.16170  1.0000 -0.1099870513
C   C63       1.0  0.56010  0.39180  0.18420  1.0000 -0.1573499659
C   C64       1.0  0.57530  0.42670  0.22860  1.0000 0.1205499885
C   C65       1.0  0.65910  0.40460  0.25140  1.0000 -0.1669756457
C   C66       1.0  0.81940  0.32970  0.25870  1.0000 0.5502775748
C   C67       1.0  0.92160  0.52430  0.18310  1.0000 0.0382704697
C   C68       1.0  0.91130  0.62080  0.18280  1.0000 -0.1573499659
C   C69       1.0  0.97890  0.67340  0.18380  1.0000 0.1205499885
C   C70       1.0  0.07950  0.63240  0.18190  1.0000 -0.2375857393
C   C71       1.0  0.08780  0.53580  0.18220  1.0000 0.0498215788
C   C72       1.0  0.97560  0.78430  0.18320  1.0000 -0.1573499659
C   C73       1.0  0.04340  0.84610  0.18540  1.0000 -0.1669756457
C   C74       1.0  0.03200  0.95150  0.18480  1.0000 0.1440739231
C   C75       1.0  0.94730  0.99900  0.18940  1.0000 -0.2097782726
C   C76       1.0  0.94380  0.09680  0.18920  1.0000 0.0712581148
C   C77       1.0  0.10370  0.10740  0.18110  1.0000 0.0625627709
C   C78       1.0  0.11570  0.00890  0.18180  1.0000 -0.2097782726
C   C79       1.0  0.24640  0.91420  0.06990  1.0000 0.0625627709
C   C80       1.0  0.14820  0.90690  0.06710  1.0000 -0.2179135318
C   C81       1.0  0.09270  0.98890  0.06190  1.0000 0.1476504867
C   C82       1.0  0.14100  0.07620  0.05840  1.0000 -0.199191534
C   C83       1.0  0.24020  0.07670  0.06090  1.0000 0.0498215788
C   C84       1.0  0.98770  0.98310  0.06250  1.0000 -0.1573499659
C   C85       1.0  0.92640  0.05230  0.06700  1.0000 -0.1395350984
C   C86       1.0  0.82160  0.04020  0.06950  1.0000 0.1440739231
C   C87       1.0  0.77740  0.95520  0.06600  1.0000 -0.1890048395
C   C88       1.0  0.67900  0.94470  0.06970  1.0000 0.0625627709
C   C89       1.0  0.66630  0.10800  0.08000  1.0000 0.0712581148
C   C90       1.0  0.76390  0.12080  0.07700  1.0000 -0.2097782726
C   C91       1.0  0.52730  0.72720  0.51130  1.0000 -0.0667741465
C   C92       1.0  0.47740  0.68140  0.54600  1.0000 -0.1395350984
C   C93       1.0  0.49760  0.59010  0.56050  1.0000 -0.1099870513
C   C94       1.0  0.57360  0.54550  0.54000  1.0000 -0.1669756457
C   C95       1.0  0.60200  0.67450  0.49000  1.0000 -0.1890048395
C   C96       1.0  0.62640  0.58640  0.50520  1.0000 0.0920062217
C   C97       1.0  0.50650  0.82550  0.49660  1.0000 0.5502775748
C   C98       1.0  0.70300  0.53210  0.48160  1.0000 -0.2097782726
C   C99       1.0  0.83360  0.60540  0.53180  1.0000 -0.063084994
C   C100      1.0  0.92410  0.64210  0.53980  1.0000 -0.063084994
C   C101      1.0  0.98450  0.64830  0.50160  1.0000 -0.0974596674
C   C102      1.0  0.95050  0.61880  0.45830  1.0000 -0.1573499659
C   C103      1.0  0.85840  0.58250  0.45170  1.0000 -0.0279187831
C   C104      1.0  0.95910  0.66667  0.58780  1.0000 0.5223502283
C   C105      1.0  0.72850  0.64850  0.73150  1.0000 -0.0215231311
C   C106      1.0  0.71360  0.68160  0.68610  1.0000 -0.1289911802
C   C107      1.0  0.63060  0.65840  0.66170  1.0000 -0.1099870513
C   C108      1.0  0.56010  0.60820  0.68420  1.0000 -0.1573499659
C   C109      1.0  0.57530  0.57330  0.72860  1.0000 0.1205499885
C   C110      1.0  0.65910  0.59540  0.75140  1.0000 -0.1669756457
C   C111      1.0  0.81940  0.67030  0.75870  1.0000 0.5502775748
C   C112      1.0  0.92160  0.47570  0.68310  1.0000 0.0382704697
C   C113      1.0  0.91130  0.37920  0.68280  1.0000 -0.1573499659
C   C114      1.0  0.97890  0.32660  0.68380  1.0000 0.1205499885
C   C115      1.0  0.07950  0.36760  0.68190  1.0000 -0.2375857393
C   C116      1.0  0.08780  0.46420  0.68220  1.0000 0.0498215788
C   C117      1.0  0.97560  0.21570  0.68320  1.0000 -0.1573499659
C   C118      1.0  0.04340  0.15390  0.68540  1.0000 -0.1669756457
C   C119      1.0  0.03200  0.04850  0.68480  1.0000 0.1440739231
C   C120      1.0  0.94730  0.00100  0.68940  1.0000 -0.2097782726
C   C121      1.0  0.94380  0.90320  0.68920  1.0000 0.0712581148
C   C122      1.0  0.10370  0.89260  0.68110  1.0000 0.0625627709
C   C123      1.0  0.11570  0.99110  0.68180  1.0000 -0.2097782726
C   C124      1.0  0.24640  0.08580  0.56990  1.0000 0.0625627709
C   C125      1.0  0.14820  0.09310  0.56710  1.0000 -0.2179135318
C   C126      1.0  0.09270  0.01110  0.56190  1.0000 0.1476504867
C   C127      1.0  0.14100  0.92380  0.55840  1.0000 -0.199191534
C   C128      1.0  0.24020  0.92330  0.56090  1.0000 0.0498215788
C   C129      1.0  0.98770  0.01690  0.56250  1.0000 -0.1544300104
C   C130      1.0  0.92640  0.94770  0.56700  1.0000 -0.1395350984
C   C131      1.0  0.82160  0.95980  0.56950  1.0000 0.1440739231
C   C132      1.0  0.77740  0.04480  0.56600  1.0000 -0.1890048395
C   C133      1.0  0.67900  0.05530  0.56970  1.0000 0.0712581148
C   C134      1.0  0.66630  0.89200  0.58000  1.0000 0.0712581148
C   C135      1.0  0.76390  0.87920  0.57700  1.0000 -0.2097782726
C   C136      1.0  0.47270  0.72720  0.98870  1.0000 -0.0667741465
C   C137      1.0  0.52260  0.68140  0.95400  1.0000 -0.1395350984
C   C138      1.0  0.50240  0.59010  0.93950  1.0000 -0.1099870513
C   C139      1.0  0.42640  0.54550  0.96000  1.0000 -0.1669756457
C   C140      1.0  0.39800  0.67450  0.01000  1.0000 -0.1890048395
C   C141      1.0  0.37360  0.58640  0.99480  1.0000 0.0920062217
C   C142      1.0  0.49350  0.82550  0.00340  1.0000 0.5502775748
C   C143      1.0  0.29700  0.53210  0.01840  1.0000 -0.2097782726
C   C144      1.0  0.16640  0.60540  0.96820  1.0000 -0.063084994
C   C145      1.0  0.07590  0.64210  0.96020  1.0000 -0.063084994
C   C146      1.0  0.01550  0.64830  0.99840  1.0000 -0.0974596674
C   C147      1.0  0.04950  0.61880  0.04170  1.0000 -0.1573499659
C   C148      1.0  0.14160  0.58250  0.04830  1.0000 -0.0279187831
C   C149      1.0  0.04090  0.66667  0.91220  1.0000 0.5223502283
C   C150      1.0  0.27150  0.64850  0.76850  1.0000 -0.0215231311
C   C151      1.0  0.28640  0.68160  0.81390  1.0000 -0.1289911802
C   C152      1.0  0.36940  0.65840  0.83830  1.0000 -0.1099870513
C   C153      1.0  0.43990  0.60820  0.81580  1.0000 -0.1573499659
C   C154      1.0  0.42470  0.57330  0.77140  1.0000 0.1205499885
C   C155      1.0  0.34090  0.59540  0.74860  1.0000 -0.1669756457
C   C156      1.0  0.18060  0.67030  0.74130  1.0000 0.5502775748
C   C157      1.0  0.07840  0.47570  0.81690  1.0000 0.0382704697
C   C158      1.0  0.08870  0.37920  0.81720  1.0000 -0.1573499659
C   C159      1.0  0.02110  0.32660  0.81620  1.0000 0.1276995189
C   C160      1.0  0.92050  0.36760  0.81810  1.0000 -0.2375857393
C   C161      1.0  0.91220  0.46420  0.81780  1.0000 0.0498215788
C   C162      1.0  0.02440  0.21570  0.81680  1.0000 -0.1573499659
C   C163      1.0  0.95660  0.15390  0.81460  1.0000 -0.1669756457
C   C164      1.0  0.96800  0.04850  0.81520  1.0000 0.1440739231
C   C165      1.0  0.05270  0.00100  0.81060  1.0000 -0.2097782726
C   C166      1.0  0.05620  0.90320  0.81080  1.0000 0.0712581148
C   C167      1.0  0.89630  0.89260  0.81890  1.0000 0.0625627709
C   C168      1.0  0.88430  0.99110  0.81820  1.0000 -0.2097782726
C   C169      1.0  0.75360  0.08580  0.93010  1.0000 0.0625627709
C   C170      1.0  0.85180  0.09310  0.93290  1.0000 -0.2179135318
C   C171      1.0  0.90730  0.01110  0.93810  1.0000 0.1476504867
C   C172      1.0  0.85900  0.92380  0.94160  1.0000 -0.199191534
C   C173      1.0  0.75980  0.92330  0.93910  1.0000 0.0498215788
C   C174      1.0  0.01230  0.01690  0.93750  1.0000 -0.1573499659
C   C175      1.0  0.07360  0.94770  0.93300  1.0000 -0.1395350984
C   C176      1.0  0.17840  0.95980  0.93050  1.0000 0.1440739231
C   C177      1.0  0.22260  0.04480  0.93400  1.0000 -0.1890048395
C   C178      1.0  0.32100  0.05530  0.93030  1.0000 0.0712581148
C   C179      1.0  0.33370  0.89200  0.92000  1.0000 0.0712581148
C   C180      1.0  0.23610  0.87920  0.92300  1.0000 -0.2097782726
C   C181      1.0  0.50000  0.48620  0.25000  1.0000 -0.3027165617
C   C182      1.0  0.50000  0.51380  0.75000  1.0000 -0.3027165617
N   N1        1.0  0.99190  0.47820  0.31740  1.0000 -0.2777439589
N   N2        1.0  0.98070  0.15330  0.31570  1.0000 -0.2375857393
N   N3        1.0  0.70560  0.99650  0.43300  1.0000 -0.2556757937
N   N4        1.0  0.37760  0.02340  0.42330  1.0000 -0.2556757937
N   N5        1.0  0.19810  0.42590  0.51140  1.0000 0.0920062217
N   N6        1.0  0.00810  0.47820  0.18260  1.0000 -0.2777439589
N   N7        1.0  0.01930  0.15330  0.18430  1.0000 -0.2375857393
N   N8        1.0  0.29440  0.99650  0.06700  1.0000 -0.2556757937
N   N9        1.0  0.62240  0.02340  0.07670  1.0000 -0.2556757937
N   N10       1.0  0.80190  0.42590  0.98860  1.0000 0.0920062217
N   N11       1.0  0.00810  0.52180  0.68260  1.0000 -0.2777439589
N   N12       1.0  0.01930  0.84670  0.68430  1.0000 -0.2375857393
N   N13       1.0  0.29440  0.00350  0.56700  1.0000 -0.2556757937
N   N14       1.0  0.62240  0.97660  0.57670  1.0000 -0.2556757937
N   N15       1.0  0.80190  0.57410  0.48860  1.0000 0.0920062217
N   N16       1.0  0.99190  0.52180  0.81740  1.0000 -0.2777439589
N   N17       1.0  0.98070  0.84670  0.81570  1.0000 -0.2375857393
N   N18       1.0  0.70560  0.00350  0.93300  1.0000 -0.2556757937
N   N19       1.0  0.37760  0.97660  0.92330  1.0000 -0.2556757937
N   N20       1.0  0.19810  0.57410  0.01140  1.0000 0.0920062217
O   O1        1.0  0.55150  0.12640  0.47890  1.0000 -0.5893951292
O   O2        1.0  0.45480  0.14190  0.54030  1.0000 -0.5844593878
O   O3        1.0  0.10380  0.32360  0.38131  1.0000 -0.5603172715
O   O4        1.0  0.95370  0.32220  0.40360  1.0000 -0.5474891002
O   O5        1.0  0.10530  0.30880  0.26335  1.0000 -0.5893951292
O   O6        1.0  0.18190  0.33333  0.19728  1.0000 -0.5603172715
O   O7        1.0  0.44850  0.12640  0.02110  1.0000 -0.5893951292
O   O8        1.0  0.54520  0.14190  0.95970  1.0000 -0.5844593878
O   O9        1.0  0.89620  0.32360  0.11869  1.0000 -0.5603172715
O   O10       1.0  0.04630  0.32220  0.09640  1.0000 -0.5474891002
O   O11       1.0  0.89470  0.30880  0.23665  1.0000 -0.5893951292
O   O12       1.0  0.81810  0.33333  0.30272  1.0000 -0.5603172715
O   O13       1.0  0.44850  0.87360  0.52110  1.0000 -0.5893951292
O   O14       1.0  0.54520  0.85810  0.45970  1.0000 -0.5844593878
O   O15       1.0  0.89620  0.67640  0.61869  1.0000 -0.5603172715
O   O16       1.0  0.04630  0.67780  0.59640  1.0000 -0.5474891002
O   O17       1.0  0.89470  0.69120  0.73665  1.0000 -0.5893951292
O   O18       1.0  0.81810  0.66667  0.80272  1.0000 -0.5603172715
O   O19       1.0  0.55150  0.87360  0.97890  1.0000 -0.5893951292
O   O20       1.0  0.45480  0.85810  0.04030  1.0000 -0.5844593878
O   O21       1.0  0.10380  0.67640  0.88131  1.0000 -0.5603172715
O   O22       1.0  0.95370  0.67780  0.90360  1.0000 -0.5474891002
O   O23       1.0  0.10530  0.69120  0.76335  1.0000 -0.5893951292
O   O24       1.0  0.18190  0.66667  0.69728  1.0000 -0.5603172715
