# DDEC6 charges by PACMAN v1.1 (https://github.com/mtap-research/PACMAN-charge/)
data_2019[CuYb][tbo]3[ASR]1
_chemical_formula_sum              "Yb12 Cu24 H48 C96 N48 O104"
_cell_length_a       30.2104
_cell_length_b       30.2104
_cell_length_c       30.2104
_cell_angle_alpha    60
_cell_angle_beta     60
_cell_angle_gamma    60

_symmetry_space_group_name_H-M    "P 1"
_symmetry_Int_Tables_number       1

loop_
  _symmetry_equiv_pos_as_xyz
  'x, y, z'

loop_
  _atom_site_type_symbol
  _atom_site_label
  _atom_site_symmetry_multiplicity
  _atom_site_fract_x
  _atom_site_fract_y
  _atom_site_fract_z
  _atom_site_occupancy
  _atom_site_charge
Yb  Yb1       1.0  0.50000  0.06912  0.93088  1.0000 2.0777373629
Yb  Yb2       1.0  0.93088  0.50000  0.50000  1.0000 2.0777373629
Yb  Yb3       1.0  0.06912  0.50000  0.50000  1.0000 2.0777373629
Yb  Yb4       1.0  0.50000  0.93088  0.06912  1.0000 2.0777373629
Yb  Yb5       1.0  0.06912  0.93088  0.50000  1.0000 2.0777373629
Yb  Yb6       1.0  0.50000  0.50000  0.93088  1.0000 2.0777373629
Yb  Yb7       1.0  0.50000  0.50000  0.06912  1.0000 2.0777373629
Yb  Yb8       1.0  0.93088  0.06912  0.50000  1.0000 2.0777373629
Yb  Yb9       1.0  0.93088  0.50000  0.06912  1.0000 2.0777373629
Yb  Yb10      1.0  0.50000  0.93088  0.50000  1.0000 2.0777373629
Yb  Yb11      1.0  0.50000  0.06912  0.50000  1.0000 2.0777373629
Yb  Yb12      1.0  0.06912  0.50000  0.93088  1.0000 2.0777373629
Cu  Cu1       1.0  0.52997  0.19343  0.08317  1.0000 0.7726536474
Cu  Cu2       1.0  0.08317  0.19343  0.52997  1.0000 0.7726536474
Cu  Cu3       1.0  0.19343  0.52997  0.19343  1.0000 0.7726536474
Cu  Cu4       1.0  0.19343  0.08317  0.19343  1.0000 0.7726536474
Cu  Cu5       1.0  0.19343  0.08317  0.52997  1.0000 0.7726536474
Cu  Cu6       1.0  0.19343  0.52997  0.08317  1.0000 0.7726536474
Cu  Cu7       1.0  0.52997  0.19343  0.19343  1.0000 0.7726536474
Cu  Cu8       1.0  0.08317  0.19343  0.19343  1.0000 0.7726536474
Cu  Cu9       1.0  0.08317  0.52997  0.19343  1.0000 0.7726536474
Cu  Cu10      1.0  0.52997  0.08317  0.19343  1.0000 0.7726536474
Cu  Cu11      1.0  0.19343  0.19343  0.52997  1.0000 0.7778355397
Cu  Cu12      1.0  0.19343  0.19343  0.08317  1.0000 0.7726536474
Cu  Cu13      1.0  0.47003  0.80657  0.91683  1.0000 0.7726536474
Cu  Cu14      1.0  0.91683  0.80657  0.47003  1.0000 0.7726536474
Cu  Cu15      1.0  0.80657  0.91683  0.80657  1.0000 0.7726536474
Cu  Cu16      1.0  0.80657  0.47003  0.80657  1.0000 0.7726536474
Cu  Cu17      1.0  0.80657  0.80657  0.47003  1.0000 0.7726536474
Cu  Cu18      1.0  0.80657  0.80657  0.91683  1.0000 0.7778355397
Cu  Cu19      1.0  0.47003  0.91683  0.80657  1.0000 0.7726536474
Cu  Cu20      1.0  0.91683  0.47003  0.80657  1.0000 0.7726536474
Cu  Cu21      1.0  0.91683  0.80657  0.80657  1.0000 0.7726536474
Cu  Cu22      1.0  0.47003  0.80657  0.80657  1.0000 0.7726536474
Cu  Cu23      1.0  0.80657  0.91683  0.47003  1.0000 0.7726536474
Cu  Cu24      1.0  0.80657  0.47003  0.91683  1.0000 0.7726536474
H   H1        1.0  0.52443  0.14297  0.01377  1.0000 0.1107701431
H   H2        1.0  0.01377  0.31883  0.52443  1.0000 0.1107701431
H   H3        1.0  0.14297  0.52443  0.31883  1.0000 0.1107701431
H   H4        1.0  0.31883  0.01377  0.14297  1.0000 0.1107701431
H   H5        1.0  0.14297  0.01377  0.52443  1.0000 0.1107701431
H   H6        1.0  0.31883  0.52443  0.01377  1.0000 0.1107701431
H   H7        1.0  0.52443  0.31883  0.14297  1.0000 0.1107701431
H   H8        1.0  0.01377  0.14297  0.31883  1.0000 0.1107701431
H   H9        1.0  0.01377  0.52443  0.14297  1.0000 0.1107701431
H   H10       1.0  0.52443  0.01377  0.31883  1.0000 0.1107701431
H   H11       1.0  0.31883  0.14297  0.52443  1.0000 0.1107701431
H   H12       1.0  0.14297  0.31883  0.01377  1.0000 0.1107701431
H   H13       1.0  0.47557  0.68117  0.98623  1.0000 0.1107701431
H   H14       1.0  0.98623  0.85703  0.47557  1.0000 0.1107701431
H   H15       1.0  0.85703  0.98623  0.68117  1.0000 0.1107701431
H   H16       1.0  0.68117  0.47557  0.85703  1.0000 0.1107701431
H   H17       1.0  0.85703  0.68117  0.47557  1.0000 0.1107701431
H   H18       1.0  0.68117  0.85703  0.98623  1.0000 0.1107701431
H   H19       1.0  0.47557  0.98623  0.85703  1.0000 0.1107701431
H   H20       1.0  0.98623  0.47557  0.68117  1.0000 0.1107701431
H   H21       1.0  0.98623  0.68117  0.85703  1.0000 0.1107701431
H   H22       1.0  0.47557  0.85703  0.68117  1.0000 0.1107701431
H   H23       1.0  0.68117  0.98623  0.47557  1.0000 0.1107701431
H   H24       1.0  0.85703  0.47557  0.98623  1.0000 0.1107701431
H   H25       1.0  0.47557  0.85703  0.98623  1.0000 0.1107701431
H   H26       1.0  0.98623  0.68117  0.47557  1.0000 0.1107701431
H   H27       1.0  0.85703  0.47557  0.68117  1.0000 0.1107701431
H   H28       1.0  0.68117  0.98623  0.85703  1.0000 0.1107701431
H   H29       1.0  0.85703  0.98623  0.47557  1.0000 0.1107701431
H   H30       1.0  0.68117  0.47557  0.98623  1.0000 0.1107701431
H   H31       1.0  0.47557  0.68117  0.85703  1.0000 0.1107701431
H   H32       1.0  0.98623  0.85703  0.68117  1.0000 0.1107701431
H   H33       1.0  0.98623  0.47557  0.85703  1.0000 0.1107701431
H   H34       1.0  0.47557  0.98623  0.68117  1.0000 0.1107701431
H   H35       1.0  0.68117  0.85703  0.47557  1.0000 0.1107701431
H   H36       1.0  0.85703  0.68117  0.98623  1.0000 0.1107701431
H   H37       1.0  0.52443  0.31883  0.01377  1.0000 0.1107701431
H   H38       1.0  0.01377  0.14297  0.52443  1.0000 0.1107701431
H   H39       1.0  0.14297  0.01377  0.31883  1.0000 0.1107701431
H   H40       1.0  0.31883  0.52443  0.14297  1.0000 0.1107701431
H   H41       1.0  0.14297  0.31883  0.52443  1.0000 0.1107701431
H   H42       1.0  0.31883  0.14297  0.01377  1.0000 0.1107701431
H   H43       1.0  0.52443  0.01377  0.14297  1.0000 0.1107701431
H   H44       1.0  0.01377  0.52443  0.31883  1.0000 0.1107701431
H   H45       1.0  0.01377  0.31883  0.14297  1.0000 0.1107701431
H   H46       1.0  0.52443  0.14297  0.31883  1.0000 0.1107701431
H   H47       1.0  0.31883  0.01377  0.52443  1.0000 0.1107701431
H   H48       1.0  0.14297  0.52443  0.01377  1.0000 0.1107701431
C   C1        1.0  0.52410  0.11950  0.04870  1.0000 0.0660928337
C   C2        1.0  0.04870  0.30770  0.52410  1.0000 0.0660928337
C   C3        1.0  0.11950  0.52410  0.30770  1.0000 0.0660928337
C   C4        1.0  0.30770  0.04870  0.11950  1.0000 0.0660928337
C   C5        1.0  0.11950  0.04870  0.52410  1.0000 0.0631582059
C   C6        1.0  0.30770  0.52410  0.04870  1.0000 0.0660928337
C   C7        1.0  0.52410  0.30770  0.11950  1.0000 0.0660928337
C   C8        1.0  0.04870  0.11950  0.30770  1.0000 0.0660928337
C   C9        1.0  0.04870  0.52410  0.11950  1.0000 0.0660928337
C   C10       1.0  0.52410  0.04870  0.30770  1.0000 0.0660928337
C   C11       1.0  0.30770  0.11950  0.52410  1.0000 0.0660928337
C   C12       1.0  0.11950  0.30770  0.04870  1.0000 0.0660928337
C   C13       1.0  0.47590  0.69230  0.95130  1.0000 0.0660928337
C   C14       1.0  0.95130  0.88050  0.47590  1.0000 0.0660928337
C   C15       1.0  0.88050  0.95130  0.69230  1.0000 0.0660928337
C   C16       1.0  0.69230  0.47590  0.88050  1.0000 0.0660928337
C   C17       1.0  0.88050  0.69230  0.47590  1.0000 0.0660928337
C   C18       1.0  0.69230  0.88050  0.95130  1.0000 0.0660928337
C   C19       1.0  0.47590  0.95130  0.88050  1.0000 0.0660928337
C   C20       1.0  0.95130  0.47590  0.69230  1.0000 0.0660928337
C   C21       1.0  0.95130  0.69230  0.88050  1.0000 0.0660928337
C   C22       1.0  0.47590  0.88050  0.69230  1.0000 0.0660928337
C   C23       1.0  0.69230  0.95130  0.47590  1.0000 0.0660928337
C   C24       1.0  0.88050  0.47590  0.95130  1.0000 0.0660928337
C   C25       1.0  0.47590  0.88050  0.95130  1.0000 0.0660928337
C   C26       1.0  0.95130  0.69230  0.47590  1.0000 0.0660928337
C   C27       1.0  0.88050  0.47590  0.69230  1.0000 0.0660928337
C   C28       1.0  0.69230  0.95130  0.88050  1.0000 0.0660928337
C   C29       1.0  0.88050  0.95130  0.47590  1.0000 0.0660928337
C   C30       1.0  0.69230  0.47590  0.95130  1.0000 0.0660928337
C   C31       1.0  0.47590  0.69230  0.88050  1.0000 0.0660928337
C   C32       1.0  0.95130  0.88050  0.69230  1.0000 0.0660928337
C   C33       1.0  0.95130  0.47590  0.88050  1.0000 0.0660928337
C   C34       1.0  0.47590  0.95130  0.69230  1.0000 0.0660928337
C   C35       1.0  0.69230  0.88050  0.47590  1.0000 0.0660928337
C   C36       1.0  0.88050  0.69230  0.95130  1.0000 0.0660928337
C   C37       1.0  0.52410  0.30770  0.04870  1.0000 0.0660928337
C   C38       1.0  0.04870  0.11950  0.52410  1.0000 0.0660928337
C   C39       1.0  0.11950  0.04870  0.30770  1.0000 0.0660928337
C   C40       1.0  0.30770  0.52410  0.11950  1.0000 0.0660928337
C   C41       1.0  0.11950  0.30770  0.52410  1.0000 0.0660928337
C   C42       1.0  0.30770  0.11950  0.04870  1.0000 0.0660928337
C   C43       1.0  0.52410  0.04870  0.11950  1.0000 0.0660928337
C   C44       1.0  0.04870  0.52410  0.30770  1.0000 0.0660928337
C   C45       1.0  0.04870  0.30770  0.11950  1.0000 0.0660928337
C   C46       1.0  0.52410  0.11950  0.30770  1.0000 0.0660928337
C   C47       1.0  0.30770  0.04870  0.52410  1.0000 0.0631582059
C   C48       1.0  0.11950  0.52410  0.04870  1.0000 0.0660928337
C   C49       1.0  0.51640  0.04380  0.04380  1.0000 0.6972016685
C   C50       1.0  0.52060  0.07000  0.07000  1.0000 -0.1930730398
C   C51       1.0  0.04380  0.39600  0.51640  1.0000 0.6972016685
C   C52       1.0  0.07000  0.33940  0.52060  1.0000 -0.1930730398
C   C53       1.0  0.04380  0.51640  0.39600  1.0000 0.6972016685
C   C54       1.0  0.07000  0.52060  0.33940  1.0000 -0.1930730398
C   C55       1.0  0.39600  0.04380  0.04380  1.0000 0.6972016685
C   C56       1.0  0.33940  0.07000  0.07000  1.0000 -0.1930730398
C   C57       1.0  0.04380  0.04380  0.51640  1.0000 0.6972016685
C   C58       1.0  0.07000  0.07000  0.52060  1.0000 -0.1930730398
C   C59       1.0  0.39600  0.51640  0.04380  1.0000 0.6972016685
C   C60       1.0  0.33940  0.52060  0.07000  1.0000 -0.1930730398
C   C61       1.0  0.51640  0.39600  0.04380  1.0000 0.6972016685
C   C62       1.0  0.52060  0.33940  0.07000  1.0000 -0.1930730398
C   C63       1.0  0.04380  0.04380  0.39600  1.0000 0.6972016685
C   C64       1.0  0.07000  0.07000  0.33940  1.0000 -0.1930730398
C   C65       1.0  0.04380  0.51640  0.04380  1.0000 0.6972016685
C   C66       1.0  0.07000  0.52060  0.07000  1.0000 -0.1930730398
C   C67       1.0  0.51640  0.04380  0.39600  1.0000 0.6972016685
C   C68       1.0  0.52060  0.07000  0.33940  1.0000 -0.1930730398
C   C69       1.0  0.39600  0.04380  0.51640  1.0000 0.6972016685
C   C70       1.0  0.33940  0.07000  0.52060  1.0000 -0.1930730398
C   C71       1.0  0.04380  0.39600  0.04380  1.0000 0.6972016685
C   C72       1.0  0.07000  0.33940  0.07000  1.0000 -0.1930730398
C   C73       1.0  0.48360  0.60400  0.95620  1.0000 0.6972016685
C   C74       1.0  0.47940  0.66060  0.93000  1.0000 -0.1930730398
C   C75       1.0  0.95620  0.95620  0.48360  1.0000 0.6972016685
C   C76       1.0  0.93000  0.93000  0.47940  1.0000 -0.1930730398
C   C77       1.0  0.95620  0.95620  0.60400  1.0000 0.6972016685
C   C78       1.0  0.93000  0.93000  0.66060  1.0000 -0.1930730398
C   C79       1.0  0.60400  0.48360  0.95620  1.0000 0.6972016685
C   C80       1.0  0.66060  0.47940  0.93000  1.0000 -0.1930730398
C   C81       1.0  0.95620  0.60400  0.48360  1.0000 0.6972016685
C   C82       1.0  0.93000  0.66060  0.47940  1.0000 -0.1930730398
C   C83       1.0  0.60400  0.95620  0.95620  1.0000 0.6972016685
C   C84       1.0  0.66060  0.93000  0.93000  1.0000 -0.1930730398
C   C85       1.0  0.48360  0.95620  0.95620  1.0000 0.6972016685
C   C86       1.0  0.47940  0.93000  0.93000  1.0000 -0.1930730398
C   C87       1.0  0.95620  0.48360  0.60400  1.0000 0.6972016685
C   C88       1.0  0.93000  0.47940  0.66060  1.0000 -0.1930730398
C   C89       1.0  0.95620  0.60400  0.95620  1.0000 0.6972016685
C   C90       1.0  0.93000  0.66060  0.93000  1.0000 -0.1930730398
C   C91       1.0  0.48360  0.95620  0.60400  1.0000 0.6972016685
C   C92       1.0  0.47940  0.93000  0.66060  1.0000 -0.1930730398
C   C93       1.0  0.60400  0.95620  0.48360  1.0000 0.6972016685
C   C94       1.0  0.66060  0.93000  0.47940  1.0000 -0.1930730398
C   C95       1.0  0.95620  0.48360  0.95620  1.0000 0.6972016685
C   C96       1.0  0.93000  0.47940  0.93000  1.0000 -0.1930730398
N   N1        1.0  0.52670  0.12990  0.08370  1.0000 -0.1930730398
N   N2        1.0  0.08370  0.25970  0.52670  1.0000 -0.1930730398
N   N3        1.0  0.12990  0.52670  0.25970  1.0000 -0.1930730398
N   N4        1.0  0.25970  0.08370  0.12990  1.0000 -0.1930730398
N   N5        1.0  0.12990  0.08370  0.52670  1.0000 -0.1930730398
N   N6        1.0  0.25970  0.52670  0.08370  1.0000 -0.1930730398
N   N7        1.0  0.52670  0.25970  0.12990  1.0000 -0.1930730398
N   N8        1.0  0.08370  0.12990  0.25970  1.0000 -0.1930730398
N   N9        1.0  0.08370  0.52670  0.12990  1.0000 -0.1930730398
N   N10       1.0  0.52670  0.08370  0.25970  1.0000 -0.1930730398
N   N11       1.0  0.25970  0.12990  0.52670  1.0000 -0.1930730398
N   N12       1.0  0.12990  0.25970  0.08370  1.0000 -0.1930730398
N   N13       1.0  0.47330  0.74030  0.91630  1.0000 -0.1930730398
N   N14       1.0  0.91630  0.87010  0.47330  1.0000 -0.1930730398
N   N15       1.0  0.87010  0.91630  0.74030  1.0000 -0.1930730398
N   N16       1.0  0.74030  0.47330  0.87010  1.0000 -0.1930730398
N   N17       1.0  0.87010  0.74030  0.47330  1.0000 -0.1930730398
N   N18       1.0  0.74030  0.87010  0.91630  1.0000 -0.1930730398
N   N19       1.0  0.47330  0.91630  0.87010  1.0000 -0.1930730398
N   N20       1.0  0.91630  0.47330  0.74030  1.0000 -0.1930730398
N   N21       1.0  0.91630  0.74030  0.87010  1.0000 -0.1930730398
N   N22       1.0  0.47330  0.87010  0.74030  1.0000 -0.1930730398
N   N23       1.0  0.74030  0.91630  0.47330  1.0000 -0.1930730398
N   N24       1.0  0.87010  0.47330  0.91630  1.0000 -0.1930730398
N   N25       1.0  0.47330  0.87010  0.91630  1.0000 -0.1930730398
N   N26       1.0  0.91630  0.74030  0.47330  1.0000 -0.1930730398
N   N27       1.0  0.87010  0.47330  0.74030  1.0000 -0.1930730398
N   N28       1.0  0.74030  0.91630  0.87010  1.0000 -0.1930730398
N   N29       1.0  0.87010  0.91630  0.47330  1.0000 -0.1930730398
N   N30       1.0  0.74030  0.47330  0.91630  1.0000 -0.1930730398
N   N31       1.0  0.47330  0.74030  0.87010  1.0000 -0.1930730398
N   N32       1.0  0.91630  0.87010  0.74030  1.0000 -0.1930730398
N   N33       1.0  0.91630  0.47330  0.87010  1.0000 -0.1930730398
N   N34       1.0  0.47330  0.91630  0.74030  1.0000 -0.1930730398
N   N35       1.0  0.74030  0.87010  0.47330  1.0000 -0.1930730398
N   N36       1.0  0.87010  0.74030  0.91630  1.0000 -0.1930730398
N   N37       1.0  0.52670  0.25970  0.08370  1.0000 -0.1930730398
N   N38       1.0  0.08370  0.12990  0.52670  1.0000 -0.1930730398
N   N39       1.0  0.12990  0.08370  0.25970  1.0000 -0.1930730398
N   N40       1.0  0.25970  0.52670  0.12990  1.0000 -0.1930730398
N   N41       1.0  0.12990  0.25970  0.52670  1.0000 -0.1930730398
N   N42       1.0  0.25970  0.12990  0.08370  1.0000 -0.1930730398
N   N43       1.0  0.52670  0.08370  0.12990  1.0000 -0.1930730398
N   N44       1.0  0.08370  0.52670  0.25970  1.0000 -0.1930730398
N   N45       1.0  0.08370  0.25970  0.12990  1.0000 -0.1930730398
N   N46       1.0  0.52670  0.12990  0.25970  1.0000 -0.1930730398
N   N47       1.0  0.25970  0.08370  0.52670  1.0000 -0.1930730398
N   N48       1.0  0.12990  0.52670  0.08370  1.0000 -0.1930730398
O   O1        1.0  0.51180  0.06940  0.99640  1.0000 -0.7549289835
O   O2        1.0  0.99640  0.42240  0.51180  1.0000 -0.7549289835
O   O3        1.0  0.06940  0.51180  0.42240  1.0000 -0.7557402931
O   O4        1.0  0.42240  0.99640  0.06940  1.0000 -0.7557402931
O   O5        1.0  0.06940  0.99640  0.51180  1.0000 -0.7557402931
O   O6        1.0  0.42240  0.51180  0.99640  1.0000 -0.7549289835
O   O7        1.0  0.51180  0.42240  0.06940  1.0000 -0.7549289835
O   O8        1.0  0.99640  0.06940  0.42240  1.0000 -0.7549289835
O   O9        1.0  0.99640  0.51180  0.06940  1.0000 -0.7549289835
O   O10       1.0  0.51180  0.99640  0.42240  1.0000 -0.7549289835
O   O11       1.0  0.42240  0.06940  0.51180  1.0000 -0.7557402931
O   O12       1.0  0.06940  0.42240  0.99640  1.0000 -0.7557402931
O   O13       1.0  0.48820  0.57760  0.00360  1.0000 -0.7549289835
O   O14       1.0  0.00360  0.93060  0.48820  1.0000 -0.7557402931
O   O15       1.0  0.93060  0.00360  0.57760  1.0000 -0.7549289835
O   O16       1.0  0.57760  0.48820  0.93060  1.0000 -0.7549289835
O   O17       1.0  0.93060  0.57760  0.48820  1.0000 -0.7549289835
O   O18       1.0  0.57760  0.93060  0.00360  1.0000 -0.7549289835
O   O19       1.0  0.48820  0.00360  0.93060  1.0000 -0.7549289835
O   O20       1.0  0.00360  0.48820  0.57760  1.0000 -0.7557402931
O   O21       1.0  0.00360  0.57760  0.93060  1.0000 -0.7557402931
O   O22       1.0  0.48820  0.93060  0.57760  1.0000 -0.7549289835
O   O23       1.0  0.57760  0.00360  0.48820  1.0000 -0.7549289835
O   O24       1.0  0.93060  0.48820  0.00360  1.0000 -0.7549289835
O   O25       1.0  0.48820  0.93060  0.00360  1.0000 -0.7549289835
O   O26       1.0  0.00360  0.57760  0.48820  1.0000 -0.7557402931
O   O27       1.0  0.93060  0.48820  0.57760  1.0000 -0.7549289835
O   O28       1.0  0.57760  0.00360  0.93060  1.0000 -0.7549289835
O   O29       1.0  0.93060  0.00360  0.48820  1.0000 -0.7549289835
O   O30       1.0  0.57760  0.48820  0.00360  1.0000 -0.7549289835
O   O31       1.0  0.48820  0.57760  0.93060  1.0000 -0.7549289835
O   O32       1.0  0.00360  0.93060  0.57760  1.0000 -0.7557402931
O   O33       1.0  0.00360  0.48820  0.93060  1.0000 -0.7557402931
O   O34       1.0  0.48820  0.00360  0.57760  1.0000 -0.7549289835
O   O35       1.0  0.57760  0.93060  0.48820  1.0000 -0.7549289835
O   O36       1.0  0.93060  0.57760  0.00360  1.0000 -0.7549289835
O   O37       1.0  0.51180  0.42240  0.99640  1.0000 -0.7549289835
O   O38       1.0  0.99640  0.06940  0.51180  1.0000 -0.7549289835
O   O39       1.0  0.06940  0.99640  0.42240  1.0000 -0.7557402931
O   O40       1.0  0.42240  0.51180  0.06940  1.0000 -0.7557402931
O   O41       1.0  0.06940  0.42240  0.51180  1.0000 -0.7557402931
O   O42       1.0  0.42240  0.06940  0.99640  1.0000 -0.7549289835
O   O43       1.0  0.51180  0.99640  0.06940  1.0000 -0.7557402931
O   O44       1.0  0.99640  0.51180  0.42240  1.0000 -0.7549289835
O   O45       1.0  0.99640  0.42240  0.06940  1.0000 -0.7549289835
O   O46       1.0  0.51180  0.06940  0.42240  1.0000 -0.7549289835
O   O47       1.0  0.42240  0.99640  0.51180  1.0000 -0.7557402931
O   O48       1.0  0.06940  0.51180  0.99640  1.0000 -0.7557402931
O   O49       1.0  0.50420  0.24060  0.01460  1.0000 -0.2371635037
O   O50       1.0  0.56420  0.21900  0.99780  1.0000 -0.2341058762
O   O51       1.0  0.01460  0.24060  0.50420  1.0000 -0.2371635037
O   O52       1.0  0.99780  0.21900  0.56420  1.0000 -0.2371635037
O   O53       1.0  0.24060  0.50420  0.24060  1.0000 -0.2371635037
O   O54       1.0  0.21900  0.56420  0.21900  1.0000 -0.2371635037
O   O55       1.0  0.24060  0.01460  0.24060  1.0000 -0.2371635037
O   O56       1.0  0.21900  0.99780  0.21900  1.0000 -0.2371635037
O   O57       1.0  0.24060  0.01460  0.50420  1.0000 -0.2341058762
O   O58       1.0  0.21900  0.99780  0.56420  1.0000 -0.2371635037
O   O59       1.0  0.24060  0.50420  0.01460  1.0000 -0.2371635037
O   O60       1.0  0.21900  0.56420  0.99780  1.0000 -0.2341058762
O   O61       1.0  0.50420  0.24060  0.24060  1.0000 -0.2371635037
O   O62       1.0  0.56420  0.21900  0.21900  1.0000 -0.2341058762
O   O63       1.0  0.01460  0.24060  0.24060  1.0000 -0.2371635037
O   O64       1.0  0.99780  0.21900  0.21900  1.0000 -0.2371635037
O   O65       1.0  0.01460  0.50420  0.24060  1.0000 -0.2371635037
O   O66       1.0  0.99780  0.56420  0.21900  1.0000 -0.2371635037
O   O67       1.0  0.50420  0.01460  0.24060  1.0000 -0.2371635037
O   O68       1.0  0.56420  0.99780  0.21900  1.0000 -0.2371635037
O   O69       1.0  0.24060  0.24060  0.50420  1.0000 -0.2371635037
O   O70       1.0  0.21900  0.21900  0.56420  1.0000 -0.2371635037
O   O71       1.0  0.24060  0.24060  0.01460  1.0000 -0.2371635037
O   O72       1.0  0.21900  0.21900  0.99780  1.0000 -0.2341058762
O   O73       1.0  0.49580  0.75940  0.98540  1.0000 -0.2371635037
O   O74       1.0  0.43580  0.78100  0.00220  1.0000 -0.2371635037
O   O75       1.0  0.98540  0.75940  0.49580  1.0000 -0.2371635037
O   O76       1.0  0.00220  0.78100  0.43580  1.0000 -0.2341058762
O   O77       1.0  0.75940  0.98540  0.75940  1.0000 -0.2371635037
O   O78       1.0  0.78100  0.00220  0.78100  1.0000 -0.2341058762
O   O79       1.0  0.75940  0.49580  0.75940  1.0000 -0.2371635037
O   O80       1.0  0.78100  0.43580  0.78100  1.0000 -0.2341058762
O   O81       1.0  0.75940  0.75940  0.49580  1.0000 -0.2371635037
O   O82       1.0  0.78100  0.78100  0.43580  1.0000 -0.2371635037
O   O83       1.0  0.75940  0.75940  0.98540  1.0000 -0.2371635037
O   O84       1.0  0.78100  0.78100  0.00220  1.0000 -0.2371635037
O   O85       1.0  0.49580  0.98540  0.75940  1.0000 -0.2371635037
O   O86       1.0  0.43580  0.00220  0.78100  1.0000 -0.2341058762
O   O87       1.0  0.98540  0.49580  0.75940  1.0000 -0.2371635037
O   O88       1.0  0.00220  0.43580  0.78100  1.0000 -0.2341058762
O   O89       1.0  0.98540  0.75940  0.75940  1.0000 -0.2371635037
O   O90       1.0  0.00220  0.78100  0.78100  1.0000 -0.2341058762
O   O91       1.0  0.49580  0.75940  0.75940  1.0000 -0.2371635037
O   O92       1.0  0.43580  0.78100  0.78100  1.0000 -0.2341058762
O   O93       1.0  0.75940  0.98540  0.49580  1.0000 -0.2371635037
O   O94       1.0  0.78100  0.00220  0.43580  1.0000 -0.2341058762
O   O95       1.0  0.75940  0.49580  0.98540  1.0000 -0.2371635037
O   O96       1.0  0.78100  0.43580  0.00220  1.0000 -0.2341058762
O   O97       1.0  0.51220  0.16260  0.16260  1.0000 -0.9013262026
O   O98       1.0  0.16260  0.16260  0.51220  1.0000 -0.9013262026
O   O99       1.0  0.16260  0.51220  0.16260  1.0000 -0.9013262026
O   O100      1.0  0.16260  0.16260  0.16260  1.0000 -0.9013262026
O   O101      1.0  0.48780  0.83740  0.83740  1.0000 -0.9013262026
O   O102      1.0  0.83740  0.83740  0.48780  1.0000 -0.9013262026
O   O103      1.0  0.83740  0.83740  0.83740  1.0000 -0.9013262026
O   O104      1.0  0.83740  0.48780  0.83740  1.0000 -0.9013262026
