# DDEC6 charges by PACMAN v1.1 (https://github.com/mtap-research/PACMAN-charge/)
data_2019[Eu][nan]3[ASR]6
_chemical_formula_sum              "Eu7 H110 C220 O42"
_cell_length_a       15.9745
_cell_length_b       16.4434
_cell_length_c       23.8952
_cell_angle_alpha    99.146
_cell_angle_beta     108.266
_cell_angle_gamma    90.31

_symmetry_space_group_name_H-M    "P 1"
_symmetry_Int_Tables_number       1

loop_
  _symmetry_equiv_pos_as_xyz
  'x, y, z'

loop_
  _atom_site_type_symbol
  _atom_site_label
  _atom_site_symmetry_multiplicity
  _atom_site_fract_x
  _atom_site_fract_y
  _atom_site_fract_z
  _atom_site_occupancy
  _atom_site_charge
Eu  Eu1       1.0  0.44370  0.59532  0.84707  1.0000 2.0820968717
Eu  Eu2       1.0  0.55034  0.54674  0.66163  1.0000 2.1349669068
Eu  Eu3       1.0  0.47131  0.61376  0.48653  1.0000 2.2035464614
Eu  Eu4       1.0  0.55630  0.40468  0.15293  1.0000 2.0820968717
Eu  Eu5       1.0  0.44966  0.45326  0.33837  1.0000 2.1349669068
Eu  Eu6       1.0  0.52869  0.38624  0.51347  1.0000 2.2035464614
Eu  Eu7       1.0  0.50000  0.50000  0.00000  1.0000 2.0077741712
H   H1        1.0  0.64320  0.72330  0.91320  1.0000 0.1199188419
H   H2        1.0  0.80640  0.59750  0.02790  1.0000 0.1199188419
H   H3        1.0  0.75800  0.81430  0.92240  1.0000 0.1118611341
H   H4        1.0  0.92210  0.68870  0.03770  1.0000 0.1118611341
H   H5        1.0  0.66610  0.40880  0.88080  1.0000 0.1372236616
H   H6        1.0  0.56990  0.32510  0.70550  1.0000 0.1291142657
H   H7        1.0  0.75500  0.29940  0.89180  1.0000 0.1118611341
H   H8        1.0  0.65110  0.20790  0.71940  1.0000 0.1199188419
H   H9        1.0  0.01030  0.72690  0.97890  1.0000 0.1199188419
H   H10       1.0  0.80330  0.91700  0.00300  1.0000 0.1118611341
H   H11       1.0  0.25980  0.73400  0.53640  1.0000 0.1199188419
H   H12       1.0  0.38550  0.76190  0.70990  1.0000 0.1372236616
H   H13       1.0  0.65220  0.08710  0.80060  1.0000 0.1291142657
H   H14       1.0  0.79810  0.05400  0.01020  1.0000 0.1118611341
H   H15       1.0  0.14410  0.80360  0.55600  1.0000 0.1291142657
H   H16       1.0  0.27840  0.84330  0.72750  1.0000 0.1199188419
H   H17       1.0  0.87510  0.28900  0.82920  1.0000 0.1199188419
H   H18       1.0  0.09870  0.70610  0.90670  1.0000 0.1199188419
H   H19       1.0  0.25190  0.84730  0.05650  1.0000 0.1199188419
H   H20       1.0  0.31260  0.71860  0.40120  1.0000 0.1199188419
H   H21       1.0  0.15010  0.55430  0.27000  1.0000 0.1291142657
H   H22       1.0  0.02190  0.28810  0.84550  1.0000 0.1118611341
H   H23       1.0  0.21800  0.63010  0.90320  1.0000 0.1372236616
H   H24       1.0  0.36850  0.77050  0.05130  1.0000 0.1291142657
H   H25       1.0  0.19370  0.79920  0.40130  1.0000 0.1199188419
H   H26       1.0  0.03300  0.63470  0.27190  1.0000 0.1199188419
H   H27       1.0  0.86790  0.89590  0.84270  1.0000 0.1118611341
H   H28       1.0  0.74550  0.87780  0.73880  1.0000 0.1199188419
H   H29       1.0  0.63560  0.96790  0.86370  1.0000 0.1199188419
H   H30       1.0  0.04630  0.78250  0.64830  1.0000 0.1199188419
H   H31       1.0  0.01070  0.89450  0.85160  1.0000 0.1118611341
H   H32       1.0  0.67660  0.75010  0.72820  1.0000 0.1199188419
H   H33       1.0  0.56160  0.84220  0.84920  1.0000 0.1291142657
H   H34       1.0  0.25560  0.98380  0.65460  1.0000 0.1199188419
H   H35       1.0  0.22400  0.08590  0.84740  1.0000 0.1199188419
H   H36       1.0  0.25060  0.12020  0.64980  1.0000 0.1199188419
H   H37       1.0  0.95920  0.68290  0.35480  1.0000 0.1291142657
H   H38       1.0  0.28200  0.99340  0.91340  1.0000 0.1199188419
H   H39       1.0  0.08510  0.86010  0.78240  1.0000 0.1118611341
H   H40       1.0  0.10320  0.28860  0.78300  1.0000 0.1118611341
H   H41       1.0  0.28840  0.20410  0.91300  1.0000 0.1199188419
H   H42       1.0  0.86350  0.98770  0.68530  1.0000 0.1118611341
H   H43       1.0  0.81490  0.88980  0.58510  1.0000 0.1199188419
H   H44       1.0  0.94050  0.75710  0.70910  1.0000 0.1199188419
H   H45       1.0  0.13740  0.87420  0.31250  1.0000 0.1118611341
H   H46       1.0  0.36860  0.88460  0.91540  1.0000 0.1199188419
H   H47       1.0  0.17370  0.74920  0.78510  1.0000 0.1199188419
H   H48       1.0  0.19950  0.39610  0.78890  1.0000 0.1199188419
H   H49       1.0  0.38390  0.31070  0.91750  1.0000 0.1291142657
H   H50       1.0  0.68910  0.80450  0.56080  1.0000 0.1291142657
H   H51       1.0  0.81120  0.67670  0.68750  1.0000 0.1291142657
H   H52       1.0  0.81170  0.80830  0.44390  1.0000 0.1199188419
H   H53       1.0  0.78880  0.64160  0.29660  1.0000 0.1118611341
H   H54       1.0  0.70430  0.73290  0.46380  1.0000 0.1118611341
H   H55       1.0  0.68140  0.56630  0.31650  1.0000 0.1372236616
H   H56       1.0  0.35680  0.27670  0.08680  1.0000 0.1199188419
H   H57       1.0  0.19360  0.40250  0.97210  1.0000 0.1199188419
H   H58       1.0  0.24200  0.18570  0.07760  1.0000 0.1118611341
H   H59       1.0  0.07790  0.31130  0.96230  1.0000 0.1118611341
H   H60       1.0  0.33390  0.59120  0.11920  1.0000 0.1372236616
H   H61       1.0  0.43010  0.67490  0.29450  1.0000 0.1291142657
H   H62       1.0  0.24500  0.70060  0.10820  1.0000 0.1118611341
H   H63       1.0  0.34890  0.79210  0.28060  1.0000 0.1199188419
H   H64       1.0  0.98970  0.27310  0.02110  1.0000 0.1199188419
H   H65       1.0  0.19670  0.08300  0.99700  1.0000 0.1118611341
H   H66       1.0  0.74020  0.26600  0.46360  1.0000 0.1199188419
H   H67       1.0  0.61450  0.23810  0.29010  1.0000 0.1372236616
H   H68       1.0  0.34780  0.91290  0.19940  1.0000 0.1291142657
H   H69       1.0  0.20190  0.94600  0.98980  1.0000 0.1118611341
H   H70       1.0  0.85590  0.19640  0.44400  1.0000 0.1291142657
H   H71       1.0  0.72160  0.15670  0.27250  1.0000 0.1199188419
H   H72       1.0  0.12490  0.71100  0.17080  1.0000 0.1199188419
H   H73       1.0  0.90130  0.29390  0.09330  1.0000 0.1199188419
H   H74       1.0  0.74810  0.15270  0.94350  1.0000 0.1199188419
H   H75       1.0  0.68740  0.28140  0.59880  1.0000 0.1199188419
H   H76       1.0  0.84990  0.44570  0.73000  1.0000 0.1291142657
H   H77       1.0  0.97810  0.71190  0.15450  1.0000 0.1118611341
H   H78       1.0  0.78200  0.36990  0.09680  1.0000 0.1372236616
H   H79       1.0  0.63150  0.22950  0.94870  1.0000 0.1291142657
H   H80       1.0  0.80630  0.20080  0.59870  1.0000 0.1199188419
H   H81       1.0  0.96700  0.36530  0.72810  1.0000 0.1199188419
H   H82       1.0  0.13210  0.10410  0.15730  1.0000 0.1118611341
H   H83       1.0  0.25450  0.12220  0.26120  1.0000 0.1199188419
H   H84       1.0  0.36440  0.03210  0.13630  1.0000 0.1199188419
H   H85       1.0  0.95370  0.21750  0.35170  1.0000 0.1199188419
H   H86       1.0  0.98930  0.10550  0.14840  1.0000 0.1118611341
H   H87       1.0  0.32340  0.24990  0.27180  1.0000 0.1199188419
H   H88       1.0  0.43840  0.15780  0.15080  1.0000 0.1291142657
H   H89       1.0  0.74440  0.01620  0.34540  1.0000 0.1199188419
H   H90       1.0  0.77600  0.91410  0.15260  1.0000 0.1199188419
H   H91       1.0  0.74940  0.87980  0.35020  1.0000 0.1199188419
H   H92       1.0  0.04080  0.31710  0.64520  1.0000 0.1291142657
H   H93       1.0  0.71800  0.00660  0.08660  1.0000 0.1199188419
H   H94       1.0  0.91490  0.13990  0.21760  1.0000 0.1118611341
H   H95       1.0  0.89680  0.71140  0.21700  1.0000 0.1118611341
H   H96       1.0  0.71160  0.79590  0.08700  1.0000 0.1199188419
H   H97       1.0  0.13650  0.01230  0.31470  1.0000 0.1118611341
H   H98       1.0  0.18510  0.11020  0.41490  1.0000 0.1199188419
H   H99       1.0  0.05950  0.24290  0.29090  1.0000 0.1199188419
H   H100      1.0  0.86260  0.12580  0.68750  1.0000 0.1118611341
H   H101      1.0  0.63140  0.11540  0.08460  1.0000 0.1199188419
H   H102      1.0  0.82630  0.25080  0.21490  1.0000 0.1199188419
H   H103      1.0  0.80050  0.60390  0.21110  1.0000 0.1199188419
H   H104      1.0  0.61610  0.68930  0.08250  1.0000 0.1291142657
H   H105      1.0  0.31090  0.19550  0.43920  1.0000 0.1291142657
H   H106      1.0  0.18880  0.32330  0.31250  1.0000 0.1291142657
H   H107      1.0  0.18830  0.19170  0.55610  1.0000 0.1199188419
H   H108      1.0  0.21120  0.35840  0.70340  1.0000 0.1118611341
H   H109      1.0  0.29570  0.26710  0.53620  1.0000 0.1118611341
H   H110      1.0  0.31860  0.43370  0.68350  1.0000 0.1372236616
C   C1        1.0  0.63510  0.59750  0.96830  1.0000 0.6099724888
C   C2        1.0  0.71180  0.65120  0.97150  1.0000 -0.0393989936
C   C3        1.0  0.55620  0.45510  0.78110  1.0000 0.6400437126
C   C4        1.0  0.69910  0.71660  0.93880  1.0000 -0.083123449
C   C5        1.0  0.79600  0.64160  0.00710  1.0000 -0.083123449
C   C6        1.0  0.60890  0.37990  0.79070  1.0000 -0.0161732671
C   C7        1.0  0.76820  0.77100  0.94400  1.0000 -0.1579097896
C   C8        1.0  0.86610  0.69630  0.01260  1.0000 -0.1579097896
C   C9        1.0  0.66410  0.36980  0.84750  1.0000 -0.083123449
C   C10       1.0  0.60540  0.31970  0.74370  1.0000 -0.0907606265
C   C11       1.0  0.85410  0.76170  0.98170  1.0000 0.077940306
C   C12       1.0  0.71530  0.30260  0.85440  1.0000 -0.1579097896
C   C13       1.0  0.65530  0.24880  0.75200  1.0000 -0.1579097896
C   C14       1.0  0.93150  0.82080  0.98730  1.0000 0.0224499558
C   C15       1.0  0.40640  0.68770  0.60920  1.0000 0.6619504064
C   C16       1.0  0.70910  0.24000  0.80710  1.0000 0.0701325982
C   C17       1.0  0.00810  0.78399  0.98370  1.0000 -0.1961987347
C   C18       1.0  0.92830  0.90610  0.99440  1.0000 0.0291150139
C   C19       1.0  0.33610  0.73960  0.62190  1.0000 -0.0393989936
C   C20       1.0  0.76010  0.16420  0.81560  1.0000 0.0224499558
C   C21       1.0  0.08160  0.83260  0.98710  1.0000 0.0224499558
C   C22       1.0  0.00170  0.95471  0.99784  1.0000 0.0019546444
C   C23       1.0  0.85140  0.94780  0.00160  1.0000 -0.1498625607
C   C24       1.0  0.26310  0.75390  0.57570  1.0000 -0.0907606265
C   C25       1.0  0.33830  0.77190  0.67780  1.0000 -0.083123449
C   C26       1.0  0.31720  0.57170  0.33740  1.0000 0.5960850089
C   C27       1.0  0.71310  0.08800  0.80900  1.0000 -0.2062709362
C   C28       1.0  0.85120  0.16540  0.82720  1.0000 0.0224499558
C   C29       1.0  0.07840  0.91790  0.99420  1.0000 0.0291150139
C   C30       1.0  0.16130  0.78630  0.98240  1.0000 0.0701325982
C   C31       1.0  0.84880  0.02960  0.00640  1.0000 -0.1418296889
C   C32       1.0  0.19440  0.79760  0.58740  1.0000 -0.1498625607
C   C33       1.0  0.27280  0.81910  0.68850  1.0000 -0.1498625607
C   C34       1.0  0.24460  0.62900  0.33690  1.0000 -0.0302828798
C   C35       1.0  0.75480  0.01520  0.81450  1.0000 0.0224499558
C   C36       1.0  0.89540  0.09080  0.83170  1.0000 -0.0007986012
C   C37       1.0  0.90260  0.23940  0.83190  1.0000 -0.1418296889
C   C38       1.0  0.15300  0.71980  0.93630  1.0000 -0.1498625607
C   C39       1.0  0.24390  0.80350  0.02510  1.0000 -0.1579097896
C   C40       1.0  0.20020  0.83110  0.64360  1.0000 0.0701325982
C   C41       1.0  0.25670  0.70110  0.37480  1.0000 -0.0993732086
C   C42       1.0  0.15920  0.60360  0.29680  1.0000 -0.083123449
C   C43       1.0  0.84760  0.01570  0.82720  1.0000 0.0224499558
C   C44       1.0  0.70260  0.93470  0.80430  1.0000 0.0701325982
C   C45       1.0  0.98820  0.08980  0.83840  1.0000 -0.0007986012
C   C46       1.0  0.99020  0.23830  0.84020  1.0000 -0.1498625607
C   C47       1.0  0.22490  0.67410  0.93430  1.0000 -0.083123449
C   C48       1.0  0.31390  0.75730  0.02200  1.0000 -0.0993732086
C   C49       1.0  0.12540  0.88100  0.65350  1.0000 0.0291150139
C   C50       1.0  0.18480  0.74990  0.37440  1.0000 -0.1579097896
C   C51       1.0  0.08940  0.65250  0.29750  1.0000 -0.1679867189
C   C52       1.0  0.89680  0.94310  0.83930  1.0000 -0.1418296889
C   C53       1.0  0.71080  0.87010  0.76250  1.0000 -0.1579097896
C   C54       1.0  0.64440  0.92410  0.83660  1.0000 -0.1579097896
C   C55       1.0  0.03160  0.01480  0.84290  1.0000 0.0291150139
C   C56       1.0  0.03550  0.16500  0.84120  1.0000 0.0291150139
C   C57       1.0  0.30540  0.69200  0.97670  1.0000 -0.0007986012
C   C58       1.0  0.04850  0.83980  0.65260  1.0000 -0.1961987347
C   C59       1.0  0.12990  0.96810  0.65840  1.0000 0.0224499558
C   C60       1.0  0.10160  0.72660  0.33540  1.0000 0.077940306
C   C61       1.0  0.98180  0.94290  0.84540  1.0000 -0.1331572116
C   C62       1.0  0.66830  0.79390  0.75540  1.0000 -0.083123449
C   C63       1.0  0.60050  0.84860  0.82800  1.0000 -0.0907606265
C   C64       1.0  0.12130  0.01320  0.84530  1.0000 0.0291150139
C   C65       1.0  0.12620  0.16170  0.84490  1.0000 0.0291150139
C   C66       1.0  0.38390  0.63690  0.97760  1.0000 0.6099724888
C   C67       1.0  0.97550  0.88070  0.65810  1.0000 0.0137531448
C   C68       1.0  0.05460  0.01080  0.66410  1.0000 0.0019546444
C   C69       1.0  0.20500  0.01120  0.65510  1.0000 -0.1418296889
C   C70       1.0  0.02370  0.77590  0.33860  1.0000 0.0224499558
C   C71       1.0  0.61270  0.78270  0.78920  1.0000 -0.0302828798
C   C72       1.0  0.16530  0.08700  0.84600  1.0000 -0.1933528662
C   C73       1.0  0.17330  0.93880  0.84750  1.0000 0.0701325982
C   C74       1.0  0.18390  0.23570  0.84850  1.0000 0.077940306
C   C75       1.0  0.97880  0.96730  0.66640  1.0000 0.0224499558
C   C76       1.0  0.89310  0.83080  0.64850  1.0000 0.077940306
C   C77       1.0  0.05370  0.09690  0.66300  1.0000 0.0019546444
C   C78       1.0  0.20160  0.09260  0.65270  1.0000 -0.1498625607
C   C79       1.0  0.02210  0.85920  0.33190  1.0000 0.0291150139
C   C80       1.0  0.95550  0.73780  0.34980  1.0000 -0.1933528662
C   C81       1.0  0.57290  0.69730  0.78530  1.0000 0.6400437126
C   C82       1.0  0.25990  0.94430  0.88720  1.0000 -0.1579097896
C   C83       1.0  0.14220  0.86530  0.80920  1.0000 -0.1679867189
C   C84       1.0  0.15950  0.29320  0.81080  1.0000 -0.1679867189
C   C85       1.0  0.26970  0.24300  0.88800  1.0000 -0.1418296889
C   C86       1.0  0.90960  0.01460  0.67820  1.0000 -0.1498625607
C   C87       1.0  0.81550  0.84550  0.60500  1.0000 -0.1679867189
C   C88       1.0  0.89020  0.76750  0.67920  1.0000 -0.1679867189
C   C89       1.0  0.12610  0.13840  0.65420  1.0000 0.0224499558
C   C90       1.0  0.09140  0.90280  0.32060  1.0000 -0.1498625607
C   C91       1.0  0.88180  0.77790  0.35390  1.0000 0.0224499558
C   C92       1.0  0.31180  0.87940  0.88810  1.0000 -0.083123449
C   C93       1.0  0.19600  0.79880  0.81050  1.0000 -0.0993732086
C   C94       1.0  0.21760  0.35740  0.81410  1.0000 -0.0993732086
C   C95       1.0  0.32700  0.30680  0.89060  1.0000 -0.083123449
C   C96       1.0  0.73950  0.79530  0.59100  1.0000 -0.0907606265
C   C97       1.0  0.81230  0.71870  0.66590  1.0000 -0.0907606265
C   C98       1.0  0.81090  0.73240  0.36830  1.0000 0.077940306
C   C99       1.0  0.28250  0.80500  0.84920  1.0000 -0.0393989936
C   C100      1.0  0.30180  0.36530  0.85400  1.0000 -0.0161732671
C   C101      1.0  0.36420  0.43440  0.85580  1.0000 0.6339833408
C   C102      1.0  0.73890  0.73150  0.62230  1.0000 -0.0302828798
C   C103      1.0  0.78560  0.75980  0.41840  1.0000 -0.1679867189
C   C104      1.0  0.77180  0.65990  0.33010  1.0000 -0.1498625607
C   C105      1.0  0.33870  0.73480  0.84910  1.0000 0.5567384332
C   C106      1.0  0.65590  0.67650  0.60670  1.0000 0.6400437126
C   C107      1.0  0.72120  0.71460  0.43030  1.0000 -0.0907606265
C   C108      1.0  0.70750  0.61480  0.34210  1.0000 -0.0687927634
C   C109      1.0  0.68220  0.64210  0.39210  1.0000 -0.0393989936
C   C110      1.0  0.61360  0.59270  0.40410  1.0000 0.6339833408
C   C111      1.0  0.36490  0.40250  0.03170  1.0000 0.6099724888
C   C112      1.0  0.28820  0.34880  0.02850  1.0000 -0.0393989936
C   C113      1.0  0.44380  0.54490  0.21890  1.0000 0.6400437126
C   C114      1.0  0.30090  0.28340  0.06120  1.0000 -0.083123449
C   C115      1.0  0.20400  0.35840  0.99290  1.0000 -0.083123449
C   C116      1.0  0.39110  0.62010  0.20930  1.0000 -0.0161732671
C   C117      1.0  0.23180  0.22900  0.05600  1.0000 -0.1579097896
C   C118      1.0  0.13390  0.30370  0.98740  1.0000 -0.1579097896
C   C119      1.0  0.33590  0.63020  0.15250  1.0000 -0.083123449
C   C120      1.0  0.39460  0.68030  0.25630  1.0000 -0.0907606265
C   C121      1.0  0.14590  0.23830  0.01830  1.0000 0.077940306
C   C122      1.0  0.28470  0.69740  0.14560  1.0000 -0.1579097896
C   C123      1.0  0.34470  0.75120  0.24800  1.0000 -0.1579097896
C   C124      1.0  0.06850  0.17920  0.01270  1.0000 0.0224499558
C   C125      1.0  0.59360  0.31230  0.39080  1.0000 0.6619504064
C   C126      1.0  0.29090  0.76000  0.19290  1.0000 0.0701325982
C   C127      1.0  0.99190  0.21601  0.01630  1.0000 -0.1961987347
C   C128      1.0  0.07170  0.09390  0.00560  1.0000 0.0291150139
C   C129      1.0  0.66390  0.26040  0.37810  1.0000 -0.0393989936
C   C130      1.0  0.23990  0.83580  0.18440  1.0000 0.0224499558
C   C131      1.0  0.91840  0.16740  0.01290  1.0000 0.0224499558
C   C132      1.0  0.99830  0.04529  0.00216  1.0000 0.0019546444
C   C133      1.0  0.14860  0.05220  0.99840  1.0000 -0.1498625607
C   C134      1.0  0.73690  0.24610  0.42430  1.0000 -0.0907606265
C   C135      1.0  0.66170  0.22810  0.32220  1.0000 -0.083123449
C   C136      1.0  0.68280  0.42830  0.66260  1.0000 0.5960850089
C   C137      1.0  0.28690  0.91200  0.19100  1.0000 -0.2062709362
C   C138      1.0  0.14880  0.83460  0.17280  1.0000 0.0224499558
C   C139      1.0  0.92160  0.08210  0.00580  1.0000 0.0291150139
C   C140      1.0  0.83870  0.21370  0.01760  1.0000 0.0701325982
C   C141      1.0  0.15120  0.97040  0.99360  1.0000 -0.1418296889
C   C142      1.0  0.80560  0.20240  0.41260  1.0000 -0.1498625607
C   C143      1.0  0.72720  0.18090  0.31150  1.0000 -0.1498625607
C   C144      1.0  0.75540  0.37100  0.66310  1.0000 -0.0302828798
C   C145      1.0  0.24520  0.98480  0.18550  1.0000 0.0224499558
C   C146      1.0  0.10460  0.90920  0.16830  1.0000 -0.0007986012
C   C147      1.0  0.09740  0.76060  0.16810  1.0000 -0.1418296889
C   C148      1.0  0.84700  0.28020  0.06370  1.0000 -0.1498625607
C   C149      1.0  0.75610  0.19650  0.97490  1.0000 -0.1579097896
C   C150      1.0  0.79980  0.16890  0.35640  1.0000 0.0701325982
C   C151      1.0  0.74330  0.29890  0.62520  1.0000 -0.0993732086
C   C152      1.0  0.84080  0.39640  0.70320  1.0000 -0.083123449
C   C153      1.0  0.15240  0.98430  0.17280  1.0000 0.0224499558
C   C154      1.0  0.29740  0.06530  0.19570  1.0000 0.0701325982
C   C155      1.0  0.01180  0.91020  0.16160  1.0000 -0.0007986012
C   C156      1.0  0.00980  0.76170  0.15980  1.0000 -0.1498625607
C   C157      1.0  0.77510  0.32590  0.06570  1.0000 -0.083123449
C   C158      1.0  0.68610  0.24270  0.97800  1.0000 -0.0993732086
C   C159      1.0  0.87460  0.11900  0.34650  1.0000 0.0291150139
C   C160      1.0  0.81520  0.25010  0.62560  1.0000 -0.1579097896
C   C161      1.0  0.91060  0.34750  0.70250  1.0000 -0.1679867189
C   C162      1.0  0.10320  0.05690  0.16070  1.0000 -0.1418296889
C   C163      1.0  0.28920  0.12990  0.23750  1.0000 -0.1579097896
C   C164      1.0  0.35560  0.07590  0.16340  1.0000 -0.1579097896
C   C165      1.0  0.96840  0.98520  0.15710  1.0000 0.0291150139
C   C166      1.0  0.96450  0.83500  0.15880  1.0000 0.0291150139
C   C167      1.0  0.69460  0.30800  0.02330  1.0000 -0.0007986012
C   C168      1.0  0.95150  0.16020  0.34740  1.0000 -0.1961987347
C   C169      1.0  0.87010  0.03190  0.34160  1.0000 0.0224499558
C   C170      1.0  0.89840  0.27340  0.66460  1.0000 0.077940306
C   C171      1.0  0.01820  0.05710  0.15460  1.0000 -0.1331572116
C   C172      1.0  0.33170  0.20610  0.24460  1.0000 -0.083123449
C   C173      1.0  0.39950  0.15140  0.17200  1.0000 -0.0907606265
C   C174      1.0  0.87870  0.98680  0.15470  1.0000 0.0291150139
C   C175      1.0  0.87380  0.83830  0.15510  1.0000 0.0291150139
C   C176      1.0  0.61610  0.36310  0.02240  1.0000 0.6099724888
C   C177      1.0  0.02450  0.11930  0.34190  1.0000 0.0137531448
C   C178      1.0  0.94540  0.98920  0.33590  1.0000 0.0019546444
C   C179      1.0  0.79500  0.98880  0.34490  1.0000 -0.1418296889
C   C180      1.0  0.97630  0.22410  0.66140  1.0000 0.0224499558
C   C181      1.0  0.38730  0.21730  0.21080  1.0000 -0.0302828798
C   C182      1.0  0.83470  0.91300  0.15400  1.0000 -0.1933528662
C   C183      1.0  0.82670  0.06120  0.15250  1.0000 0.0701325982
C   C184      1.0  0.81610  0.76430  0.15150  1.0000 0.077940306
C   C185      1.0  0.02120  0.03270  0.33360  1.0000 0.0224499558
C   C186      1.0  0.10690  0.16920  0.35150  1.0000 0.077940306
C   C187      1.0  0.94630  0.90310  0.33700  1.0000 0.0019546444
C   C188      1.0  0.79840  0.90740  0.34730  1.0000 -0.1498625607
C   C189      1.0  0.97790  0.14080  0.66810  1.0000 0.0291150139
C   C190      1.0  0.04450  0.26220  0.65020  1.0000 -0.1933528662
C   C191      1.0  0.42710  0.30270  0.21470  1.0000 0.6400437126
C   C192      1.0  0.74010  0.05570  0.11280  1.0000 -0.1579097896
C   C193      1.0  0.85780  0.13470  0.19080  1.0000 -0.1679867189
C   C194      1.0  0.84050  0.70680  0.18920  1.0000 -0.1679867189
C   C195      1.0  0.73030  0.75700  0.11200  1.0000 -0.1418296889
C   C196      1.0  0.09040  0.98540  0.32180  1.0000 -0.1498625607
C   C197      1.0  0.18450  0.15450  0.39500  1.0000 -0.1679867189
C   C198      1.0  0.10980  0.23250  0.32080  1.0000 -0.1679867189
C   C199      1.0  0.87390  0.86160  0.34580  1.0000 0.0224499558
C   C200      1.0  0.90860  0.09720  0.67940  1.0000 -0.1498625607
C   C201      1.0  0.11820  0.22210  0.64610  1.0000 0.0224499558
C   C202      1.0  0.68820  0.12060  0.11190  1.0000 -0.083123449
C   C203      1.0  0.80400  0.20120  0.18950  1.0000 -0.0993732086
C   C204      1.0  0.78240  0.64260  0.18590  1.0000 -0.0993732086
C   C205      1.0  0.67300  0.69320  0.10940  1.0000 -0.083123449
C   C206      1.0  0.26050  0.20470  0.40900  1.0000 -0.0907606265
C   C207      1.0  0.18770  0.28130  0.33410  1.0000 -0.0907606265
C   C208      1.0  0.18910  0.26760  0.63170  1.0000 0.077940306
C   C209      1.0  0.71750  0.19500  0.15080  1.0000 -0.0393989936
C   C210      1.0  0.69820  0.63470  0.14600  1.0000 -0.0161732671
C   C211      1.0  0.63580  0.56560  0.14420  1.0000 0.6339833408
C   C212      1.0  0.26110  0.26850  0.37770  1.0000 -0.0302828798
C   C213      1.0  0.21440  0.24020  0.58160  1.0000 -0.1679867189
C   C214      1.0  0.22820  0.34010  0.66990  1.0000 -0.1498625607
C   C215      1.0  0.66130  0.26520  0.15090  1.0000 0.5567384332
C   C216      1.0  0.34410  0.32350  0.39330  1.0000 0.6400437126
C   C217      1.0  0.27880  0.28540  0.56970  1.0000 -0.0907606265
C   C218      1.0  0.29250  0.38520  0.65790  1.0000 -0.0687927634
C   C219      1.0  0.31780  0.35790  0.60790  1.0000 -0.0393989936
C   C220      1.0  0.38640  0.40730  0.59590  1.0000 0.6339833408
O   O1        1.0  0.55860  0.60970  0.93870  1.0000 -0.6807041795
O   O2        1.0  0.64790  0.53990  0.99920  1.0000 -0.6093946328
O   O3        1.0  0.43720  0.44750  0.89740  1.0000 -0.7016009719
O   O4        1.0  0.37870  0.59220  0.92850  1.0000 -0.6909307868
O   O5        1.0  0.44390  0.63570  0.02300  1.0000 -0.5448655517
O   O6        1.0  0.54590  0.49880  0.82540  1.0000 -0.6389859349
O   O7        1.0  0.34340  0.47540  0.81470  1.0000 -0.6016791096
O   O8        1.0  0.41530  0.74080  0.88680  1.0000 -0.6093946328
O   O9        1.0  0.31000  0.66850  0.81100  1.0000 -0.6573952467
O   O10       1.0  0.52490  0.68880  0.81470  1.0000 -0.6310030252
O   O11       1.0  0.52450  0.46570  0.72800  1.0000 -0.6573952467
O   O12       1.0  0.45660  0.65580  0.64940  1.0000 -0.6093946328
O   O13       1.0  0.51330  0.52470  0.55547  1.0000 -1.1687367589
O   O14       1.0  0.59780  0.63890  0.75250  1.0000 -0.6807041795
O   O15       1.0  0.65460  0.62970  0.64260  1.0000 -0.6016791096
O   O16       1.0  0.69490  0.49030  0.70200  1.0000 -0.5626849563
O   O17       1.0  0.60850  0.41230  0.62100  1.0000 -0.7334889204
O   O18       1.0  0.40540  0.47960  0.62250  1.0000 -0.5797176988
O   O19       1.0  0.40930  0.67970  0.55630  1.0000 -0.6909307868
O   O20       1.0  0.59740  0.68090  0.56040  1.0000 -0.6016791096
O   O21       1.0  0.57930  0.62640  0.44090  1.0000 -0.6310030252
O   O22       1.0  0.44140  0.39030  0.06130  1.0000 -0.6807041795
O   O23       1.0  0.35210  0.46010  0.00080  1.0000 -0.6093946328
O   O24       1.0  0.56280  0.55250  0.10260  1.0000 -0.7016009719
O   O25       1.0  0.62130  0.40780  0.07150  1.0000 -0.6909307868
O   O26       1.0  0.55610  0.36430  0.97700  1.0000 -0.5448655517
O   O27       1.0  0.45410  0.50120  0.17460  1.0000 -0.6389859349
O   O28       1.0  0.65660  0.52460  0.18530  1.0000 -0.6016791096
O   O29       1.0  0.58470  0.25920  0.11320  1.0000 -0.6093946328
O   O30       1.0  0.69000  0.33150  0.18900  1.0000 -0.6573952467
O   O31       1.0  0.47510  0.31120  0.18530  1.0000 -0.6310030252
O   O32       1.0  0.47550  0.53430  0.27200  1.0000 -0.6573952467
O   O33       1.0  0.54340  0.34420  0.35060  1.0000 -0.6093946328
O   O34       1.0  0.48670  0.47530  0.44453  1.0000 -1.1687367589
O   O35       1.0  0.40220  0.36110  0.24750  1.0000 -0.6807041795
O   O36       1.0  0.34540  0.37030  0.35740  1.0000 -0.6016791096
O   O37       1.0  0.30510  0.50970  0.29800  1.0000 -0.5626849563
O   O38       1.0  0.39150  0.58770  0.37900  1.0000 -0.7334889204
O   O39       1.0  0.59460  0.52040  0.37750  1.0000 -0.5797176988
O   O40       1.0  0.59070  0.32030  0.44370  1.0000 -0.6909307868
O   O41       1.0  0.40260  0.31910  0.43960  1.0000 -0.6016791096
O   O42       1.0  0.42070  0.37360  0.55910  1.0000 -0.6310030252
