# DDEC6 charges by PACMAN v1.1 (https://github.com/mtap-research/PACMAN-charge/)
data_2019[Zr][flu]3[ASR]3
_chemical_formula_sum              "Zr6 H32 C64 N4 O24"
_cell_length_a       21.5173
_cell_length_b       16.9817
_cell_length_c       16.5594
_cell_angle_alpha    79.7999
_cell_angle_beta     50.9627
_cell_angle_gamma    49.2374

_symmetry_space_group_name_H-M    "P 1"
_symmetry_Int_Tables_number       1

loop_
  _symmetry_equiv_pos_as_xyz
  'x, y, z'

loop_
  _atom_site_type_symbol
  _atom_site_label
  _atom_site_symmetry_multiplicity
  _atom_site_fract_x
  _atom_site_fract_y
  _atom_site_fract_z
  _atom_site_occupancy
  _atom_site_charge
Zr  Zr1       1.0  0.41779  0.58221  0.41779  1.0000 2.3690199186
Zr  Zr2       1.0  0.58221  0.41779  0.58221  1.0000 2.3690199186
Zr  Zr3       1.0  0.68228  0.43202  0.31772  1.0000 2.464275532
Zr  Zr4       1.0  0.56798  0.31772  0.43202  1.0000 2.4690641691
Zr  Zr5       1.0  0.43202  0.68228  0.56798  1.0000 2.464275532
Zr  Zr6       1.0  0.31772  0.56798  0.68228  1.0000 2.4690641691
H   H1        1.0  0.49440  0.67440  0.11920  1.0000 0.1219484438
H   H2        1.0  0.54030  0.74130  0.97630  1.0000 0.1092371396
H   H3        1.0  0.85320  0.53820  0.85600  1.0000 0.1219484438
H   H4        1.0  0.80590  0.47390  0.00010  1.0000 0.1092371396
H   H5        1.0  0.71200  0.11920  0.67440  1.0000 0.1219484438
H   H6        1.0  0.74210  0.97630  0.74130  1.0000 0.1092371396
H   H7        1.0  0.75260  0.85600  0.53820  1.0000 0.1219484438
H   H8        1.0  0.72010  0.00010  0.47390  1.0000 0.1092371396
H   H9        1.0  0.67440  0.49440  0.71200  1.0000 0.1219484438
H   H10       1.0  0.74130  0.54030  0.74210  1.0000 0.1092371396
H   H11       1.0  0.53820  0.85320  0.75260  1.0000 0.1219484438
H   H12       1.0  0.47390  0.80590  0.72010  1.0000 0.1092371396
H   H13       1.0  0.11920  0.71200  0.49440  1.0000 0.1219484438
H   H14       1.0  0.97630  0.74210  0.54030  1.0000 0.1092371396
H   H15       1.0  0.85600  0.75260  0.85320  1.0000 0.1219484438
H   H16       1.0  0.00010  0.72010  0.80590  1.0000 0.1092371396
H   H17       1.0  0.50560  0.32560  0.88080  1.0000 0.1219484438
H   H18       1.0  0.45970  0.25870  0.02370  1.0000 0.1092371396
H   H19       1.0  0.14680  0.46180  0.14400  1.0000 0.1219484438
H   H20       1.0  0.19410  0.52610  0.99990  1.0000 0.1092371396
H   H21       1.0  0.28800  0.88080  0.32560  1.0000 0.1219484438
H   H22       1.0  0.25790  0.02370  0.25870  1.0000 0.1092371396
H   H23       1.0  0.24740  0.14400  0.46180  1.0000 0.1219484438
H   H24       1.0  0.27990  0.99990  0.52610  1.0000 0.1092371396
H   H25       1.0  0.32560  0.50560  0.28800  1.0000 0.1219484438
H   H26       1.0  0.25870  0.45970  0.25790  1.0000 0.1092371396
H   H27       1.0  0.46180  0.14680  0.24740  1.0000 0.1219484438
H   H28       1.0  0.52610  0.19410  0.27990  1.0000 0.1092371396
H   H29       1.0  0.88080  0.28800  0.50560  1.0000 0.1219484438
H   H30       1.0  0.02370  0.25790  0.45970  1.0000 0.1092371396
H   H31       1.0  0.14400  0.24740  0.14680  1.0000 0.1219484438
H   H32       1.0  0.99990  0.27990  0.19410  1.0000 0.1092371396
C   C1        1.0  0.61395  0.53443  0.17297  1.0000 0.6298481231
C   C2        1.0  0.64536  0.56930  0.07430  1.0000 -0.0372759015
C   C3        1.0  0.56700  0.64756  0.06624  1.0000 -0.0980901955
C   C4        1.0  0.59470  0.68668  0.98072  1.0000 -0.171542942
C   C5        1.0  0.70212  0.64628  0.90072  1.0000 0.0430455255
C   C6        1.0  0.77996  0.56664  0.90956  1.0000 -0.140822641
C   C7        1.0  0.75178  0.52850  0.99530  1.0000 -0.0980901955
C   C8        1.0  0.73058  0.69426  0.81594  1.0000 0.0996712879
C   C9        1.0  0.67865  0.17297  0.53443  1.0000 0.6298481231
C   C10       1.0  0.71104  0.07430  0.56930  1.0000 -0.0372759015
C   C11       1.0  0.71920  0.06624  0.64756  1.0000 -0.0980901955
C   C12       1.0  0.73790  0.98072  0.68668  1.0000 -0.171542942
C   C13       1.0  0.75088  0.90072  0.64628  1.0000 0.0430455255
C   C14       1.0  0.74384  0.90956  0.56664  1.0000 -0.140822641
C   C15       1.0  0.72442  0.99530  0.52850  1.0000 -0.0980901955
C   C16       1.0  0.75922  0.81594  0.69426  1.0000 0.0996712879
C   C17       1.0  0.53443  0.61395  0.67865  1.0000 0.6298481231
C   C18       1.0  0.56930  0.64536  0.71104  1.0000 -0.0372759015
C   C19       1.0  0.64756  0.56700  0.71920  1.0000 -0.0980901955
C   C20       1.0  0.68668  0.59470  0.73790  1.0000 -0.171542942
C   C21       1.0  0.64628  0.70212  0.75088  1.0000 0.0430455255
C   C22       1.0  0.56664  0.77996  0.74384  1.0000 -0.140822641
C   C23       1.0  0.52850  0.75178  0.72442  1.0000 -0.0980901955
C   C24       1.0  0.69426  0.73058  0.75922  1.0000 0.0996712879
C   C25       1.0  0.17297  0.67865  0.61395  1.0000 0.6298481231
C   C26       1.0  0.07430  0.71104  0.64536  1.0000 -0.0372759015
C   C27       1.0  0.06624  0.71920  0.56700  1.0000 -0.0980901955
C   C28       1.0  0.98072  0.73790  0.59470  1.0000 -0.171542942
C   C29       1.0  0.90072  0.75088  0.70212  1.0000 0.0430455255
C   C30       1.0  0.90956  0.74384  0.77996  1.0000 -0.140822641
C   C31       1.0  0.99530  0.72442  0.75178  1.0000 -0.0980901955
C   C32       1.0  0.81594  0.75922  0.73058  1.0000 0.0996712879
C   C33       1.0  0.38605  0.46557  0.82703  1.0000 0.6298481231
C   C34       1.0  0.35464  0.43070  0.92570  1.0000 -0.0372759015
C   C35       1.0  0.43300  0.35244  0.93376  1.0000 -0.0980901955
C   C36       1.0  0.40530  0.31332  0.01928  1.0000 -0.171542942
C   C37       1.0  0.29788  0.35372  0.09928  1.0000 0.0430455255
C   C38       1.0  0.22004  0.43336  0.09044  1.0000 -0.140822641
C   C39       1.0  0.24822  0.47150  0.00470  1.0000 -0.0980901955
C   C40       1.0  0.26942  0.30574  0.18406  1.0000 0.0996712879
C   C41       1.0  0.32135  0.82703  0.46557  1.0000 0.6298481231
C   C42       1.0  0.28896  0.92570  0.43070  1.0000 -0.0372759015
C   C43       1.0  0.28080  0.93376  0.35244  1.0000 -0.0980901955
C   C44       1.0  0.26210  0.01928  0.31332  1.0000 -0.171542942
C   C45       1.0  0.24912  0.09928  0.35372  1.0000 0.0430455255
C   C46       1.0  0.25616  0.09044  0.43336  1.0000 -0.140822641
C   C47       1.0  0.27558  0.00470  0.47150  1.0000 -0.0980901955
C   C48       1.0  0.24078  0.18406  0.30574  1.0000 0.0996712879
C   C49       1.0  0.46557  0.38605  0.32135  1.0000 0.6298481231
C   C50       1.0  0.43070  0.35464  0.28896  1.0000 -0.0372759015
C   C51       1.0  0.35244  0.43300  0.28080  1.0000 -0.0980901955
C   C52       1.0  0.31332  0.40530  0.26210  1.0000 -0.171542942
C   C53       1.0  0.35372  0.29788  0.24912  1.0000 0.0430455255
C   C54       1.0  0.43336  0.22004  0.25616  1.0000 -0.140822641
C   C55       1.0  0.47150  0.24822  0.27558  1.0000 -0.0980901955
C   C56       1.0  0.30574  0.26942  0.24078  1.0000 0.0996712879
C   C57       1.0  0.82703  0.32135  0.38605  1.0000 0.6298481231
C   C58       1.0  0.92570  0.28896  0.35464  1.0000 -0.0372759015
C   C59       1.0  0.93376  0.28080  0.43300  1.0000 -0.0980901955
C   C60       1.0  0.01928  0.26210  0.40530  1.0000 -0.171542942
C   C61       1.0  0.09928  0.24912  0.29788  1.0000 0.0430455255
C   C62       1.0  0.09044  0.25616  0.22004  1.0000 -0.140822641
C   C63       1.0  0.00470  0.27558  0.24822  1.0000 -0.0980901955
C   C64       1.0  0.18406  0.24078  0.26942  1.0000 0.0996712879
N   N1        1.0  0.79567  0.70433  0.79567  1.0000 -0.2827085326
N   N2        1.0  0.70433  0.79567  0.70433  1.0000 -0.2859761189
N   N3        1.0  0.20433  0.29567  0.20433  1.0000 -0.2859761189
N   N4        1.0  0.29567  0.20433  0.29567  1.0000 -0.2827085326
O   O1        1.0  0.68678  0.47318  0.17922  1.0000 -0.6188898081
O   O2        1.0  0.51785  0.56985  0.24175  1.0000 -0.5793231274
O   O3        1.0  0.66082  0.17922  0.47318  1.0000 -0.6188898081
O   O4        1.0  0.67055  0.24175  0.56985  1.0000 -0.5793231274
O   O5        1.0  0.47318  0.68678  0.66082  1.0000 -0.6188898081
O   O6        1.0  0.56985  0.51785  0.67055  1.0000 -0.5793231274
O   O7        1.0  0.17922  0.66082  0.68678  1.0000 -0.6188898081
O   O8        1.0  0.24175  0.67055  0.51785  1.0000 -0.5793231274
O   O9        1.0  0.31322  0.52682  0.82078  1.0000 -0.6188898081
O   O10       1.0  0.48215  0.43015  0.75825  1.0000 -0.5793231274
O   O11       1.0  0.33918  0.82078  0.52682  1.0000 -0.6188898081
O   O12       1.0  0.32945  0.75825  0.43015  1.0000 -0.5793231274
O   O13       1.0  0.52682  0.31322  0.33918  1.0000 -0.6188898081
O   O14       1.0  0.43015  0.48215  0.32945  1.0000 -0.5793231274
O   O15       1.0  0.82078  0.33918  0.31322  1.0000 -0.6188898081
O   O16       1.0  0.75825  0.32945  0.48215  1.0000 -0.5793231274
O   O17       1.0  0.51745  0.59795  0.40205  1.0000 -1.1702118585
O   O18       1.0  0.48255  0.40205  0.59795  1.0000 -1.1784282098
O   O19       1.0  0.59795  0.51745  0.48255  1.0000 -1.1784282098
O   O20       1.0  0.40205  0.48255  0.51745  1.0000 -1.1702118585
O   O21       1.0  0.58473  0.41527  0.33573  1.0000 -1.1784282098
O   O22       1.0  0.66427  0.33573  0.41527  1.0000 -1.1702118585
O   O23       1.0  0.41527  0.58473  0.66427  1.0000 -1.1784282098
O   O24       1.0  0.33573  0.66427  0.58473  1.0000 -1.1702118585
