# DDEC6 charges by PACMAN v1.1 (https://github.com/mtap-research/PACMAN-charge/)
data_2019[Co][dag]3[ASR]1
_chemical_formula_sum              "Co8 H72 C104 N32 Cl4 O16"
_cell_length_a       16.6991
_cell_length_b       16.6991
_cell_length_c       17.5671
_cell_angle_alpha    90
_cell_angle_beta     90
_cell_angle_gamma    90

_symmetry_space_group_name_H-M    "P 1"
_symmetry_Int_Tables_number       1

loop_
  _symmetry_equiv_pos_as_xyz
  'x, y, z'

loop_
  _atom_site_type_symbol
  _atom_site_label
  _atom_site_symmetry_multiplicity
  _atom_site_fract_x
  _atom_site_fract_y
  _atom_site_fract_z
  _atom_site_occupancy
  _atom_site_charge
Co  Co1       1.0  0.29282  0.13836  0.00000  1.0000 0.7915167834
Co  Co2       1.0  0.70718  0.86164  0.00000  1.0000 0.7915167834
Co  Co3       1.0  0.36164  0.79282  0.50000  1.0000 0.7915167834
Co  Co4       1.0  0.63836  0.20718  0.50000  1.0000 0.7915167834
Co  Co5       1.0  0.20718  0.63836  0.50000  1.0000 0.7915167834
Co  Co6       1.0  0.79282  0.36164  0.50000  1.0000 0.7915167834
Co  Co7       1.0  0.13836  0.29282  0.00000  1.0000 0.7915167834
Co  Co8       1.0  0.86164  0.70718  0.00000  1.0000 0.7915167834
H   H1        1.0  0.39750  0.22820  0.20000  1.0000 0.1196811463
H   H2        1.0  0.49130  0.31760  0.42530  1.0000 0.1064310937
H   H3        1.0  0.46980  0.15520  0.26140  1.0000 0.1196811463
H   H4        1.0  0.57450  0.11950  0.34660  1.0000 0.1196811463
H   H5        1.0  0.60250  0.77180  0.20000  1.0000 0.1196811463
H   H6        1.0  0.50870  0.68240  0.42530  1.0000 0.1064310937
H   H7        1.0  0.53020  0.84480  0.26140  1.0000 0.1196811463
H   H8        1.0  0.42550  0.88050  0.34660  1.0000 0.1196811463
H   H9        1.0  0.27180  0.89750  0.70000  1.0000 0.1196811463
H   H10       1.0  0.18240  0.99130  0.92530  1.0000 0.1064310937
H   H11       1.0  0.34480  0.96980  0.76140  1.0000 0.1196811463
H   H12       1.0  0.38050  0.07450  0.84660  1.0000 0.1196811463
H   H13       1.0  0.72820  0.10250  0.70000  1.0000 0.1196811463
H   H14       1.0  0.81760  0.00870  0.92530  1.0000 0.1064310937
H   H15       1.0  0.65520  0.03020  0.76140  1.0000 0.1196811463
H   H16       1.0  0.61950  0.92550  0.84660  1.0000 0.1196811463
H   H17       1.0  0.10250  0.72820  0.30000  1.0000 0.1196811463
H   H18       1.0  0.00870  0.81760  0.07470  1.0000 0.1064310937
H   H19       1.0  0.03020  0.65520  0.23860  1.0000 0.1196811463
H   H20       1.0  0.92550  0.61950  0.15340  1.0000 0.1196811463
H   H21       1.0  0.89750  0.27180  0.30000  1.0000 0.1196811463
H   H22       1.0  0.99130  0.18240  0.07470  1.0000 0.1064310937
H   H23       1.0  0.96980  0.34480  0.23860  1.0000 0.1196811463
H   H24       1.0  0.07450  0.38050  0.15340  1.0000 0.1196811463
H   H25       1.0  0.22820  0.39750  0.80000  1.0000 0.1196811463
H   H26       1.0  0.31760  0.49130  0.57470  1.0000 0.1064310937
H   H27       1.0  0.15520  0.46980  0.73860  1.0000 0.1196811463
H   H28       1.0  0.11950  0.57450  0.65340  1.0000 0.1196811463
H   H29       1.0  0.77180  0.60250  0.80000  1.0000 0.1196811463
H   H30       1.0  0.68240  0.50870  0.57470  1.0000 0.1064310937
H   H31       1.0  0.84480  0.53020  0.73860  1.0000 0.1196811463
H   H32       1.0  0.88050  0.42550  0.65340  1.0000 0.1196811463
H   H33       1.0  0.60250  0.77180  0.80000  1.0000 0.1196811463
H   H34       1.0  0.50870  0.68240  0.57470  1.0000 0.1064310937
H   H35       1.0  0.53020  0.84480  0.73860  1.0000 0.1196811463
H   H36       1.0  0.42550  0.88050  0.65340  1.0000 0.1196811463
H   H37       1.0  0.39750  0.22820  0.80000  1.0000 0.1196811463
H   H38       1.0  0.49130  0.31760  0.57470  1.0000 0.1064310937
H   H39       1.0  0.46980  0.15520  0.73860  1.0000 0.1196811463
H   H40       1.0  0.57450  0.11950  0.65340  1.0000 0.1196811463
H   H41       1.0  0.72820  0.10250  0.30000  1.0000 0.1196811463
H   H42       1.0  0.81760  0.00870  0.07470  1.0000 0.1064310937
H   H43       1.0  0.65520  0.03020  0.23860  1.0000 0.1196811463
H   H44       1.0  0.61950  0.92550  0.15340  1.0000 0.1196811463
H   H45       1.0  0.27180  0.89750  0.30000  1.0000 0.1196811463
H   H46       1.0  0.18240  0.99130  0.07470  1.0000 0.1064310937
H   H47       1.0  0.34480  0.96980  0.23860  1.0000 0.1196811463
H   H48       1.0  0.38050  0.07450  0.15340  1.0000 0.1196811463
H   H49       1.0  0.89750  0.27180  0.70000  1.0000 0.1196811463
H   H50       1.0  0.99130  0.18240  0.92530  1.0000 0.1064310937
H   H51       1.0  0.96980  0.34480  0.76140  1.0000 0.1196811463
H   H52       1.0  0.07450  0.38050  0.84660  1.0000 0.1196811463
H   H53       1.0  0.10250  0.72820  0.70000  1.0000 0.1196811463
H   H54       1.0  0.00870  0.81760  0.92530  1.0000 0.1064310937
H   H55       1.0  0.03020  0.65520  0.76140  1.0000 0.1196811463
H   H56       1.0  0.92550  0.61950  0.84660  1.0000 0.1196811463
H   H57       1.0  0.77180  0.60250  0.20000  1.0000 0.1196811463
H   H58       1.0  0.68240  0.50870  0.42530  1.0000 0.1064310937
H   H59       1.0  0.84480  0.53020  0.26140  1.0000 0.1196811463
H   H60       1.0  0.88050  0.42550  0.34660  1.0000 0.1196811463
H   H61       1.0  0.22820  0.39750  0.20000  1.0000 0.1196811463
H   H62       1.0  0.31760  0.49130  0.42530  1.0000 0.1064310937
H   H63       1.0  0.15520  0.46980  0.26140  1.0000 0.1196811463
H   H64       1.0  0.11950  0.57450  0.34660  1.0000 0.1196811463
H   H65       1.0  0.37550  0.37550  0.37970  1.0000 0.1276303144
H   H66       1.0  0.62450  0.62450  0.37970  1.0000 0.1276303144
H   H67       1.0  0.12450  0.87550  0.87970  1.0000 0.1276303144
H   H68       1.0  0.87550  0.12450  0.87970  1.0000 0.1276303144
H   H69       1.0  0.12450  0.87550  0.12030  1.0000 0.1276303144
H   H70       1.0  0.87550  0.12450  0.12030  1.0000 0.1276303144
H   H71       1.0  0.37550  0.37550  0.62030  1.0000 0.1276303144
H   H72       1.0  0.62450  0.62450  0.62030  1.0000 0.1276303144
C   C1        1.0  0.37150  0.27050  0.22390  1.0000 -0.2042904798
C   C2        1.0  0.39570  0.29580  0.29590  1.0000 0.1687694682
C   C3        1.0  0.49930  0.27170  0.39620  1.0000 0.0827323074
C   C4        1.0  0.48680  0.18310  0.30420  1.0000 -0.1578652518
C   C5        1.0  0.54250  0.16460  0.35260  1.0000 -0.023712234
C   C6        1.0  0.62850  0.72950  0.22390  1.0000 -0.2042904798
C   C7        1.0  0.60430  0.70420  0.29590  1.0000 0.1687694682
C   C8        1.0  0.50070  0.72830  0.39620  1.0000 0.0827323074
C   C9        1.0  0.51320  0.81690  0.30420  1.0000 -0.1578652518
C   C10       1.0  0.45750  0.83540  0.35260  1.0000 -0.023712234
C   C11       1.0  0.22950  0.87150  0.72390  1.0000 -0.2042904798
C   C12       1.0  0.20420  0.89570  0.79590  1.0000 0.1687694682
C   C13       1.0  0.22830  0.99930  0.89620  1.0000 0.0827323074
C   C14       1.0  0.31690  0.98680  0.80420  1.0000 -0.1578652518
C   C15       1.0  0.33540  0.04250  0.85260  1.0000 -0.023712234
C   C16       1.0  0.77050  0.12850  0.72390  1.0000 -0.2042904798
C   C17       1.0  0.79580  0.10430  0.79590  1.0000 0.1687694682
C   C18       1.0  0.77170  0.00070  0.89620  1.0000 0.0827323074
C   C19       1.0  0.68310  0.01320  0.80420  1.0000 -0.1578652518
C   C20       1.0  0.66460  0.95750  0.85260  1.0000 -0.023712234
C   C21       1.0  0.12850  0.77050  0.27610  1.0000 -0.2042904798
C   C22       1.0  0.10430  0.79580  0.20410  1.0000 0.1687694682
C   C23       1.0  0.00070  0.77170  0.10380  1.0000 0.0827323074
C   C24       1.0  0.01320  0.68310  0.19580  1.0000 -0.1578652518
C   C25       1.0  0.95750  0.66460  0.14740  1.0000 -0.023712234
C   C26       1.0  0.87150  0.22950  0.27610  1.0000 -0.2042904798
C   C27       1.0  0.89570  0.20420  0.20410  1.0000 0.1687694682
C   C28       1.0  0.99930  0.22830  0.10380  1.0000 0.0827323074
C   C29       1.0  0.98680  0.31690  0.19580  1.0000 -0.1578652518
C   C30       1.0  0.04250  0.33540  0.14740  1.0000 -0.023712234
C   C31       1.0  0.27050  0.37150  0.77610  1.0000 -0.2042904798
C   C32       1.0  0.29580  0.39570  0.70410  1.0000 0.1687694682
C   C33       1.0  0.27170  0.49930  0.60380  1.0000 0.0827323074
C   C34       1.0  0.18310  0.48680  0.69580  1.0000 -0.1578652518
C   C35       1.0  0.16460  0.54250  0.64740  1.0000 -0.023712234
C   C36       1.0  0.72950  0.62850  0.77610  1.0000 -0.2042904798
C   C37       1.0  0.70420  0.60430  0.70410  1.0000 0.1687694682
C   C38       1.0  0.72830  0.50070  0.60380  1.0000 0.0827323074
C   C39       1.0  0.81690  0.51320  0.69580  1.0000 -0.1578652518
C   C40       1.0  0.83540  0.45750  0.64740  1.0000 -0.023712234
C   C41       1.0  0.62850  0.72950  0.77610  1.0000 -0.2042904798
C   C42       1.0  0.60430  0.70420  0.70410  1.0000 0.1687694682
C   C43       1.0  0.50070  0.72830  0.60380  1.0000 0.0827323074
C   C44       1.0  0.51320  0.81690  0.69580  1.0000 -0.1578652518
C   C45       1.0  0.45750  0.83540  0.64740  1.0000 -0.023712234
C   C46       1.0  0.37150  0.27050  0.77610  1.0000 -0.2042904798
C   C47       1.0  0.39570  0.29580  0.70410  1.0000 0.1687694682
C   C48       1.0  0.49930  0.27170  0.60380  1.0000 0.0827323074
C   C49       1.0  0.48680  0.18310  0.69580  1.0000 -0.1578652518
C   C50       1.0  0.54250  0.16460  0.64740  1.0000 -0.023712234
C   C51       1.0  0.77050  0.12850  0.27610  1.0000 -0.2042904798
C   C52       1.0  0.79580  0.10430  0.20410  1.0000 0.1687694682
C   C53       1.0  0.77170  0.00070  0.10380  1.0000 0.0827323074
C   C54       1.0  0.68310  0.01320  0.19580  1.0000 -0.1578652518
C   C55       1.0  0.66460  0.95750  0.14740  1.0000 -0.023712234
C   C56       1.0  0.22950  0.87150  0.27610  1.0000 -0.2042904798
C   C57       1.0  0.20420  0.89570  0.20410  1.0000 0.1687694682
C   C58       1.0  0.22830  0.99930  0.10380  1.0000 0.0827323074
C   C59       1.0  0.31690  0.98680  0.19580  1.0000 -0.1578652518
C   C60       1.0  0.33540  0.04250  0.14740  1.0000 -0.023712234
C   C61       1.0  0.87150  0.22950  0.72390  1.0000 -0.2042904798
C   C62       1.0  0.89570  0.20420  0.79590  1.0000 0.1687694682
C   C63       1.0  0.99930  0.22830  0.89620  1.0000 0.0827323074
C   C64       1.0  0.98680  0.31690  0.80420  1.0000 -0.1578652518
C   C65       1.0  0.04250  0.33540  0.85260  1.0000 -0.023712234
C   C66       1.0  0.12850  0.77050  0.72390  1.0000 -0.2042904798
C   C67       1.0  0.10430  0.79580  0.79590  1.0000 0.1687694682
C   C68       1.0  0.00070  0.77170  0.89620  1.0000 0.0827323074
C   C69       1.0  0.01320  0.68310  0.80420  1.0000 -0.1578652518
C   C70       1.0  0.95750  0.66460  0.85260  1.0000 -0.023712234
C   C71       1.0  0.72950  0.62850  0.22390  1.0000 -0.2042904798
C   C72       1.0  0.70420  0.60430  0.29590  1.0000 0.1687694682
C   C73       1.0  0.72830  0.50070  0.39620  1.0000 0.0827323074
C   C74       1.0  0.81690  0.51320  0.30420  1.0000 -0.1578652518
C   C75       1.0  0.83540  0.45750  0.35260  1.0000 -0.023712234
C   C76       1.0  0.27050  0.37150  0.22390  1.0000 -0.2042904798
C   C77       1.0  0.29580  0.39570  0.29590  1.0000 0.1687694682
C   C78       1.0  0.27170  0.49930  0.39620  1.0000 0.0827323074
C   C79       1.0  0.18310  0.48680  0.30420  1.0000 -0.1578652518
C   C80       1.0  0.16460  0.54250  0.35260  1.0000 -0.023712234
C   C81       1.0  0.27830  0.27830  0.11320  1.0000 0.5784334789
C   C82       1.0  0.30870  0.30870  0.18870  1.0000 0.0205793189
C   C83       1.0  0.35860  0.35860  0.33190  1.0000 -0.2589946998
C   C84       1.0  0.72170  0.72170  0.11320  1.0000 0.5784334789
C   C85       1.0  0.69130  0.69130  0.18870  1.0000 0.0205793189
C   C86       1.0  0.64140  0.64140  0.33190  1.0000 -0.2589946998
C   C87       1.0  0.22170  0.77830  0.61320  1.0000 0.5784334789
C   C88       1.0  0.19130  0.80870  0.68870  1.0000 0.0205793189
C   C89       1.0  0.14140  0.85860  0.83190  1.0000 -0.2589946998
C   C90       1.0  0.77830  0.22170  0.61320  1.0000 0.5784334789
C   C91       1.0  0.80870  0.19130  0.68870  1.0000 0.0205793189
C   C92       1.0  0.85860  0.14140  0.83190  1.0000 -0.2589946998
C   C93       1.0  0.22170  0.77830  0.38680  1.0000 0.5784334789
C   C94       1.0  0.19130  0.80870  0.31130  1.0000 0.0205793189
C   C95       1.0  0.14140  0.85860  0.16810  1.0000 -0.2589946998
C   C96       1.0  0.77830  0.22170  0.38680  1.0000 0.5784334789
C   C97       1.0  0.80870  0.19130  0.31130  1.0000 0.0205793189
C   C98       1.0  0.85860  0.14140  0.16810  1.0000 -0.2589946998
C   C99       1.0  0.27830  0.27830  0.88680  1.0000 0.5784334789
C   C100      1.0  0.30870  0.30870  0.81130  1.0000 0.0205793189
C   C101      1.0  0.35860  0.35860  0.66810  1.0000 -0.2589946998
C   C102      1.0  0.72170  0.72170  0.88680  1.0000 0.5784334789
C   C103      1.0  0.69130  0.69130  0.81130  1.0000 0.0205793189
C   C104      1.0  0.64140  0.64140  0.66810  1.0000 -0.2589946998
N   N1        1.0  0.55130  0.21500  0.41230  1.0000 -0.2808548709
N   N2        1.0  0.45940  0.25430  0.33240  1.0000 0.0205793189
N   N3        1.0  0.44870  0.78500  0.41230  1.0000 -0.2808548709
N   N4        1.0  0.54060  0.74570  0.33240  1.0000 0.0205793189
N   N5        1.0  0.28500  0.05130  0.91230  1.0000 -0.2808548709
N   N6        1.0  0.24570  0.95940  0.83240  1.0000 0.0205793189
N   N7        1.0  0.71500  0.94870  0.91230  1.0000 -0.2808548709
N   N8        1.0  0.75430  0.04060  0.83240  1.0000 0.0205793189
N   N9        1.0  0.94870  0.71500  0.08770  1.0000 -0.2808548709
N   N10       1.0  0.04060  0.75430  0.16760  1.0000 0.0205793189
N   N11       1.0  0.05130  0.28500  0.08770  1.0000 -0.2808548709
N   N12       1.0  0.95940  0.24570  0.16760  1.0000 0.0205793189
N   N13       1.0  0.21500  0.55130  0.58770  1.0000 -0.2808548709
N   N14       1.0  0.25430  0.45940  0.66760  1.0000 0.0205793189
N   N15       1.0  0.78500  0.44870  0.58770  1.0000 -0.2808548709
N   N16       1.0  0.74570  0.54060  0.66760  1.0000 0.0205793189
N   N17       1.0  0.44870  0.78500  0.58770  1.0000 -0.2808548709
N   N18       1.0  0.54060  0.74570  0.66760  1.0000 0.0205793189
N   N19       1.0  0.55130  0.21500  0.58770  1.0000 -0.2808548709
N   N20       1.0  0.45940  0.25430  0.66760  1.0000 0.0205793189
N   N21       1.0  0.71500  0.94870  0.08770  1.0000 -0.2808548709
N   N22       1.0  0.75430  0.04060  0.16760  1.0000 0.0205793189
N   N23       1.0  0.28500  0.05130  0.08770  1.0000 -0.2808548709
N   N24       1.0  0.24570  0.95940  0.16760  1.0000 0.0205793189
N   N25       1.0  0.05130  0.28500  0.91230  1.0000 -0.2808548709
N   N26       1.0  0.95940  0.24570  0.83240  1.0000 0.0205793189
N   N27       1.0  0.94870  0.71500  0.91230  1.0000 -0.2808548709
N   N28       1.0  0.04060  0.75430  0.83240  1.0000 0.0205793189
N   N29       1.0  0.78500  0.44870  0.41230  1.0000 -0.2808548709
N   N30       1.0  0.74570  0.54060  0.33240  1.0000 0.0205793189
N   N31       1.0  0.21500  0.55130  0.41230  1.0000 -0.2808548709
N   N32       1.0  0.25430  0.45940  0.33240  1.0000 0.0205793189
Cl  Cl1       1.0  0.14717  0.14717  0.00000  1.0000 -0.6036083376
Cl  Cl2       1.0  0.85283  0.85283  0.00000  1.0000 -0.6036083376
Cl  Cl3       1.0  0.35283  0.64717  0.50000  1.0000 -0.6036083376
Cl  Cl4       1.0  0.64717  0.35283  0.50000  1.0000 -0.6036083376
O   O1        1.0  0.31460  0.21951  0.08523  1.0000 -0.549513304
O   O2        1.0  0.68540  0.78049  0.08523  1.0000 -0.549513304
O   O3        1.0  0.28049  0.81460  0.58523  1.0000 -0.549513304
O   O4        1.0  0.71951  0.18540  0.58523  1.0000 -0.549513304
O   O5        1.0  0.18540  0.71951  0.41477  1.0000 -0.549513304
O   O6        1.0  0.81460  0.28049  0.41477  1.0000 -0.549513304
O   O7        1.0  0.21951  0.31460  0.91477  1.0000 -0.549513304
O   O8        1.0  0.78049  0.68540  0.91477  1.0000 -0.549513304
O   O9        1.0  0.68540  0.78049  0.91477  1.0000 -0.549513304
O   O10       1.0  0.31460  0.21951  0.91477  1.0000 -0.549513304
O   O11       1.0  0.71951  0.18540  0.41477  1.0000 -0.549513304
O   O12       1.0  0.28049  0.81460  0.41477  1.0000 -0.549513304
O   O13       1.0  0.81460  0.28049  0.58523  1.0000 -0.549513304
O   O14       1.0  0.18540  0.71951  0.58523  1.0000 -0.549513304
O   O15       1.0  0.78049  0.68540  0.08523  1.0000 -0.549513304
O   O16       1.0  0.21951  0.31460  0.08523  1.0000 -0.549513304
