# DDEC6 charges by PACMAN v1.1 (https://github.com/mtap-research/PACMAN-charge/)
data_2019[Co][nan]3[ASR]16
_chemical_formula_sum              "Co20 H76 C100 N12 O80"
_cell_length_a       11.7007
_cell_length_b       28.4718
_cell_length_c       19.1866
_cell_angle_alpha    90
_cell_angle_beta     117.216
_cell_angle_gamma    90

_symmetry_space_group_name_H-M    "P 1"
_symmetry_Int_Tables_number       1

loop_
  _symmetry_equiv_pos_as_xyz
  'x, y, z'

loop_
  _atom_site_type_symbol
  _atom_site_label
  _atom_site_symmetry_multiplicity
  _atom_site_fract_x
  _atom_site_fract_y
  _atom_site_fract_z
  _atom_site_occupancy
  _atom_site_charge
Co  Co1       1.0  0.20062  0.29890  0.30724  1.0000 0.9794397336
Co  Co2       1.0  0.27323  0.32386  0.50257  1.0000 1.0225133878
Co  Co3       1.0  0.34804  0.35124  0.69973  1.0000 0.9892584515
Co  Co4       1.0  0.11578  0.40734  0.70940  1.0000 0.6781106872
Co  Co5       1.0  0.43612  0.25660  0.80196  1.0000 0.8898827714
Co  Co6       1.0  0.79938  0.79890  0.19276  1.0000 0.9794397336
Co  Co7       1.0  0.72677  0.82386  0.99743  1.0000 1.0225133878
Co  Co8       1.0  0.65196  0.85124  0.80027  1.0000 0.9892584515
Co  Co9       1.0  0.88422  0.90734  0.79060  1.0000 0.6781106872
Co  Co10      1.0  0.56388  0.75660  0.69804  1.0000 0.8898827714
Co  Co11      1.0  0.79938  0.70110  0.69276  1.0000 0.9794397336
Co  Co12      1.0  0.72677  0.67614  0.49743  1.0000 1.0225133878
Co  Co13      1.0  0.65196  0.64876  0.30027  1.0000 0.9892584515
Co  Co14      1.0  0.88422  0.59266  0.29060  1.0000 0.6781106872
Co  Co15      1.0  0.56388  0.74340  0.19804  1.0000 0.8898827714
Co  Co16      1.0  0.20062  0.20110  0.80724  1.0000 0.9794397336
Co  Co17      1.0  0.27323  0.17614  0.00257  1.0000 1.0225133878
Co  Co18      1.0  0.34804  0.14876  0.19973  1.0000 0.9892584515
Co  Co19      1.0  0.11578  0.09266  0.20940  1.0000 0.6781106872
Co  Co20      1.0  0.43612  0.24340  0.30196  1.0000 0.8898827714
H   H1        1.0  0.15324  0.46088  0.45899  1.0000 0.1395872516
H   H2        1.0  0.04612  0.53099  0.42697  1.0000 0.1091512378
H   H3        1.0  0.91420  0.50488  0.20564  1.0000 0.1010525383
H   H4        1.0  0.02502  0.43647  0.23250  1.0000 0.1395872516
H   H5        1.0  0.09339  0.19766  0.25742  1.0000 0.1091512378
H   H6        1.0  0.86010  0.32809  0.42032  1.0000 0.1312146467
H   H7        1.0  0.64737  0.31447  0.38668  1.0000 0.1010525383
H   H8        1.0  0.64282  0.20554  0.26077  1.0000 0.1010525383
H   H9        1.0  0.84911  0.22015  0.28399  1.0000 0.1236598921
H   H10       1.0  0.06506  0.38159  0.49967  1.0000 0.1010525383
H   H11       1.0  0.67124  0.33453  0.56102  1.0000 0.1312146467
H   H12       1.0  0.88365  0.34857  0.59421  1.0000 0.1010525383
H   H13       1.0  0.93259  0.41421  0.78293  1.0000 0.1010525383
H   H14       1.0  0.72351  0.40126  0.75442  1.0000 0.1312146467
H   H15       1.0  0.35342  0.21739  0.63989  1.0000 0.1010525383
H   H16       1.0  0.46020  0.45004  0.75310  1.0000 0.1091512378
H   H17       1.0  0.47695  0.23562  0.00948  1.0000 0.1010525383
H   H18       1.0  0.32593  0.12484  0.75645  1.0000 0.1091512378
H   H19       1.0  0.62135  0.33208  0.91124  1.0000 0.1010525383
H   H20       1.0  0.84676  0.96088  0.04101  1.0000 0.1395872516
H   H21       1.0  0.95388  0.03099  0.07303  1.0000 0.1091512378
H   H22       1.0  0.08580  0.00488  0.29436  1.0000 0.1010525383
H   H23       1.0  0.97498  0.93647  0.26750  1.0000 0.1395872516
H   H24       1.0  0.90661  0.69766  0.24258  1.0000 0.1091512378
H   H25       1.0  0.13990  0.82809  0.07968  1.0000 0.1312146467
H   H26       1.0  0.35263  0.81447  0.11332  1.0000 0.1010525383
H   H27       1.0  0.35718  0.70554  0.23923  1.0000 0.1010525383
H   H28       1.0  0.15089  0.72015  0.21601  1.0000 0.1236598921
H   H29       1.0  0.93494  0.88159  0.00033  1.0000 0.1010525383
H   H30       1.0  0.32876  0.83453  0.93898  1.0000 0.1312146467
H   H31       1.0  0.11635  0.84857  0.90579  1.0000 0.1010525383
H   H32       1.0  0.06741  0.91421  0.71707  1.0000 0.1010525383
H   H33       1.0  0.27649  0.90126  0.74558  1.0000 0.1312146467
H   H34       1.0  0.64658  0.71739  0.86011  1.0000 0.1010525383
H   H35       1.0  0.53980  0.95004  0.74690  1.0000 0.1091512378
H   H36       1.0  0.52305  0.73562  0.49052  1.0000 0.1010525383
H   H37       1.0  0.67407  0.62484  0.74355  1.0000 0.1091512378
H   H38       1.0  0.37865  0.83208  0.58876  1.0000 0.1010525383
H   H39       1.0  0.84676  0.53912  0.54101  1.0000 0.1395872516
H   H40       1.0  0.95388  0.46901  0.57303  1.0000 0.1091512378
H   H41       1.0  0.08580  0.49512  0.79436  1.0000 0.1010525383
H   H42       1.0  0.97498  0.56353  0.76750  1.0000 0.1395872516
H   H43       1.0  0.90661  0.80234  0.74258  1.0000 0.1091512378
H   H44       1.0  0.13990  0.67191  0.57968  1.0000 0.1312146467
H   H45       1.0  0.35263  0.68553  0.61332  1.0000 0.1010525383
H   H46       1.0  0.35718  0.79446  0.73923  1.0000 0.1010525383
H   H47       1.0  0.15089  0.77985  0.71601  1.0000 0.1236598921
H   H48       1.0  0.93494  0.61841  0.50033  1.0000 0.1010525383
H   H49       1.0  0.32876  0.66547  0.43898  1.0000 0.1312146467
H   H50       1.0  0.11635  0.65143  0.40579  1.0000 0.1010525383
H   H51       1.0  0.06741  0.58579  0.21707  1.0000 0.1010525383
H   H52       1.0  0.27649  0.59874  0.24558  1.0000 0.1312146467
H   H53       1.0  0.64658  0.78261  0.36011  1.0000 0.1010525383
H   H54       1.0  0.53980  0.54996  0.24690  1.0000 0.1091512378
H   H55       1.0  0.52305  0.76438  0.99052  1.0000 0.1010525383
H   H56       1.0  0.67407  0.87516  0.24355  1.0000 0.1091512378
H   H57       1.0  0.37865  0.66792  0.08876  1.0000 0.1010525383
H   H58       1.0  0.15324  0.03912  0.95899  1.0000 0.1395872516
H   H59       1.0  0.04612  0.96901  0.92697  1.0000 0.1091512378
H   H60       1.0  0.91420  0.99512  0.70564  1.0000 0.1010525383
H   H61       1.0  0.02502  0.06353  0.73250  1.0000 0.1395872516
H   H62       1.0  0.09339  0.30234  0.75742  1.0000 0.1091512378
H   H63       1.0  0.86010  0.17191  0.92032  1.0000 0.1312146467
H   H64       1.0  0.64737  0.18553  0.88668  1.0000 0.1010525383
H   H65       1.0  0.64282  0.29446  0.76077  1.0000 0.1010525383
H   H66       1.0  0.84911  0.27985  0.78399  1.0000 0.1236598921
H   H67       1.0  0.06506  0.11841  0.99967  1.0000 0.1010525383
H   H68       1.0  0.67124  0.16547  0.06102  1.0000 0.1312146467
H   H69       1.0  0.88365  0.15143  0.09421  1.0000 0.1010525383
H   H70       1.0  0.93259  0.08579  0.28293  1.0000 0.1010525383
H   H71       1.0  0.72351  0.09874  0.25442  1.0000 0.1312146467
H   H72       1.0  0.35342  0.28261  0.13989  1.0000 0.1010525383
H   H73       1.0  0.46020  0.04996  0.25310  1.0000 0.1091512378
H   H74       1.0  0.47695  0.26438  0.50948  1.0000 0.1010525383
H   H75       1.0  0.32593  0.37516  0.25645  1.0000 0.1091512378
H   H76       1.0  0.62135  0.16792  0.41124  1.0000 0.1010525383
C   C1        1.0  0.17040  0.39377  0.37010  1.0000 0.5804343132
C   C2        1.0  0.09920  0.44025  0.34900  1.0000 0.0187611916
C   C3        1.0  0.10480  0.46910  0.40660  1.0000 -0.1779390852
C   C4        1.0  0.03800  0.51090  0.38680  1.0000 0.0594631845
C   C5        1.0  0.96200  0.49600  0.25780  1.0000 0.0464395156
C   C6        1.0  0.02820  0.45480  0.27350  1.0000 -0.1683084721
C   C7        1.0  0.17130  0.19691  0.25540  1.0000 0.4901163908
C   C8        1.0  0.01500  0.28602  0.37350  1.0000 0.5934706015
C   C9        1.0  0.87640  0.27563  0.35450  1.0000 0.0401184029
C   C10       1.0  0.81610  0.30372  0.38640  1.0000 -0.1683084721
C   C11       1.0  0.68890  0.29486  0.36670  1.0000 0.0838167352
C   C12       1.0  0.68580  0.23120  0.29160  1.0000 0.0401184029
C   C13       1.0  0.81020  0.23920  0.30640  1.0000 -0.1610310654
C   C14       1.0  0.11060  0.37986  0.55400  1.0000 0.4811946322
C   C15       1.0  0.53320  0.35972  0.63230  1.0000 0.5804343132
C   C16       1.0  0.67250  0.36813  0.65350  1.0000 0.0187611916
C   C17       1.0  0.72240  0.35140  0.60610  1.0000 -0.1779390852
C   C18       1.0  0.85060  0.36020  0.62660  1.0000 0.0669583027
C   C19       1.0  0.87940  0.39845  0.73690  1.0000 0.0401184029
C   C20       1.0  0.75360  0.39077  0.71990  1.0000 -0.1683084721
C   C21       1.0  0.34190  0.24926  0.62810  1.0000 0.5091124458
C   C22       1.0  0.38090  0.45287  0.75300  1.0000 0.4901163908
C   C23       1.0  0.43680  0.23206  0.95530  1.0000 0.5091124458
C   C24       1.0  0.37540  0.15038  0.75640  1.0000 0.4811946322
C   C25       1.0  0.56340  0.35060  0.87050  1.0000 0.4901163908
C   C26       1.0  0.82960  0.89377  0.12990  1.0000 0.5804343132
C   C27       1.0  0.90080  0.94025  0.15100  1.0000 0.0187611916
C   C28       1.0  0.89520  0.96910  0.09340  1.0000 -0.1779390852
C   C29       1.0  0.96200  0.01090  0.11320  1.0000 0.0594631845
C   C30       1.0  0.03800  0.99600  0.24220  1.0000 0.0401184029
C   C31       1.0  0.97180  0.95480  0.22650  1.0000 -0.1683084721
C   C32       1.0  0.82870  0.69691  0.24460  1.0000 0.4901163908
C   C33       1.0  0.98500  0.78602  0.12650  1.0000 0.5934706015
C   C34       1.0  0.12360  0.77563  0.14550  1.0000 0.0401184029
C   C35       1.0  0.18390  0.80372  0.11360  1.0000 -0.1683084721
C   C36       1.0  0.31110  0.79486  0.13330  1.0000 0.0838167352
C   C37       1.0  0.31420  0.73120  0.20840  1.0000 0.0401184029
C   C38       1.0  0.18980  0.73920  0.19360  1.0000 -0.1610310654
C   C39       1.0  0.88940  0.87986  0.94600  1.0000 0.4811946322
C   C40       1.0  0.46680  0.85972  0.86770  1.0000 0.5804343132
C   C41       1.0  0.32750  0.86813  0.84650  1.0000 0.0187611916
C   C42       1.0  0.27760  0.85140  0.89390  1.0000 -0.1779390852
C   C43       1.0  0.14940  0.86020  0.87340  1.0000 0.0669583027
C   C44       1.0  0.12060  0.89845  0.76310  1.0000 0.0401184029
C   C45       1.0  0.24640  0.89077  0.78010  1.0000 -0.1683084721
C   C46       1.0  0.65810  0.74926  0.87190  1.0000 0.5091124458
C   C47       1.0  0.61910  0.95287  0.74700  1.0000 0.4901163908
C   C48       1.0  0.56320  0.73206  0.54470  1.0000 0.5091124458
C   C49       1.0  0.62460  0.65038  0.74360  1.0000 0.4811946322
C   C50       1.0  0.43660  0.85060  0.62950  1.0000 0.4901163908
C   C51       1.0  0.82960  0.60623  0.62990  1.0000 0.5804343132
C   C52       1.0  0.90080  0.55975  0.65100  1.0000 0.0187611916
C   C53       1.0  0.89520  0.53090  0.59340  1.0000 -0.1779390852
C   C54       1.0  0.96200  0.48910  0.61320  1.0000 0.0594631845
C   C55       1.0  0.03800  0.50400  0.74220  1.0000 0.0464395156
C   C56       1.0  0.97180  0.54520  0.72650  1.0000 -0.1683084721
C   C57       1.0  0.82870  0.80309  0.74460  1.0000 0.4901163908
C   C58       1.0  0.98500  0.71398  0.62650  1.0000 0.5934706015
C   C59       1.0  0.12360  0.72437  0.64550  1.0000 0.0401184029
C   C60       1.0  0.18390  0.69628  0.61360  1.0000 -0.1683084721
C   C61       1.0  0.31110  0.70514  0.63330  1.0000 0.0838167352
C   C62       1.0  0.31420  0.76880  0.70840  1.0000 0.0401184029
C   C63       1.0  0.18980  0.76080  0.69360  1.0000 -0.1610310654
C   C64       1.0  0.88940  0.62014  0.44600  1.0000 0.4811946322
C   C65       1.0  0.46680  0.64028  0.36770  1.0000 0.5804343132
C   C66       1.0  0.32750  0.63187  0.34650  1.0000 0.0187611916
C   C67       1.0  0.27760  0.64860  0.39390  1.0000 -0.1779390852
C   C68       1.0  0.14940  0.63980  0.37340  1.0000 0.0669583027
C   C69       1.0  0.12060  0.60155  0.26310  1.0000 0.0401184029
C   C70       1.0  0.24640  0.60923  0.28010  1.0000 -0.1683084721
C   C71       1.0  0.65810  0.75074  0.37190  1.0000 0.5091124458
C   C72       1.0  0.61910  0.54713  0.24700  1.0000 0.4901163908
C   C73       1.0  0.56320  0.76794  0.04470  1.0000 0.5091124458
C   C74       1.0  0.62460  0.84962  0.24360  1.0000 0.4811946322
C   C75       1.0  0.43660  0.64940  0.12950  1.0000 0.4901163908
C   C76       1.0  0.17040  0.10623  0.87010  1.0000 0.5804343132
C   C77       1.0  0.09920  0.05975  0.84900  1.0000 0.0187611916
C   C78       1.0  0.10480  0.03090  0.90660  1.0000 -0.1779390852
C   C79       1.0  0.03800  0.98910  0.88680  1.0000 0.0594631845
C   C80       1.0  0.96200  0.00400  0.75780  1.0000 0.0464395156
C   C81       1.0  0.02820  0.04520  0.77350  1.0000 -0.1683084721
C   C82       1.0  0.17130  0.30309  0.75540  1.0000 0.4901163908
C   C83       1.0  0.01500  0.21398  0.87350  1.0000 0.5934706015
C   C84       1.0  0.87640  0.22437  0.85450  1.0000 0.0401184029
C   C85       1.0  0.81610  0.19628  0.88640  1.0000 -0.1683084721
C   C86       1.0  0.68890  0.20514  0.86670  1.0000 0.0838167352
C   C87       1.0  0.68580  0.26880  0.79160  1.0000 0.0401184029
C   C88       1.0  0.81020  0.26080  0.80640  1.0000 -0.1610310654
C   C89       1.0  0.11060  0.12014  0.05400  1.0000 0.4811946322
C   C90       1.0  0.53320  0.14028  0.13230  1.0000 0.5804343132
C   C91       1.0  0.67250  0.13187  0.15350  1.0000 0.0187611916
C   C92       1.0  0.72240  0.14860  0.10610  1.0000 -0.1779390852
C   C93       1.0  0.85060  0.13980  0.12660  1.0000 0.0669583027
C   C94       1.0  0.87940  0.10155  0.23690  1.0000 0.0401184029
C   C95       1.0  0.75360  0.10923  0.21990  1.0000 -0.1683084721
C   C96       1.0  0.34190  0.25074  0.12810  1.0000 0.5091124458
C   C97       1.0  0.38090  0.04713  0.25300  1.0000 0.4901163908
C   C98       1.0  0.43680  0.26794  0.45530  1.0000 0.5091124458
C   C99       1.0  0.37540  0.34962  0.25640  1.0000 0.4811946322
C   C100      1.0  0.56340  0.14940  0.37050  1.0000 0.4901163908
N   N1        1.0  0.62250  0.25900  0.31990  1.0000 -0.266658509
N   N2        1.0  0.96210  0.52415  0.31300  1.0000 -0.2435255329
N   N3        1.0  0.92850  0.38404  0.68960  1.0000 -0.2435255329
N   N4        1.0  0.37750  0.75900  0.18010  1.0000 -0.266658509
N   N5        1.0  0.03790  0.02415  0.18700  1.0000 -0.2435255329
N   N6        1.0  0.07150  0.88404  0.81040  1.0000 -0.2435255329
N   N7        1.0  0.37750  0.74100  0.68010  1.0000 -0.266658509
N   N8        1.0  0.03790  0.47585  0.68700  1.0000 -0.2435255329
N   N9        1.0  0.07150  0.61596  0.31040  1.0000 -0.2435255329
N   N10       1.0  0.62250  0.24100  0.81990  1.0000 -0.266658509
N   N11       1.0  0.96210  0.97585  0.81300  1.0000 -0.2435255329
N   N12       1.0  0.92850  0.11596  0.18960  1.0000 -0.2435255329
O   O1        1.0  0.05160  0.27270  0.32430  1.0000 -0.5814158473
O   O2        1.0  0.08070  0.30660  0.43650  1.0000 -0.5598201719
O   O3        1.0  0.15482  0.36790  0.31422  1.0000 -0.5814158473
O   O4        1.0  0.23617  0.38564  0.44077  1.0000 -0.5518447377
O   O5        1.0  0.24637  0.23059  0.28537  1.0000 -0.5253327804
O   O6        1.0  0.19202  0.16261  0.22312  1.0000 -0.5182092505
O   O7        1.0  0.21748  0.35755  0.58168  1.0000 -0.5598201719
O   O8        1.0  0.06191  0.39906  0.59051  1.0000 -0.4902619364
O   O9        1.0  0.46461  0.34144  0.56781  1.0000 -0.5598201719
O   O10       1.0  0.29895  0.25976  0.55965  1.0000 -0.4694590884
O   O11       1.0  0.37322  0.27739  0.68592  1.0000 -0.5598201719
O   O12       1.0  0.50066  0.37133  0.68406  1.0000 -0.5738573091
O   O13       1.0  0.30401  0.41799  0.72591  1.0000 -0.5598201719
O   O14       1.0  0.36140  0.48854  0.77810  1.0000 -0.4079106915
O   O15       1.0  0.46972  0.32930  0.81372  1.0000 -0.5598201719
O   O16       1.0  0.58260  0.39163  0.87560  1.0000 -0.3930775988
O   O17       1.0  0.49308  0.24936  0.92038  1.0000 -0.5040310937
O   O18       1.0  0.33137  0.21017  0.92627  1.0000 -0.5518447377
O   O19       1.0  0.35890  0.18872  0.78480  1.0000 -0.5814158473
O   O20       1.0  0.44970  0.14404  0.72920  1.0000 -0.4564815032
O   O21       1.0  0.94840  0.77270  0.17570  1.0000 -0.5814158473
O   O22       1.0  0.91930  0.80660  0.06350  1.0000 -0.5598201719
O   O23       1.0  0.84518  0.86790  0.18578  1.0000 -0.5855924802
O   O24       1.0  0.76383  0.88564  0.05923  1.0000 -0.5449742394
O   O25       1.0  0.75363  0.73059  0.21463  1.0000 -0.5253327804
O   O26       1.0  0.80798  0.66261  0.27688  1.0000 -0.5182092505
O   O27       1.0  0.78252  0.85755  0.91832  1.0000 -0.5598201719
O   O28       1.0  0.93809  0.89906  0.90949  1.0000 -0.4902619364
O   O29       1.0  0.53539  0.84144  0.93219  1.0000 -0.5598201719
O   O30       1.0  0.70105  0.75976  0.94035  1.0000 -0.4694590884
O   O31       1.0  0.62678  0.77739  0.81408  1.0000 -0.5598201719
O   O32       1.0  0.49934  0.87133  0.81594  1.0000 -0.5738573091
O   O33       1.0  0.69599  0.91799  0.77409  1.0000 -0.5598201719
O   O34       1.0  0.63860  0.98854  0.72190  1.0000 -0.4079106915
O   O35       1.0  0.53028  0.82930  0.68628  1.0000 -0.5598201719
O   O36       1.0  0.41740  0.89163  0.62440  1.0000 -0.3930775988
O   O37       1.0  0.50692  0.74936  0.57962  1.0000 -0.5040310937
O   O38       1.0  0.66863  0.71017  0.57373  1.0000 -0.5518447377
O   O39       1.0  0.64110  0.68872  0.71520  1.0000 -0.5814158473
O   O40       1.0  0.55030  0.64404  0.77080  1.0000 -0.4564815032
O   O41       1.0  0.94840  0.72730  0.67570  1.0000 -0.5814158473
O   O42       1.0  0.91930  0.69340  0.56350  1.0000 -0.5598201719
O   O43       1.0  0.84518  0.63210  0.68578  1.0000 -0.5814158473
O   O44       1.0  0.76383  0.61436  0.55923  1.0000 -0.5518447377
O   O45       1.0  0.75363  0.76941  0.71463  1.0000 -0.5253327804
O   O46       1.0  0.80798  0.83739  0.77688  1.0000 -0.5182092505
O   O47       1.0  0.78252  0.64245  0.41832  1.0000 -0.5598201719
O   O48       1.0  0.93809  0.60094  0.40949  1.0000 -0.4902619364
O   O49       1.0  0.53539  0.65856  0.43219  1.0000 -0.5598201719
O   O50       1.0  0.70105  0.74024  0.44035  1.0000 -0.4694590884
O   O51       1.0  0.62678  0.72261  0.31408  1.0000 -0.5598201719
O   O52       1.0  0.49934  0.62867  0.31594  1.0000 -0.5738573091
O   O53       1.0  0.69599  0.58201  0.27409  1.0000 -0.5598201719
O   O54       1.0  0.63860  0.51146  0.22190  1.0000 -0.4079106915
O   O55       1.0  0.53028  0.67070  0.18628  1.0000 -0.5598201719
O   O56       1.0  0.41740  0.60837  0.12440  1.0000 -0.3958902674
O   O57       1.0  0.50692  0.75064  0.07962  1.0000 -0.5040310937
O   O58       1.0  0.66863  0.78983  0.07373  1.0000 -0.5518447377
O   O59       1.0  0.64110  0.81128  0.21520  1.0000 -0.5814158473
O   O60       1.0  0.55030  0.85596  0.27080  1.0000 -0.4564815032
O   O61       1.0  0.05160  0.22730  0.82430  1.0000 -0.5814158473
O   O62       1.0  0.08070  0.19340  0.93650  1.0000 -0.5598201719
O   O63       1.0  0.15482  0.13210  0.81422  1.0000 -0.5814158473
O   O64       1.0  0.23617  0.11436  0.94077  1.0000 -0.5449742394
O   O65       1.0  0.24637  0.26941  0.78537  1.0000 -0.5253327804
O   O66       1.0  0.19202  0.33739  0.72312  1.0000 -0.5182092505
O   O67       1.0  0.21748  0.14245  0.08168  1.0000 -0.5598201719
O   O68       1.0  0.06191  0.10094  0.09051  1.0000 -0.4902619364
O   O69       1.0  0.46461  0.15856  0.06781  1.0000 -0.5598201719
O   O70       1.0  0.29895  0.24024  0.05965  1.0000 -0.4694590884
O   O71       1.0  0.37322  0.22261  0.18592  1.0000 -0.5598201719
O   O72       1.0  0.50066  0.12867  0.18406  1.0000 -0.5738573091
O   O73       1.0  0.30401  0.08201  0.22591  1.0000 -0.5598201719
O   O74       1.0  0.36140  0.01146  0.27810  1.0000 -0.4079106915
O   O75       1.0  0.46972  0.17070  0.31372  1.0000 -0.5598201719
O   O76       1.0  0.58260  0.10837  0.37560  1.0000 -0.3958902674
O   O77       1.0  0.49308  0.25064  0.42038  1.0000 -0.5040310937
O   O78       1.0  0.33137  0.28983  0.42627  1.0000 -0.5518447377
O   O79       1.0  0.35890  0.31128  0.28480  1.0000 -0.5814158473
O   O80       1.0  0.44970  0.35596  0.22920  1.0000 -0.4564815032
