# DDEC6 charges by PACMAN v1.1 (https://github.com/mtap-research/PACMAN-charge/)
data_2019[Cu][nbo]3[ASR]2
_chemical_formula_sum              "Cu6 H48 C90 N12 O24"
_cell_length_a       14.265
_cell_length_b       14.265
_cell_length_c       14.265
_cell_angle_alpha    95.9301
_cell_angle_beta     95.9301
_cell_angle_gamma    95.9301

_symmetry_space_group_name_H-M    "P 1"
_symmetry_Int_Tables_number       1

loop_
  _symmetry_equiv_pos_as_xyz
  'x, y, z'

loop_
  _atom_site_type_symbol
  _atom_site_label
  _atom_site_symmetry_multiplicity
  _atom_site_fract_x
  _atom_site_fract_y
  _atom_site_fract_z
  _atom_site_occupancy
  _atom_site_charge
Cu  Cu1       1.0  0.47904  0.08107  0.47121  1.0000 0.8400886476
Cu  Cu2       1.0  0.08107  0.47121  0.47904  1.0000 0.8400886476
Cu  Cu3       1.0  0.47121  0.47904  0.08107  1.0000 0.8400886476
Cu  Cu4       1.0  0.52096  0.91893  0.52879  1.0000 0.8400886476
Cu  Cu5       1.0  0.91893  0.52879  0.52096  1.0000 0.8400886476
Cu  Cu6       1.0  0.52879  0.52096  0.91893  1.0000 0.8400886476
H   H1        1.0  0.59300  0.81730  0.99090  1.0000 0.1368023003
H   H2        1.0  0.62050  0.12890  0.08980  1.0000 0.3003360176
H   H3        1.0  0.51600  0.76190  0.24420  1.0000 0.1368023003
H   H4        1.0  0.57110  0.03150  0.18980  1.0000 0.1181799817
H   H5        1.0  0.74320  0.18400  0.73170  1.0000 0.1087524705
H   H6        1.0  0.72430  0.30890  0.84260  1.0000 0.1087524705
H   H7        1.0  0.67610  0.28110  0.98790  1.0000 0.1271009216
H   H8        1.0  0.70700  0.02860  0.75890  1.0000 0.1368023003
H   H9        1.0  0.81730  0.99090  0.59300  1.0000 0.1368023003
H   H10       1.0  0.12890  0.08980  0.62050  1.0000 0.3003360176
H   H11       1.0  0.76190  0.24420  0.51600  1.0000 0.1368023003
H   H12       1.0  0.03150  0.18980  0.57110  1.0000 0.1181799817
H   H13       1.0  0.18400  0.73170  0.74320  1.0000 0.1087524705
H   H14       1.0  0.30890  0.84260  0.72430  1.0000 0.1087524705
H   H15       1.0  0.28110  0.98790  0.67610  1.0000 0.1271009216
H   H16       1.0  0.02860  0.75890  0.70700  1.0000 0.1368023003
H   H17       1.0  0.99090  0.59300  0.81730  1.0000 0.1368023003
H   H18       1.0  0.08980  0.62050  0.12890  1.0000 0.3003360176
H   H19       1.0  0.24420  0.51600  0.76190  1.0000 0.1368023003
H   H20       1.0  0.18980  0.57110  0.03150  1.0000 0.1181799817
H   H21       1.0  0.73170  0.74320  0.18400  1.0000 0.1087524705
H   H22       1.0  0.84260  0.72430  0.30890  1.0000 0.1087524705
H   H23       1.0  0.98790  0.67610  0.28110  1.0000 0.1271009216
H   H24       1.0  0.75890  0.70700  0.02860  1.0000 0.1368023003
H   H25       1.0  0.40700  0.18270  0.00910  1.0000 0.1368023003
H   H26       1.0  0.37950  0.87110  0.91020  1.0000 0.3003360176
H   H27       1.0  0.48400  0.23810  0.75580  1.0000 0.1368023003
H   H28       1.0  0.42890  0.96850  0.81020  1.0000 0.1181799817
H   H29       1.0  0.25680  0.81600  0.26830  1.0000 0.1087524705
H   H30       1.0  0.27570  0.69110  0.15740  1.0000 0.1087524705
H   H31       1.0  0.32390  0.71890  0.01210  1.0000 0.1271009216
H   H32       1.0  0.29300  0.97140  0.24110  1.0000 0.1368023003
H   H33       1.0  0.18270  0.00910  0.40700  1.0000 0.1368023003
H   H34       1.0  0.87110  0.91020  0.37950  1.0000 0.3003360176
H   H35       1.0  0.23810  0.75580  0.48400  1.0000 0.1368023003
H   H36       1.0  0.96850  0.81020  0.42890  1.0000 0.1181799817
H   H37       1.0  0.81600  0.26830  0.25680  1.0000 0.1087524705
H   H38       1.0  0.69110  0.15740  0.27570  1.0000 0.1087524705
H   H39       1.0  0.71890  0.01210  0.32390  1.0000 0.1271009216
H   H40       1.0  0.97140  0.24110  0.29300  1.0000 0.1368023003
H   H41       1.0  0.00910  0.40700  0.18270  1.0000 0.1368023003
H   H42       1.0  0.91020  0.37950  0.87110  1.0000 0.3003360176
H   H43       1.0  0.75580  0.48400  0.23810  1.0000 0.1368023003
H   H44       1.0  0.81020  0.42890  0.96850  1.0000 0.1181799817
H   H45       1.0  0.26830  0.25680  0.81600  1.0000 0.1087524705
H   H46       1.0  0.15740  0.27570  0.69110  1.0000 0.1087524705
H   H47       1.0  0.01210  0.32390  0.71890  1.0000 0.1271009216
H   H48       1.0  0.24110  0.29300  0.97140  1.0000 0.1368023003
C   C1        1.0  0.52619  0.93762  0.33234  1.0000 0.5675337384
C   C2        1.0  0.62186  0.00401  0.01638  1.0000 0.3003360176
C   C3        1.0  0.57946  0.83900  0.05126  1.0000 -0.1252607535
C   C4        1.0  0.54279  0.90196  0.23317  1.0000 -0.0094724965
C   C5        1.0  0.59014  0.93655  0.08073  1.0000 0.0123885467
C   C6        1.0  0.53304  0.80559  0.20306  1.0000 -0.1084645148
C   C7        1.0  0.56843  0.96687  0.17073  1.0000 -0.1496694093
C   C8        1.0  0.66323  0.13741  0.95993  1.0000 0.1271009216
C   C9        1.0  0.67218  0.06157  0.89245  1.0000 0.1368023003
C   C10       1.0  0.72185  0.17104  0.78893  1.0000 -0.1084645148
C   C11       1.0  0.71132  0.24697  0.85652  1.0000 -0.1084645148
C   C12       1.0  0.68253  0.23099  0.94263  1.0000 -0.1819285383
C   C13       1.0  0.70151  0.07834  0.80477  1.0000 -0.1496694093
C   C14       1.0  0.53149  0.67086  0.07333  1.0000 0.5675337384
C   C15       1.0  0.54899  0.77450  0.11074  1.0000 -0.0209471719
C   C16       1.0  0.93762  0.33234  0.52619  1.0000 0.5675337384
C   C17       1.0  0.00401  0.01638  0.62186  1.0000 0.3003360176
C   C18       1.0  0.83900  0.05126  0.57946  1.0000 -0.1252607535
C   C19       1.0  0.90196  0.23317  0.54279  1.0000 -0.0094724965
C   C20       1.0  0.93655  0.08073  0.59014  1.0000 0.0123885467
C   C21       1.0  0.80559  0.20306  0.53304  1.0000 -0.1084645148
C   C22       1.0  0.96687  0.17073  0.56843  1.0000 -0.1496694093
C   C23       1.0  0.13741  0.95993  0.66323  1.0000 0.1271009216
C   C24       1.0  0.06157  0.89245  0.67218  1.0000 0.1368023003
C   C25       1.0  0.17104  0.78893  0.72185  1.0000 -0.1084645148
C   C26       1.0  0.24697  0.85652  0.71132  1.0000 -0.1084645148
C   C27       1.0  0.23099  0.94263  0.68253  1.0000 -0.1819285383
C   C28       1.0  0.07834  0.80477  0.70151  1.0000 -0.1496694093
C   C29       1.0  0.67086  0.07333  0.53149  1.0000 0.5675337384
C   C30       1.0  0.77450  0.11074  0.54899  1.0000 -0.0209471719
C   C31       1.0  0.33234  0.52619  0.93762  1.0000 0.5675337384
C   C32       1.0  0.01638  0.62186  0.00401  1.0000 0.3003360176
C   C33       1.0  0.05126  0.57946  0.83900  1.0000 -0.1252607535
C   C34       1.0  0.23317  0.54279  0.90196  1.0000 -0.0094724965
C   C35       1.0  0.08073  0.59014  0.93655  1.0000 0.0123885467
C   C36       1.0  0.20306  0.53304  0.80559  1.0000 -0.1084645148
C   C37       1.0  0.17073  0.56843  0.96687  1.0000 -0.1496694093
C   C38       1.0  0.95993  0.66323  0.13741  1.0000 0.1271009216
C   C39       1.0  0.89245  0.67218  0.06157  1.0000 0.1368023003
C   C40       1.0  0.78893  0.72185  0.17104  1.0000 -0.1084645148
C   C41       1.0  0.85652  0.71132  0.24697  1.0000 -0.1084645148
C   C42       1.0  0.94263  0.68253  0.23099  1.0000 -0.1819285383
C   C43       1.0  0.80477  0.70151  0.07834  1.0000 -0.1496694093
C   C44       1.0  0.07333  0.53149  0.67086  1.0000 0.5675337384
C   C45       1.0  0.11074  0.54899  0.77450  1.0000 -0.0209471719
C   C46       1.0  0.47381  0.06238  0.66766  1.0000 0.5675337384
C   C47       1.0  0.37814  0.99599  0.98362  1.0000 0.3003360176
C   C48       1.0  0.42054  0.16100  0.94874  1.0000 -0.1252607535
C   C49       1.0  0.45721  0.09804  0.76683  1.0000 -0.0094724965
C   C50       1.0  0.40986  0.06345  0.91927  1.0000 0.0123885467
C   C51       1.0  0.46696  0.19441  0.79694  1.0000 -0.1084645148
C   C52       1.0  0.43157  0.03313  0.82927  1.0000 -0.1496694093
C   C53       1.0  0.33677  0.86259  0.04007  1.0000 0.1271009216
C   C54       1.0  0.32782  0.93843  0.10755  1.0000 0.1368023003
C   C55       1.0  0.27815  0.82896  0.21107  1.0000 -0.1084645148
C   C56       1.0  0.28868  0.75303  0.14348  1.0000 -0.1084645148
C   C57       1.0  0.31747  0.76901  0.05737  1.0000 -0.1819285383
C   C58       1.0  0.29849  0.92166  0.19523  1.0000 -0.1496694093
C   C59       1.0  0.46851  0.32914  0.92667  1.0000 0.5675337384
C   C60       1.0  0.45101  0.22550  0.88926  1.0000 -0.0209471719
C   C61       1.0  0.06238  0.66766  0.47381  1.0000 0.5675337384
C   C62       1.0  0.99599  0.98362  0.37814  1.0000 0.3003360176
C   C63       1.0  0.16100  0.94874  0.42054  1.0000 -0.1252607535
C   C64       1.0  0.09804  0.76683  0.45721  1.0000 -0.0094724965
C   C65       1.0  0.06345  0.91927  0.40986  1.0000 0.0123885467
C   C66       1.0  0.19441  0.79694  0.46696  1.0000 -0.1084645148
C   C67       1.0  0.03313  0.82927  0.43157  1.0000 -0.1496694093
C   C68       1.0  0.86259  0.04007  0.33677  1.0000 0.1271009216
C   C69       1.0  0.93843  0.10755  0.32782  1.0000 0.1368023003
C   C70       1.0  0.82896  0.21107  0.27815  1.0000 -0.1084645148
C   C71       1.0  0.75303  0.14348  0.28868  1.0000 -0.1084645148
C   C72       1.0  0.76901  0.05737  0.31747  1.0000 -0.1819285383
C   C73       1.0  0.92166  0.19523  0.29849  1.0000 -0.1496694093
C   C74       1.0  0.32914  0.92667  0.46851  1.0000 0.5675337384
C   C75       1.0  0.22550  0.88926  0.45101  1.0000 -0.0209471719
C   C76       1.0  0.66766  0.47381  0.06238  1.0000 0.5675337384
C   C77       1.0  0.98362  0.37814  0.99599  1.0000 0.3003360176
C   C78       1.0  0.94874  0.42054  0.16100  1.0000 -0.1252607535
C   C79       1.0  0.76683  0.45721  0.09804  1.0000 -0.0094724965
C   C80       1.0  0.91927  0.40986  0.06345  1.0000 0.0123885467
C   C81       1.0  0.79694  0.46696  0.19441  1.0000 -0.1084645148
C   C82       1.0  0.82927  0.43157  0.03313  1.0000 -0.1496694093
C   C83       1.0  0.04007  0.33677  0.86259  1.0000 0.1181799817
C   C84       1.0  0.10755  0.32782  0.93843  1.0000 0.1368023003
C   C85       1.0  0.21107  0.27815  0.82896  1.0000 -0.1084645148
C   C86       1.0  0.14348  0.28868  0.75303  1.0000 -0.1084645148
C   C87       1.0  0.05737  0.31747  0.76901  1.0000 -0.1819285383
C   C88       1.0  0.19523  0.29849  0.92166  1.0000 -0.1496694093
C   C89       1.0  0.92667  0.46851  0.32914  1.0000 0.5675337384
C   C90       1.0  0.88926  0.45101  0.22550  1.0000 -0.0209471719
N   N1        1.0  0.63162  0.09831  0.03775  1.0000 -0.3043485126
N   N2        1.0  0.64482  0.97774  0.92930  1.0000 -0.4220582227
N   N3        1.0  0.09831  0.03775  0.63162  1.0000 -0.3053919455
N   N4        1.0  0.97774  0.92930  0.64482  1.0000 -0.4220582227
N   N5        1.0  0.03775  0.63162  0.09831  1.0000 -0.3043485126
N   N6        1.0  0.92930  0.64482  0.97774  1.0000 -0.4220582227
N   N7        1.0  0.36838  0.90169  0.96225  1.0000 -0.3043485126
N   N8        1.0  0.35518  0.02226  0.07070  1.0000 -0.4220582227
N   N9        1.0  0.90169  0.96225  0.36838  1.0000 -0.3043485126
N   N10       1.0  0.02226  0.07070  0.35518  1.0000 -0.4220582227
N   N11       1.0  0.96225  0.36838  0.90169  1.0000 -0.3043485126
N   N12       1.0  0.07070  0.35518  0.02226  1.0000 -0.4220582227
O   O1        1.0  0.50531  0.02050  0.34687  1.0000 -0.5069726935
O   O2        1.0  0.53757  0.88166  0.39459  1.0000 -0.5069726935
O   O3        1.0  0.50138  0.61383  0.12798  1.0000 -0.4938045522
O   O4        1.0  0.54662  0.64931  0.98867  1.0000 -0.527153947
O   O5        1.0  0.02050  0.34687  0.50531  1.0000 -0.5069726935
O   O6        1.0  0.88166  0.39459  0.53757  1.0000 -0.5069726935
O   O7        1.0  0.61383  0.12798  0.50138  1.0000 -0.4938045522
O   O8        1.0  0.64931  0.98867  0.54662  1.0000 -0.527153947
O   O9        1.0  0.34687  0.50531  0.02050  1.0000 -0.5069726935
O   O10       1.0  0.39459  0.53757  0.88166  1.0000 -0.5069726935
O   O11       1.0  0.12798  0.50138  0.61383  1.0000 -0.4938045522
O   O12       1.0  0.98867  0.54662  0.64931  1.0000 -0.527153947
O   O13       1.0  0.49469  0.97950  0.65313  1.0000 -0.5069726935
O   O14       1.0  0.46243  0.11834  0.60541  1.0000 -0.5069726935
O   O15       1.0  0.49862  0.38617  0.87202  1.0000 -0.4938045522
O   O16       1.0  0.45338  0.35069  0.01133  1.0000 -0.527153947
O   O17       1.0  0.97950  0.65313  0.49469  1.0000 -0.5069726935
O   O18       1.0  0.11834  0.60541  0.46243  1.0000 -0.5069726935
O   O19       1.0  0.38617  0.87202  0.49862  1.0000 -0.4938045522
O   O20       1.0  0.35069  0.01133  0.45338  1.0000 -0.527153947
O   O21       1.0  0.65313  0.49469  0.97950  1.0000 -0.5069726935
O   O22       1.0  0.60541  0.46243  0.11834  1.0000 -0.5069726935
O   O23       1.0  0.87202  0.49862  0.38617  1.0000 -0.4938045522
O   O24       1.0  0.01133  0.45338  0.35069  1.0000 -0.527153947
