# DDEC6 charges by PACMAN v1.1 (https://github.com/mtap-research/PACMAN-charge/)
data_2019[Eu][nan]3[ASR]8
_chemical_formula_sum              "Eu4 H96 C156 N4 O24"
_cell_length_a       9.4087
_cell_length_b       24.1339
_cell_length_c       16.5969
_cell_angle_alpha    90
_cell_angle_beta     103.105
_cell_angle_gamma    90

_symmetry_space_group_name_H-M    "P 1"
_symmetry_Int_Tables_number       1

loop_
  _symmetry_equiv_pos_as_xyz
  'x, y, z'

loop_
  _atom_site_type_symbol
  _atom_site_label
  _atom_site_symmetry_multiplicity
  _atom_site_fract_x
  _atom_site_fract_y
  _atom_site_fract_z
  _atom_site_occupancy
  _atom_site_charge
Eu  Eu1       1.0  0.24113  0.48877  0.48391  1.0000 2.0795725415
Eu  Eu2       1.0  0.25887  0.98877  0.51609  1.0000 2.0795725415
Eu  Eu3       1.0  0.75887  0.51123  0.51609  1.0000 2.0795725415
Eu  Eu4       1.0  0.74113  0.01123  0.48391  1.0000 2.0795725415
H   H1        1.0  0.40380  0.88050  0.20900  1.0000 0.1106929457
H   H2        1.0  0.33360  0.84430  0.32330  1.0000 0.1106929457
H   H3        1.0  0.55280  0.70380  0.30150  1.0000 0.1106929457
H   H4        1.0  0.63050  0.74200  0.19000  1.0000 0.1207209533
H   H5        1.0  0.36110  0.81630  0.45370  1.0000 0.1106929457
H   H6        1.0  0.25220  0.77910  0.55490  1.0000 0.1207209533
H   H7        1.0  0.20150  0.68490  0.55590  1.0000 0.1207209533
H   H8        1.0  0.36930  0.66550  0.35450  1.0000 0.1106929457
H   H9        1.0  0.31970  0.78990  0.06700  1.0000 0.1207209533
H   H10       1.0  0.13120  0.81150  0.95820  1.0000 0.1106929457
H   H11       1.0  0.35410  0.94110  0.90060  1.0000 0.1207209533
H   H12       1.0  0.54770  0.91820  0.00530  1.0000 0.1207209533
H   H13       1.0  0.93320  0.86480  0.89920  1.0000 0.1028677466
H   H14       1.0  0.74230  0.88160  0.78500  1.0000 0.1106929457
H   H15       1.0  0.78490  0.91770  0.66380  1.0000 0.1207209533
H   H16       1.0  0.21730  0.91960  0.76940  1.0000 0.1207209533
H   H17       1.0  0.69310  0.90490  0.24040  1.0000 0.1298856492
H   H18       1.0  0.91700  0.95030  0.26030  1.0000 0.1207209533
H   H19       1.0  0.98750  0.88170  0.05280  1.0000 0.1106929457
H   H20       1.0  0.76590  0.83540  0.03400  1.0000 0.1298856492
H   H21       1.0  0.16980  0.94590  0.29840  1.0000 0.1207209533
H   H22       1.0  0.48910  0.01540  0.20380  1.0000 0.1207209533
H   H23       1.0  0.34610  0.00570  0.07260  1.0000 0.1028677466
H   H24       1.0  0.11710  0.96490  0.05110  1.0000 0.1106929457
H   H25       1.0  0.09620  0.38050  0.79100  1.0000 0.1106929457
H   H26       1.0  0.16640  0.34430  0.67670  1.0000 0.1106929457
H   H27       1.0  0.94720  0.20380  0.69850  1.0000 0.1106929457
H   H28       1.0  0.86950  0.24200  0.81000  1.0000 0.1207209533
H   H29       1.0  0.13890  0.31630  0.54630  1.0000 0.1106929457
H   H30       1.0  0.24780  0.27910  0.44510  1.0000 0.1207209533
H   H31       1.0  0.29850  0.18490  0.44410  1.0000 0.1207209533
H   H32       1.0  0.13070  0.16550  0.64550  1.0000 0.1106929457
H   H33       1.0  0.18030  0.28990  0.93300  1.0000 0.1207209533
H   H34       1.0  0.36880  0.31150  0.04180  1.0000 0.1106929457
H   H35       1.0  0.14590  0.44110  0.09940  1.0000 0.1207209533
H   H36       1.0  0.95230  0.41820  0.99470  1.0000 0.1207209533
H   H37       1.0  0.56680  0.36480  0.10080  1.0000 0.1028677466
H   H38       1.0  0.75770  0.38160  0.21500  1.0000 0.1106929457
H   H39       1.0  0.71510  0.41770  0.33620  1.0000 0.1207209533
H   H40       1.0  0.28270  0.41960  0.23060  1.0000 0.1207209533
H   H41       1.0  0.80690  0.40490  0.75960  1.0000 0.1298856492
H   H42       1.0  0.58300  0.45030  0.73970  1.0000 0.1207209533
H   H43       1.0  0.51250  0.38170  0.94720  1.0000 0.1106929457
H   H44       1.0  0.73410  0.33540  0.96600  1.0000 0.1298856492
H   H45       1.0  0.33020  0.44590  0.70160  1.0000 0.1207209533
H   H46       1.0  0.01090  0.51540  0.79620  1.0000 0.1207209533
H   H47       1.0  0.15390  0.50570  0.92740  1.0000 0.1028677466
H   H48       1.0  0.38290  0.46490  0.94890  1.0000 0.1106929457
H   H49       1.0  0.59620  0.11950  0.79100  1.0000 0.1106929457
H   H50       1.0  0.66640  0.15570  0.67670  1.0000 0.1106929457
H   H51       1.0  0.44720  0.29620  0.69850  1.0000 0.1106929457
H   H52       1.0  0.36950  0.25800  0.81000  1.0000 0.1207209533
H   H53       1.0  0.63890  0.18370  0.54630  1.0000 0.1106929457
H   H54       1.0  0.74780  0.22090  0.44510  1.0000 0.1207209533
H   H55       1.0  0.79850  0.31510  0.44410  1.0000 0.1207209533
H   H56       1.0  0.63070  0.33450  0.64550  1.0000 0.1106929457
H   H57       1.0  0.68030  0.21010  0.93300  1.0000 0.1207209533
H   H58       1.0  0.86880  0.18850  0.04180  1.0000 0.1106929457
H   H59       1.0  0.64590  0.05890  0.09940  1.0000 0.1207209533
H   H60       1.0  0.45230  0.08180  0.99470  1.0000 0.1207209533
H   H61       1.0  0.06680  0.13520  0.10080  1.0000 0.1028677466
H   H62       1.0  0.25770  0.11840  0.21500  1.0000 0.1106929457
H   H63       1.0  0.21510  0.08230  0.33620  1.0000 0.1207209533
H   H64       1.0  0.78270  0.08040  0.23060  1.0000 0.1207209533
H   H65       1.0  0.30690  0.09510  0.75960  1.0000 0.1298856492
H   H66       1.0  0.08300  0.04970  0.73970  1.0000 0.1207209533
H   H67       1.0  0.01250  0.11830  0.94720  1.0000 0.1106929457
H   H68       1.0  0.23410  0.16460  0.96600  1.0000 0.1298856492
H   H69       1.0  0.83020  0.05410  0.70160  1.0000 0.1207209533
H   H70       1.0  0.51090  0.98460  0.79620  1.0000 0.1207209533
H   H71       1.0  0.65390  0.99430  0.92740  1.0000 0.1028677466
H   H72       1.0  0.88290  0.03510  0.94890  1.0000 0.1106929457
H   H73       1.0  0.90380  0.61950  0.20900  1.0000 0.1106929457
H   H74       1.0  0.83360  0.65570  0.32330  1.0000 0.1106929457
H   H75       1.0  0.05280  0.79620  0.30150  1.0000 0.1106929457
H   H76       1.0  0.13050  0.75800  0.19000  1.0000 0.1207209533
H   H77       1.0  0.86110  0.68370  0.45370  1.0000 0.1106929457
H   H78       1.0  0.75220  0.72090  0.55490  1.0000 0.1207209533
H   H79       1.0  0.70150  0.81510  0.55590  1.0000 0.1207209533
H   H80       1.0  0.86930  0.83450  0.35450  1.0000 0.1106929457
H   H81       1.0  0.81970  0.71010  0.06700  1.0000 0.1207209533
H   H82       1.0  0.63120  0.68850  0.95820  1.0000 0.1106929457
H   H83       1.0  0.85410  0.55890  0.90060  1.0000 0.1207209533
H   H84       1.0  0.04770  0.58180  0.00530  1.0000 0.1207209533
H   H85       1.0  0.43320  0.63520  0.89920  1.0000 0.1028677466
H   H86       1.0  0.24230  0.61840  0.78500  1.0000 0.1106929457
H   H87       1.0  0.28490  0.58230  0.66380  1.0000 0.1207209533
H   H88       1.0  0.71730  0.58040  0.76940  1.0000 0.1207209533
H   H89       1.0  0.19310  0.59510  0.24040  1.0000 0.1298856492
H   H90       1.0  0.41700  0.54970  0.26030  1.0000 0.1207209533
H   H91       1.0  0.48750  0.61830  0.05280  1.0000 0.1106929457
H   H92       1.0  0.26590  0.66460  0.03400  1.0000 0.1298856492
H   H93       1.0  0.66980  0.55410  0.29840  1.0000 0.1207209533
H   H94       1.0  0.98910  0.48460  0.20380  1.0000 0.1207209533
H   H95       1.0  0.84610  0.49430  0.07260  1.0000 0.1028677466
H   H96       1.0  0.61710  0.53510  0.05110  1.0000 0.1106929457
C   C1        1.0  0.52670  0.81530  0.19010  1.0000 0.1560179273
C   C2        1.0  0.43580  0.84500  0.22860  1.0000 -0.1706397106
C   C3        1.0  0.39140  0.82280  0.29590  1.0000 -0.1301891178
C   C4        1.0  0.43090  0.76920  0.32400  1.0000 0.0600529126
C   C5        1.0  0.52250  0.73970  0.28340  1.0000 -0.1301891178
C   C6        1.0  0.56970  0.76250  0.21670  1.0000 -0.1803797839
C   C7        1.0  0.37290  0.74420  0.39030  1.0000 0.0600529126
C   C8        1.0  0.33970  0.77830  0.45300  1.0000 -0.1392725756
C   C9        1.0  0.27510  0.75580  0.51420  1.0000 -0.1014600975
C   C10       1.0  0.24510  0.69990  0.51510  1.0000 -0.1014600975
C   C11       1.0  0.28060  0.66580  0.45440  1.0000 -0.0285328356
C   C12       1.0  0.34450  0.68900  0.39430  1.0000 -0.1392725756
C   C13       1.0  0.25500  0.60550  0.45540  1.0000 0.5707852374
C   C14       1.0  0.45420  0.85270  0.05110  1.0000 0.189957125
C   C15       1.0  0.32780  0.82070  0.03360  1.0000 -0.1878839726
C   C16       1.0  0.21570  0.83370  0.96850  1.0000 -0.1392725756
C   C17       1.0  0.22180  0.87800  0.91710  1.0000 0.0600529126
C   C18       1.0  0.34770  0.91000  0.93370  1.0000 -0.1392725756
C   C19       1.0  0.46170  0.89710  0.99720  1.0000 -0.1803797839
C   C20       1.0  0.09790  0.89060  0.84500  1.0000 0.0654367189
C   C21       1.0  0.95270  0.87920  0.85020  1.0000 -0.1592676082
C   C22       1.0  0.83860  0.88960  0.78160  1.0000 -0.0908739922
C   C23       1.0  0.86330  0.91130  0.70920  1.0000 -0.1014600975
C   C24       1.0  0.00620  0.92370  0.70390  1.0000 -0.0285328356
C   C25       1.0  0.12090  0.91210  0.77310  1.0000 -0.1528700238
C   C26       1.0  0.03720  0.94800  0.62780  1.0000 0.6396140809
C   C27       1.0  0.70880  0.86650  0.13400  1.0000 0.1660017799
C   C28       1.0  0.75260  0.90030  0.20240  1.0000 -0.1706397106
C   C29       1.0  0.88680  0.92730  0.21390  1.0000 -0.1133081709
C   C30       1.0  0.97750  0.92120  0.15890  1.0000 0.0600529126
C   C31       1.0  0.92920  0.88660  0.09130  1.0000 -0.1392725756
C   C32       1.0  0.79590  0.85910  0.07960  1.0000 -0.1878839726
C   C33       1.0  0.12020  0.94870  0.17260  1.0000 0.0767805855
C   C34       1.0  0.20570  0.95670  0.25230  1.0000 -0.1592676082
C   C35       1.0  0.34320  0.98050  0.26400  1.0000 -0.0202085326
C   C36       1.0  0.39630  0.99900  0.19570  1.0000 -0.1301891178
C   C37       1.0  0.31160  0.99300  0.11820  1.0000 -0.0908739922
C   C38       1.0  0.17430  0.96840  0.10520  1.0000 -0.1528700238
C   C39       1.0  0.43710  0.98760  0.34970  1.0000 0.6396140809
C   C40       1.0  0.97330  0.31530  0.80990  1.0000 0.1560179273
C   C41       1.0  0.06420  0.34500  0.77140  1.0000 -0.1706397106
C   C42       1.0  0.10860  0.32280  0.70410  1.0000 -0.1301891178
C   C43       1.0  0.06910  0.26920  0.67600  1.0000 0.0600529126
C   C44       1.0  0.97750  0.23970  0.71660  1.0000 -0.1301891178
C   C45       1.0  0.93030  0.26250  0.78330  1.0000 -0.1803797839
C   C46       1.0  0.12710  0.24420  0.60970  1.0000 0.0600529126
C   C47       1.0  0.16030  0.27830  0.54700  1.0000 -0.1392725756
C   C48       1.0  0.22490  0.25580  0.48580  1.0000 -0.1014600975
C   C49       1.0  0.25490  0.19990  0.48490  1.0000 -0.1014600975
C   C50       1.0  0.21940  0.16580  0.54560  1.0000 -0.0285328356
C   C51       1.0  0.15550  0.18900  0.60570  1.0000 -0.1392725756
C   C52       1.0  0.24500  0.10550  0.54460  1.0000 0.5707852374
C   C53       1.0  0.04580  0.35270  0.94890  1.0000 0.189957125
C   C54       1.0  0.17220  0.32070  0.96640  1.0000 -0.1878839726
C   C55       1.0  0.28430  0.33370  0.03150  1.0000 -0.1392725756
C   C56       1.0  0.27820  0.37800  0.08290  1.0000 0.0600529126
C   C57       1.0  0.15230  0.41000  0.06630  1.0000 -0.1392725756
C   C58       1.0  0.03830  0.39710  0.00280  1.0000 -0.1803797839
C   C59       1.0  0.40210  0.39060  0.15500  1.0000 0.0654367189
C   C60       1.0  0.54730  0.37920  0.14980  1.0000 -0.1592676082
C   C61       1.0  0.66140  0.38960  0.21840  1.0000 -0.0908739922
C   C62       1.0  0.63670  0.41130  0.29080  1.0000 -0.1014600975
C   C63       1.0  0.49380  0.42370  0.29610  1.0000 -0.0285328356
C   C64       1.0  0.37910  0.41210  0.22690  1.0000 -0.1528700238
C   C65       1.0  0.46280  0.44800  0.37220  1.0000 0.6396140809
C   C66       1.0  0.79120  0.36650  0.86600  1.0000 0.1660017799
C   C67       1.0  0.74740  0.40030  0.79760  1.0000 -0.1706397106
C   C68       1.0  0.61320  0.42730  0.78610  1.0000 -0.1133081709
C   C69       1.0  0.52250  0.42120  0.84110  1.0000 0.0600529126
C   C70       1.0  0.57080  0.38660  0.90870  1.0000 -0.1392725756
C   C71       1.0  0.70410  0.35910  0.92040  1.0000 -0.1878839726
C   C72       1.0  0.37980  0.44870  0.82740  1.0000 0.0767805855
C   C73       1.0  0.29430  0.45670  0.74770  1.0000 -0.1592676082
C   C74       1.0  0.15680  0.48050  0.73600  1.0000 -0.0202085326
C   C75       1.0  0.10370  0.49900  0.80430  1.0000 -0.1301891178
C   C76       1.0  0.18840  0.49300  0.88180  1.0000 -0.0908739922
C   C77       1.0  0.32570  0.46840  0.89480  1.0000 -0.1528700238
C   C78       1.0  0.06290  0.48760  0.65030  1.0000 0.6396140809
C   C79       1.0  0.47330  0.18470  0.80990  1.0000 0.1560179273
C   C80       1.0  0.56420  0.15500  0.77140  1.0000 -0.1706397106
C   C81       1.0  0.60860  0.17720  0.70410  1.0000 -0.1301891178
C   C82       1.0  0.56910  0.23080  0.67600  1.0000 0.0600529126
C   C83       1.0  0.47750  0.26030  0.71660  1.0000 -0.1301891178
C   C84       1.0  0.43030  0.23750  0.78330  1.0000 -0.1803797839
C   C85       1.0  0.62710  0.25580  0.60970  1.0000 0.0600529126
C   C86       1.0  0.66030  0.22170  0.54700  1.0000 -0.1392725756
C   C87       1.0  0.72490  0.24420  0.48580  1.0000 -0.1014600975
C   C88       1.0  0.75490  0.30010  0.48490  1.0000 -0.1014600975
C   C89       1.0  0.71940  0.33420  0.54560  1.0000 -0.0285328356
C   C90       1.0  0.65550  0.31100  0.60570  1.0000 -0.1392725756
C   C91       1.0  0.74500  0.39450  0.54460  1.0000 0.5707852374
C   C92       1.0  0.54580  0.14730  0.94890  1.0000 0.189957125
C   C93       1.0  0.67220  0.17930  0.96640  1.0000 -0.1878839726
C   C94       1.0  0.78430  0.16630  0.03150  1.0000 -0.1392725756
C   C95       1.0  0.77820  0.12200  0.08290  1.0000 0.0600529126
C   C96       1.0  0.65230  0.09000  0.06630  1.0000 -0.1392725756
C   C97       1.0  0.53830  0.10290  0.00280  1.0000 -0.1803797839
C   C98       1.0  0.90210  0.10940  0.15500  1.0000 0.0654367189
C   C99       1.0  0.04730  0.12080  0.14980  1.0000 -0.1592676082
C   C100      1.0  0.16140  0.11040  0.21840  1.0000 -0.0908739922
C   C101      1.0  0.13670  0.08870  0.29080  1.0000 -0.1014600975
C   C102      1.0  0.99380  0.07630  0.29610  1.0000 -0.0285328356
C   C103      1.0  0.87910  0.08790  0.22690  1.0000 -0.1528700238
C   C104      1.0  0.96280  0.05200  0.37220  1.0000 0.6396140809
C   C105      1.0  0.29120  0.13350  0.86600  1.0000 0.1660017799
C   C106      1.0  0.24740  0.09970  0.79760  1.0000 -0.1706397106
C   C107      1.0  0.11320  0.07270  0.78610  1.0000 -0.1133081709
C   C108      1.0  0.02250  0.07880  0.84110  1.0000 0.0600529126
C   C109      1.0  0.07080  0.11340  0.90870  1.0000 -0.1392725756
C   C110      1.0  0.20410  0.14090  0.92040  1.0000 -0.1878839726
C   C111      1.0  0.87980  0.05130  0.82740  1.0000 0.0767805855
C   C112      1.0  0.79430  0.04330  0.74770  1.0000 -0.1592676082
C   C113      1.0  0.65680  0.01950  0.73600  1.0000 -0.0202085326
C   C114      1.0  0.60370  0.00100  0.80430  1.0000 -0.1301891178
C   C115      1.0  0.68840  0.00700  0.88180  1.0000 -0.0908739922
C   C116      1.0  0.82570  0.03160  0.89480  1.0000 -0.1528700238
C   C117      1.0  0.56290  0.01240  0.65030  1.0000 0.6396140809
C   C118      1.0  0.02670  0.68470  0.19010  1.0000 0.1560179273
C   C119      1.0  0.93580  0.65500  0.22860  1.0000 -0.1706397106
C   C120      1.0  0.89140  0.67720  0.29590  1.0000 -0.1301891178
C   C121      1.0  0.93090  0.73080  0.32400  1.0000 0.0600529126
C   C122      1.0  0.02250  0.76030  0.28340  1.0000 -0.1301891178
C   C123      1.0  0.06970  0.73750  0.21670  1.0000 -0.1803797839
C   C124      1.0  0.87290  0.75580  0.39030  1.0000 0.0600529126
C   C125      1.0  0.83970  0.72170  0.45300  1.0000 -0.1392725756
C   C126      1.0  0.77510  0.74420  0.51420  1.0000 -0.1014600975
C   C127      1.0  0.74510  0.80010  0.51510  1.0000 -0.1014600975
C   C128      1.0  0.78060  0.83420  0.45440  1.0000 -0.0285328356
C   C129      1.0  0.84450  0.81100  0.39430  1.0000 -0.1392725756
C   C130      1.0  0.75500  0.89450  0.45540  1.0000 0.5707852374
C   C131      1.0  0.95420  0.64730  0.05110  1.0000 0.189957125
C   C132      1.0  0.82780  0.67930  0.03360  1.0000 -0.1878839726
C   C133      1.0  0.71570  0.66630  0.96850  1.0000 -0.1392725756
C   C134      1.0  0.72180  0.62200  0.91710  1.0000 0.0600529126
C   C135      1.0  0.84770  0.59000  0.93370  1.0000 -0.1392725756
C   C136      1.0  0.96170  0.60290  0.99720  1.0000 -0.1803797839
C   C137      1.0  0.59790  0.60940  0.84500  1.0000 0.0654367189
C   C138      1.0  0.45270  0.62080  0.85020  1.0000 -0.1592676082
C   C139      1.0  0.33860  0.61040  0.78160  1.0000 -0.0908739922
C   C140      1.0  0.36330  0.58870  0.70920  1.0000 -0.1014600975
C   C141      1.0  0.50620  0.57630  0.70390  1.0000 -0.0285328356
C   C142      1.0  0.62090  0.58790  0.77310  1.0000 -0.1528700238
C   C143      1.0  0.53720  0.55200  0.62780  1.0000 0.6396140809
C   C144      1.0  0.20880  0.63350  0.13400  1.0000 0.1660017799
C   C145      1.0  0.25260  0.59970  0.20240  1.0000 -0.1706397106
C   C146      1.0  0.38680  0.57270  0.21390  1.0000 -0.1133081709
C   C147      1.0  0.47750  0.57880  0.15890  1.0000 0.0600529126
C   C148      1.0  0.42920  0.61340  0.09130  1.0000 -0.1392725756
C   C149      1.0  0.29590  0.64090  0.07960  1.0000 -0.1878839726
C   C150      1.0  0.62020  0.55130  0.17260  1.0000 0.0767805855
C   C151      1.0  0.70570  0.54330  0.25230  1.0000 -0.1592676082
C   C152      1.0  0.84320  0.51950  0.26400  1.0000 -0.0202085326
C   C153      1.0  0.89630  0.50100  0.19570  1.0000 -0.1301891178
C   C154      1.0  0.81160  0.50700  0.11820  1.0000 -0.0908739922
C   C155      1.0  0.67430  0.53160  0.10520  1.0000 -0.1528700238
C   C156      1.0  0.93710  0.51240  0.34970  1.0000 0.6396140809
N   N1        1.0  0.56980  0.83810  0.11850  1.0000 -0.1878839726
N   N2        1.0  0.93020  0.33810  0.88150  1.0000 -0.1878839726
N   N3        1.0  0.43020  0.16190  0.88150  1.0000 -0.1878839726
N   N4        1.0  0.06980  0.66190  0.11850  1.0000 -0.1878839726
O   O1        1.0  0.32490  0.57240  0.41820  1.0000 -0.6365426948
O   O2        1.0  0.16800  0.58570  0.49570  1.0000 -0.6365426948
O   O3        1.0  0.16320  0.94160  0.61640  1.0000 -0.6608106365
O   O4        1.0  0.93980  0.97490  0.58170  1.0000 -0.6783859899
O   O5        1.0  0.38080  0.98360  0.41080  1.0000 -0.7155866196
O   O6        1.0  0.57020  0.99660  0.35630  1.0000 -0.6321898272
O   O7        1.0  0.17510  0.07240  0.58180  1.0000 -0.6365426948
O   O8        1.0  0.33200  0.08570  0.50430  1.0000 -0.6365426948
O   O9        1.0  0.33680  0.44160  0.38360  1.0000 -0.6608106365
O   O10       1.0  0.56020  0.47490  0.41830  1.0000 -0.6783859899
O   O11       1.0  0.11920  0.48360  0.58920  1.0000 -0.7155866196
O   O12       1.0  0.92980  0.49660  0.64370  1.0000 -0.6321898272
O   O13       1.0  0.67510  0.42760  0.58180  1.0000 -0.6365426948
O   O14       1.0  0.83200  0.41430  0.50430  1.0000 -0.6365426948
O   O15       1.0  0.83680  0.05840  0.38360  1.0000 -0.6608106365
O   O16       1.0  0.06020  0.02510  0.41830  1.0000 -0.6783859899
O   O17       1.0  0.61920  0.01640  0.58920  1.0000 -0.7155866196
O   O18       1.0  0.42980  0.00340  0.64370  1.0000 -0.6321898272
O   O19       1.0  0.82490  0.92760  0.41820  1.0000 -0.6365426948
O   O20       1.0  0.66800  0.91430  0.49570  1.0000 -0.6365426948
O   O21       1.0  0.66320  0.55840  0.61640  1.0000 -0.6608106365
O   O22       1.0  0.43980  0.52510  0.58170  1.0000 -0.6783859899
O   O23       1.0  0.88080  0.51640  0.41080  1.0000 -0.7155866196
O   O24       1.0  0.07020  0.50340  0.35630  1.0000 -0.6321898272
