# DDEC6 charges by PACMAN v1.1 (https://github.com/mtap-research/PACMAN-charge/)
data_2019[Zn][sab]3[ASR]1
_chemical_formula_sum              "Zn12 H24 C72 O52"
_cell_length_a       16.9781
_cell_length_b       16.9781
_cell_length_c       16.9781
_cell_angle_alpha    105.923
_cell_angle_beta     105.923
_cell_angle_gamma    116.828

_symmetry_space_group_name_H-M    "P 1"
_symmetry_Int_Tables_number       1

loop_
  _symmetry_equiv_pos_as_xyz
  'x, y, z'

loop_
  _atom_site_type_symbol
  _atom_site_label
  _atom_site_symmetry_multiplicity
  _atom_site_fract_x
  _atom_site_fract_y
  _atom_site_fract_z
  _atom_site_occupancy
  _atom_site_charge
Zn  Zn1       1.0  0.46822  0.09157  0.13899  1.0000 0.9834798536
Zn  Zn2       1.0  0.95258  0.32923  0.86101  1.0000 0.9865752619
Zn  Zn3       1.0  0.09157  0.95258  0.62335  1.0000 0.9865752619
Zn  Zn4       1.0  0.32923  0.46822  0.37665  1.0000 0.9865752619
Zn  Zn5       1.0  0.96822  0.82923  0.37665  1.0000 0.9834798536
Zn  Zn6       1.0  0.45258  0.59157  0.62335  1.0000 0.9865752619
Zn  Zn7       1.0  0.59157  0.96822  0.13899  1.0000 0.9834798536
Zn  Zn8       1.0  0.82923  0.45258  0.86101  1.0000 0.9865752619
Zn  Zn9       1.0  0.20063  0.01115  0.50000  1.0000 1.0072594147
Zn  Zn10      1.0  0.51115  0.70063  0.50000  1.0000 1.0072594147
Zn  Zn11      1.0  0.01115  0.51115  0.81052  1.0000 1.0072594147
Zn  Zn12      1.0  0.70063  0.20063  0.18948  1.0000 1.0072594147
H   H1        1.0  0.18641  0.79681  0.03144  1.0000 0.1422019947
H   H2        1.0  0.27049  0.95587  0.29862  1.0000 0.1422019947
H   H3        1.0  0.00449  0.69244  0.14007  1.0000 0.1422019947
H   H4        1.0  0.76537  0.15497  0.96856  1.0000 0.1422019947
H   H5        1.0  0.65725  0.97187  0.70138  1.0000 0.1422019947
H   H6        1.0  0.55237  0.86442  0.85993  1.0000 0.1422019947
H   H7        1.0  0.79681  0.76537  0.61040  1.0000 0.1422019947
H   H8        1.0  0.95587  0.65725  0.68538  1.0000 0.1422019947
H   H9        1.0  0.69244  0.55237  0.68795  1.0000 0.1422019947
H   H10       1.0  0.15497  0.18641  0.38960  1.0000 0.1422019947
H   H11       1.0  0.97187  0.27049  0.31462  1.0000 0.1422019947
H   H12       1.0  0.86442  0.00449  0.31205  1.0000 0.1422019947
H   H13       1.0  0.68641  0.65497  0.38960  1.0000 0.1422019947
H   H14       1.0  0.77049  0.47187  0.31462  1.0000 0.1422019947
H   H15       1.0  0.50449  0.36442  0.31205  1.0000 0.1422019947
H   H16       1.0  0.26537  0.29681  0.61040  1.0000 0.1422019947
H   H17       1.0  0.15725  0.45587  0.68538  1.0000 0.1422019947
H   H18       1.0  0.05237  0.19244  0.68795  1.0000 0.1422019947
H   H19       1.0  0.29681  0.68641  0.03144  1.0000 0.1422019947
H   H20       1.0  0.45587  0.77049  0.29862  1.0000 0.1422019947
H   H21       1.0  0.19244  0.50449  0.14007  1.0000 0.1422019947
H   H22       1.0  0.65497  0.26537  0.96856  1.0000 0.1422019947
H   H23       1.0  0.47187  0.15725  0.70138  1.0000 0.1422019947
H   H24       1.0  0.36442  0.05237  0.85993  1.0000 0.1422019947
C   C1        1.0  0.33660  0.97370  0.17910  1.0000 0.5489443552
C   C2        1.0  0.24360  0.88890  0.16770  1.0000 -0.0002351785
C   C3        1.0  0.01320  0.63560  0.98240  1.0000 0.5916202676
C   C4        1.0  0.17390  0.80310  0.08200  1.0000 -0.0924591602
C   C5        1.0  0.11040  0.84210  0.31110  1.0000 0.6037107271
C   C6        1.0  0.22390  0.89940  0.24190  1.0000 -0.0965903747
C   C7        1.0  0.06530  0.74090  0.14740  1.0000 -0.0924591602
C   C8        1.0  0.08690  0.72840  0.07330  1.0000 -0.0096124114
C   C9        1.0  0.13380  0.82510  0.23210  1.0000 -0.0096124114
C   C10       1.0  0.79460  0.15750  0.82090  1.0000 0.5489443552
C   C11       1.0  0.72120  0.07590  0.83230  1.0000 0.0005778144
C   C12       1.0  0.65320  0.03080  0.01760  1.0000 0.5916202676
C   C13       1.0  0.72110  0.09190  0.91800  1.0000 -0.0924591602
C   C14       1.0  0.53100  0.79930  0.68890  1.0000 0.6037107271
C   C15       1.0  0.65750  0.98200  0.75810  1.0000 -0.0965903747
C   C16       1.0  0.59350  0.91790  0.85260  1.0000 -0.0924591602
C   C17       1.0  0.65510  0.01360  0.92670  1.0000 -0.0096124114
C   C18       1.0  0.59300  0.90170  0.76790  1.0000 -0.0096124114
C   C19       1.0  0.97370  0.79460  0.63710  1.0000 0.5489443552
C   C20       1.0  0.88890  0.72120  0.64530  1.0000 0.0005778144
C   C21       1.0  0.63560  0.65320  0.62240  1.0000 0.5916202676
C   C22       1.0  0.80310  0.72110  0.62920  1.0000 -0.0924591602
C   C23       1.0  0.84210  0.53100  0.73170  1.0000 0.6037107271
C   C24       1.0  0.89940  0.65750  0.67550  1.0000 -0.0965903747
C   C25       1.0  0.74090  0.59350  0.67560  1.0000 -0.0924591602
C   C26       1.0  0.72840  0.65510  0.64150  1.0000 -0.0096124114
C   C27       1.0  0.82510  0.59300  0.69130  1.0000 -0.0096124114
C   C28       1.0  0.15750  0.33660  0.36290  1.0000 0.5489443552
C   C29       1.0  0.07590  0.24360  0.35470  1.0000 -0.0002351785
C   C30       1.0  0.03080  0.01320  0.37760  1.0000 0.5916202676
C   C31       1.0  0.09190  0.17390  0.37080  1.0000 -0.0924591602
C   C32       1.0  0.79930  0.11040  0.26830  1.0000 0.6037107271
C   C33       1.0  0.98200  0.22390  0.32450  1.0000 -0.0965903747
C   C34       1.0  0.91790  0.06530  0.32440  1.0000 -0.0924591602
C   C35       1.0  0.01360  0.08690  0.35850  1.0000 -0.0096124114
C   C36       1.0  0.90170  0.13380  0.30870  1.0000 -0.0096124114
C   C37       1.0  0.83660  0.65750  0.36290  1.0000 0.5489443552
C   C38       1.0  0.74360  0.57590  0.35470  1.0000 0.0005778144
C   C39       1.0  0.51320  0.53080  0.37760  1.0000 0.5916202676
C   C40       1.0  0.67390  0.59190  0.37080  1.0000 -0.0924591602
C   C41       1.0  0.61040  0.29930  0.26830  1.0000 0.6037107271
C   C42       1.0  0.72390  0.48200  0.32450  1.0000 -0.0965903747
C   C43       1.0  0.56530  0.41790  0.32440  1.0000 -0.0924591602
C   C44       1.0  0.58690  0.51360  0.35850  1.0000 -0.0096124114
C   C45       1.0  0.63380  0.40170  0.30870  1.0000 -0.0096124114
C   C46       1.0  0.29460  0.47370  0.63710  1.0000 0.5489443552
C   C47       1.0  0.22120  0.38890  0.64530  1.0000 0.0005778144
C   C48       1.0  0.15320  0.13560  0.62240  1.0000 0.5916202676
C   C49       1.0  0.22110  0.30310  0.62920  1.0000 -0.0924591602
C   C50       1.0  0.03100  0.34210  0.73170  1.0000 0.6037107271
C   C51       1.0  0.15750  0.39940  0.67550  1.0000 -0.0965903747
C   C52       1.0  0.09350  0.24090  0.67560  1.0000 -0.0965903747
C   C53       1.0  0.15510  0.22840  0.64150  1.0000 -0.0096124114
C   C54       1.0  0.09300  0.32510  0.69130  1.0000 -0.0096124114
C   C55       1.0  0.47370  0.83660  0.17910  1.0000 0.5489443552
C   C56       1.0  0.38890  0.74360  0.16770  1.0000 0.0005778144
C   C57       1.0  0.13560  0.51320  0.98240  1.0000 0.5916202676
C   C58       1.0  0.30310  0.67390  0.08200  1.0000 -0.0924591602
C   C59       1.0  0.34210  0.61040  0.31110  1.0000 0.6037107271
C   C60       1.0  0.39940  0.72390  0.24190  1.0000 -0.0965903747
C   C61       1.0  0.24090  0.56530  0.14740  1.0000 -0.0924591602
C   C62       1.0  0.22840  0.58690  0.07330  1.0000 -0.0096124114
C   C63       1.0  0.32510  0.63380  0.23210  1.0000 -0.0096124114
C   C64       1.0  0.65750  0.29460  0.82090  1.0000 0.5489443552
C   C65       1.0  0.57590  0.22120  0.83230  1.0000 0.0005778144
C   C66       1.0  0.53080  0.15320  0.01760  1.0000 0.5916202676
C   C67       1.0  0.59190  0.22110  0.91800  1.0000 -0.0924591602
C   C68       1.0  0.29930  0.03100  0.68890  1.0000 0.6037107271
C   C69       1.0  0.48200  0.15750  0.75810  1.0000 -0.0965903747
C   C70       1.0  0.41790  0.09350  0.85260  1.0000 -0.0965903747
C   C71       1.0  0.51360  0.15510  0.92670  1.0000 -0.0096124114
C   C72       1.0  0.40170  0.09300  0.76790  1.0000 -0.0096124114
O   O1        1.0  0.03290  0.62990  0.91760  1.0000 -0.5097375011
O   O2        1.0  0.18430  0.90100  0.39170  1.0000 -0.4979936455
O   O3        1.0  0.93590  0.57070  0.98080  1.0000 -0.4979936455
O   O4        1.0  0.01940  0.79710  0.29170  1.0000 -0.5097375011
O   O5        1.0  0.34070  0.97390  0.10480  1.0000 -0.4979936455
O   O6        1.0  0.40380  0.03860  0.25560  1.0000 -0.4197505887
O   O7        1.0  0.71230  0.11530  0.08240  1.0000 -0.5097375011
O   O8        1.0  0.50930  0.79260  0.60830  1.0000 -0.4979936455
O   O9        1.0  0.58990  0.95510  0.01920  1.0000 -0.4979936455
O   O10       1.0  0.50540  0.72770  0.70830  1.0000 -0.5097375011
O   O11       1.0  0.86910  0.23590  0.89520  1.0000 -0.4944372389
O   O12       1.0  0.78300  0.14820  0.74440  1.0000 -0.4197505887
O   O13       1.0  0.62990  0.71230  0.59700  1.0000 -0.5097375011
O   O14       1.0  0.90100  0.50930  0.71670  1.0000 -0.4979936455
O   O15       1.0  0.57070  0.58990  0.63480  1.0000 -0.4979936455
O   O16       1.0  0.79710  0.50540  0.77770  1.0000 -0.5097375011
O   O17       1.0  0.97390  0.86910  0.63320  1.0000 -0.4944372389
O   O18       1.0  0.03860  0.78300  0.63480  1.0000 -0.4197505887
O   O19       1.0  0.11530  0.03290  0.40300  1.0000 -0.5097375011
O   O20       1.0  0.79260  0.18430  0.28330  1.0000 -0.4979936455
O   O21       1.0  0.95510  0.93590  0.36520  1.0000 -0.4979936455
O   O22       1.0  0.72770  0.01940  0.22230  1.0000 -0.5097375011
O   O23       1.0  0.23590  0.34070  0.36680  1.0000 -0.4979936455
O   O24       1.0  0.14820  0.40380  0.36520  1.0000 -0.4197505887
O   O25       1.0  0.53290  0.61530  0.40300  1.0000 -0.4979936455
O   O26       1.0  0.68430  0.29260  0.28330  1.0000 -0.4979936455
O   O27       1.0  0.43590  0.45510  0.36520  1.0000 -0.4979936455
O   O28       1.0  0.51940  0.22770  0.22230  1.0000 -0.5097375011
O   O29       1.0  0.84070  0.73590  0.36680  1.0000 -0.4944372389
O   O30       1.0  0.90380  0.64820  0.36520  1.0000 -0.4197505887
O   O31       1.0  0.21230  0.12990  0.59700  1.0000 -0.5097375011
O   O32       1.0  0.00930  0.40100  0.71670  1.0000 -0.4979936455
O   O33       1.0  0.08990  0.07070  0.63480  1.0000 -0.4979936455
O   O34       1.0  0.00540  0.29710  0.77770  1.0000 -0.5097375011
O   O35       1.0  0.36910  0.47390  0.63320  1.0000 -0.4944372389
O   O36       1.0  0.28300  0.53860  0.63480  1.0000 -0.4197505887
O   O37       1.0  0.12990  0.53290  0.91760  1.0000 -0.4979936455
O   O38       1.0  0.40100  0.68430  0.39170  1.0000 -0.4979936455
O   O39       1.0  0.07070  0.43590  0.98080  1.0000 -0.4979936455
O   O40       1.0  0.29710  0.51940  0.29170  1.0000 -0.5097375011
O   O41       1.0  0.47390  0.84070  0.10480  1.0000 -0.4979936455
O   O42       1.0  0.53860  0.90380  0.25560  1.0000 -0.4197505887
O   O43       1.0  0.61530  0.21230  0.08240  1.0000 -0.5097375011
O   O44       1.0  0.29260  0.00930  0.60830  1.0000 -0.4979936455
O   O45       1.0  0.45510  0.08990  0.01920  1.0000 -0.4979936455
O   O46       1.0  0.22770  0.00540  0.70830  1.0000 -0.5097375011
O   O47       1.0  0.73590  0.36910  0.89520  1.0000 -0.4979936455
O   O48       1.0  0.64820  0.28300  0.74440  1.0000 -0.4197505887
O   O49       1.0  0.57960  0.07960  0.18240  1.0000 -0.8600828189
O   O50       1.0  0.89720  0.39720  0.81760  1.0000 -0.8600828189
O   O51       1.0  0.07960  0.89720  0.50000  1.0000 -0.8600828189
O   O52       1.0  0.39720  0.57960  0.50000  1.0000 -0.8600828189
