# DDEC6 charges by PACMAN v1.1 (https://github.com/mtap-research/PACMAN-charge/)
data_2019[Cd][bey]2[ASR]1
_chemical_formula_sum              "Cd2 H18 C28 S2 N2 O14"
_cell_length_a       10.208
_cell_length_b       11.668
_cell_length_c       12.2463
_cell_angle_alpha    119.009
_cell_angle_beta     106.974
_cell_angle_gamma    83.196

_symmetry_space_group_name_H-M    "P 1"
_symmetry_Int_Tables_number       1

loop_
  _symmetry_equiv_pos_as_xyz
  'x, y, z'

loop_
  _atom_site_type_symbol
  _atom_site_label
  _atom_site_symmetry_multiplicity
  _atom_site_fract_x
  _atom_site_fract_y
  _atom_site_fract_z
  _atom_site_occupancy
  _atom_site_charge
Cd  Cd1       1.0  0.28134  0.94187  0.77403  1.0000 0.9336293036
Cd  Cd2       1.0  0.71866  0.05813  0.22597  1.0000 0.9336293036
H   H1        1.0  0.27628  0.67137  0.00617  1.0000 0.1480460236
H   H2        1.0  0.51259  0.52023  0.76318  1.0000 0.1618266547
H   H3        1.0  0.89254  0.12931  0.60791  1.0000 0.1480460236
H   H4        1.0  0.77271  0.97143  0.79235  1.0000 0.1367249781
H   H5        1.0  0.50627  0.16971  0.63737  1.0000 0.1367249781
H   H6        1.0  0.44838  0.68545  0.70978  1.0000 0.1318826447
H   H7        1.0  0.21639  0.83161  0.94479  1.0000 0.1204235647
H   H8        1.0  0.48587  0.40072  0.86996  1.0000 0.1204235647
H   H9        1.0  0.36777  0.43856  0.93873  1.0000 0.1318826447
H   H10       1.0  0.72372  0.32863  0.99383  1.0000 0.1480460236
H   H11       1.0  0.48741  0.47977  0.23682  1.0000 0.1618266547
H   H12       1.0  0.10746  0.87069  0.39209  1.0000 0.1480460236
H   H13       1.0  0.22729  0.02857  0.20765  1.0000 0.1367249781
H   H14       1.0  0.49373  0.83029  0.36263  1.0000 0.1367249781
H   H15       1.0  0.55162  0.31455  0.29022  1.0000 0.1318826447
H   H16       1.0  0.78361  0.16839  0.05521  1.0000 0.1204235647
H   H17       1.0  0.51413  0.59928  0.13004  1.0000 0.1204235647
H   H18       1.0  0.63223  0.56144  0.06127  1.0000 0.1318826447
C   C1        1.0  0.69480  0.16170  0.61290  1.0000 -0.0467185197
C   C2        1.0  0.31290  0.67200  0.94520  1.0000 -0.1855879432
C   C3        1.0  0.62160  0.06350  0.71940  1.0000 0.0088030709
C   C4        1.0  0.50800  0.03070  0.75630  1.0000 0.5436765397
C   C5        1.0  0.85540  0.04390  0.70650  1.0000 0.0088030709
C   C6        1.0  0.45250  0.58280  0.80220  1.0000 -0.173215807
C   C7        1.0  0.82540  0.11430  0.63740  1.0000 -0.0872632494
C   C8        1.0  0.75290  0.01870  0.74670  1.0000 -0.1076929426
C   C9        1.0  0.59330  0.13710  0.65380  1.0000 -0.1076929426
C   C10       1.0  0.41280  0.68240  0.77010  1.0000 0.1204235647
C   C11       1.0  0.27710  0.76830  0.90790  1.0000 0.0930963563
C   C12       1.0  0.44700  0.47260  0.93400  1.0000 -0.2028123369
C   C13       1.0  0.99840  0.99540  0.73620  1.0000 0.5436765397
C   C14       1.0  0.40270  0.57680  0.89240  1.0000 0.1618266547
C   C15       1.0  0.30520  0.83830  0.38710  1.0000 -0.0467185197
C   C16       1.0  0.68710  0.32800  0.05480  1.0000 -0.1855879432
C   C17       1.0  0.37840  0.93650  0.28060  1.0000 0.0088030709
C   C18       1.0  0.49200  0.96930  0.24370  1.0000 0.5436765397
C   C19       1.0  0.14460  0.95610  0.29350  1.0000 0.0088030709
C   C20       1.0  0.54750  0.41720  0.19780  1.0000 -0.173215807
C   C21       1.0  0.17460  0.88570  0.36260  1.0000 -0.0872632494
C   C22       1.0  0.24710  0.98130  0.25330  1.0000 -0.1076929426
C   C23       1.0  0.40670  0.86290  0.34620  1.0000 -0.1076929426
C   C24       1.0  0.58720  0.31760  0.22990  1.0000 0.1204235647
C   C25       1.0  0.72290  0.23170  0.09210  1.0000 0.0930963563
C   C26       1.0  0.55300  0.52740  0.06600  1.0000 -0.2028123369
C   C27       1.0  0.00160  0.00460  0.26380  1.0000 0.5436765397
C   C28       1.0  0.59730  0.42320  0.10760  1.0000 0.1618266547
S   S1        1.0  0.66021  0.26414  0.53829  1.0000 1.1622663731
S   S2        1.0  0.33979  0.73586  0.46171  1.0000 1.1622663731
N   N1        1.0  0.32640  0.77375  0.82100  1.0000 -0.2320407933
N   N2        1.0  0.67360  0.22625  0.17900  1.0000 -0.2320407933
O   O1        1.0  0.53298  0.96696  0.81749  1.0000 -0.5298978692
O   O2        1.0  0.02380  0.92204  0.78580  1.0000 -0.5154424017
O   O3        1.0  0.70370  0.39509  0.64433  1.0000 -0.5562519437
O   O4        1.0  0.74410  0.21965  0.44807  1.0000 -0.5736486321
O   O5        1.0  0.08949  0.03263  0.70820  1.0000 -0.4685799187
O   O6        1.0  0.51460  0.25244  0.47800  1.0000 -0.5298978692
O   O7        1.0  0.38907  0.06529  0.71970  1.0000 -0.4920634633
O   O8        1.0  0.46702  0.03304  0.18251  1.0000 -0.5298978692
O   O9        1.0  0.97620  0.07796  0.21420  1.0000 -0.5154424017
O   O10       1.0  0.29630  0.60491  0.35567  1.0000 -0.5562519437
O   O11       1.0  0.25590  0.78035  0.55193  1.0000 -0.5736486321
O   O12       1.0  0.91051  0.96737  0.29180  1.0000 -0.4685799187
O   O13       1.0  0.48540  0.74756  0.52200  1.0000 -0.5366497045
O   O14       1.0  0.61093  0.93471  0.28030  1.0000 -0.4920634633
