# DDEC6 charges by PACMAN v1.1 (https://github.com/mtap-research/PACMAN-charge/)
data_2019[Co][pcu]3[ASR]9
_chemical_formula_sum              "Co4 H80 C76 N12 O16"
_cell_length_a       16.1558
_cell_length_b       16.1558
_cell_length_c       14.1648
_cell_angle_alpha    81.2779
_cell_angle_beta     98.7221
_cell_angle_gamma    137.435

_symmetry_space_group_name_H-M    "P 1"
_symmetry_Int_Tables_number       1

loop_
  _symmetry_equiv_pos_as_xyz
  'x, y, z'

loop_
  _atom_site_type_symbol
  _atom_site_label
  _atom_site_symmetry_multiplicity
  _atom_site_fract_x
  _atom_site_fract_y
  _atom_site_fract_z
  _atom_site_occupancy
  _atom_site_charge
Co  Co1       1.0  0.17140  0.75248  0.72501  1.0000 0.84942094
Co  Co2       1.0  0.15414  0.57386  0.78613  1.0000 0.84942094
Co  Co3       1.0  0.75248  0.17140  0.27499  1.0000 0.84942094
Co  Co4       1.0  0.57386  0.15414  0.21387  1.0000 0.84942094
H   H1        1.0  0.06490  0.95690  0.54260  1.0000 0.1368202217
H   H2        1.0  0.03640  0.80100  0.61530  1.0000 0.1199684464
H   H3        1.0  0.38380  0.02740  0.68780  1.0000 0.1199684464
H   H4        1.0  0.42510  0.19310  0.62060  1.0000 0.1368202217
H   H5        1.0  0.60770  0.48870  0.58290  1.0000 0.1310466795
H   H6        1.0  0.80030  0.68250  0.57320  1.0000 0.1101450741
H   H7        1.0  0.25420  0.35800  0.95070  1.0000 0.1368202217
H   H8        1.0  0.28980  0.52080  0.88720  1.0000 0.1199684464
H   H9        1.0  0.93960  0.30120  0.82290  1.0000 0.1310466795
H   H10       1.0  0.89970  0.13750  0.88540  1.0000 0.1368202217
H   H11       1.0  0.71400  0.81960  0.89620  1.0000 0.1310466795
H   H12       1.0  0.51920  0.62380  0.90340  1.0000 0.1101450741
H   H13       1.0  0.46940  0.73100  0.39920  1.0000 0.0905139497
H   H14       1.0  0.54560  0.84380  0.46200  1.0000 0.1003202101
H   H15       1.0  0.42090  0.71210  0.58020  1.0000 0.1003202101
H   H16       1.0  0.33400  0.60200  0.51230  1.0000 0.0905139497
H   H17       1.0  0.21430  0.62430  0.46750  1.0000 0.1199684464
H   H18       1.0  0.50560  0.92700  0.53400  1.0000 0.1310466795
H   H19       1.0  0.40930  0.92110  0.55620  1.0000 0.1310466795
H   H20       1.0  0.48530  0.99710  0.46520  1.0000 0.1368202217
H   H21       1.0  0.19160  0.74320  0.36870  1.0000 0.1199684464
H   H22       1.0  0.29540  0.88680  0.36540  1.0000 0.1310466795
H   H23       1.0  0.21940  0.81080  0.45640  1.0000 0.1310466795
H   H24       1.0  0.25470  0.64290  0.32570  1.0000 0.1101450741
H   H25       1.0  0.35700  0.72340  0.25210  1.0000 0.1368202217
H   H26       1.0  0.28210  0.74870  0.26250  1.0000 0.1199684464
H   H27       1.0  0.54060  0.04200  0.78400  1.0000 0.1101450741
H   H28       1.0  0.65930  0.07350  0.78980  1.0000 0.1003202101
H   H29       1.0  0.72540  0.19720  0.89280  1.0000 0.1003202101
H   H30       1.0  0.59240  0.12640  0.91370  1.0000 0.1101450741
H   H31       1.0  0.71620  0.06760  0.98850  1.0000 0.1003202101
H   H32       1.0  0.62690  0.87310  0.00510  1.0000 0.1101450741
H   H33       1.0  0.48610  0.75670  0.01710  1.0000 0.1310466795
H   H34       1.0  0.56780  0.85260  0.09610  1.0000 0.1368202217
H   H35       1.0  0.34950  0.78350  0.99940  1.0000 0.1310466795
H   H36       1.0  0.40520  0.91420  0.97570  1.0000 0.1310466795
H   H37       1.0  0.43150  0.88090  0.07730  1.0000 0.1310466795
H   H38       1.0  0.66460  0.93480  0.85350  1.0000 0.1199684464
H   H39       1.0  0.57570  0.88070  0.76130  1.0000 0.1368202217
H   H40       1.0  0.53790  0.79590  0.85460  1.0000 0.1199684464
H   H41       1.0  0.95690  0.06490  0.45740  1.0000 0.1368202217
H   H42       1.0  0.80100  0.03640  0.38470  1.0000 0.1199684464
H   H43       1.0  0.02740  0.38380  0.31220  1.0000 0.1199684464
H   H44       1.0  0.19310  0.42510  0.37940  1.0000 0.1368202217
H   H45       1.0  0.48870  0.60770  0.41710  1.0000 0.1310466795
H   H46       1.0  0.68250  0.80030  0.42680  1.0000 0.1101450741
H   H47       1.0  0.35800  0.25420  0.04930  1.0000 0.1368202217
H   H48       1.0  0.52080  0.28980  0.11280  1.0000 0.1199684464
H   H49       1.0  0.30120  0.93960  0.17710  1.0000 0.1310466795
H   H50       1.0  0.13750  0.89970  0.11460  1.0000 0.1368202217
H   H51       1.0  0.81960  0.71400  0.10380  1.0000 0.1310466795
H   H52       1.0  0.62380  0.51920  0.09660  1.0000 0.1101450741
H   H53       1.0  0.73100  0.46940  0.60080  1.0000 0.0905139497
H   H54       1.0  0.84380  0.54560  0.53800  1.0000 0.1003202101
H   H55       1.0  0.71210  0.42090  0.41980  1.0000 0.1003202101
H   H56       1.0  0.60200  0.33400  0.48770  1.0000 0.0905139497
H   H57       1.0  0.62430  0.21430  0.53250  1.0000 0.1199684464
H   H58       1.0  0.92700  0.50560  0.46600  1.0000 0.1310466795
H   H59       1.0  0.92110  0.40930  0.44380  1.0000 0.1310466795
H   H60       1.0  0.99710  0.48530  0.53480  1.0000 0.1368202217
H   H61       1.0  0.74320  0.19160  0.63130  1.0000 0.1199684464
H   H62       1.0  0.88680  0.29540  0.63460  1.0000 0.1310466795
H   H63       1.0  0.81080  0.21940  0.54360  1.0000 0.1310466795
H   H64       1.0  0.64290  0.25470  0.67430  1.0000 0.1101450741
H   H65       1.0  0.72340  0.35700  0.74790  1.0000 0.1368202217
H   H66       1.0  0.74870  0.28210  0.73750  1.0000 0.1199684464
H   H67       1.0  0.04200  0.54060  0.21600  1.0000 0.1101450741
H   H68       1.0  0.07350  0.65930  0.21020  1.0000 0.1003202101
H   H69       1.0  0.19720  0.72540  0.10720  1.0000 0.1003202101
H   H70       1.0  0.12640  0.59240  0.08630  1.0000 0.1101450741
H   H71       1.0  0.06760  0.71620  0.01150  1.0000 0.1003202101
H   H72       1.0  0.87310  0.62690  0.99490  1.0000 0.1101450741
H   H73       1.0  0.75670  0.48610  0.98290  1.0000 0.1310466795
H   H74       1.0  0.85260  0.56780  0.90390  1.0000 0.1368202217
H   H75       1.0  0.78350  0.34950  0.00060  1.0000 0.1310466795
H   H76       1.0  0.91420  0.40520  0.02430  1.0000 0.1310466795
H   H77       1.0  0.88090  0.43150  0.92270  1.0000 0.1310466795
H   H78       1.0  0.93480  0.66460  0.14650  1.0000 0.1199684464
H   H79       1.0  0.88070  0.57570  0.23870  1.0000 0.1368202217
H   H80       1.0  0.79590  0.53790  0.14540  1.0000 0.1199684464
C   C1        1.0  0.27160  0.19860  0.53600  1.0000 0.3592520854
C   C2        1.0  0.24870  0.09350  0.57670  1.0000 0.060199981
C   C3        1.0  0.13080  0.97360  0.57300  1.0000 -0.161267545
C   C4        1.0  0.11530  0.88070  0.61590  1.0000 0.079748263
C   C5        1.0  0.31920  0.01360  0.65890  1.0000 0.0905139497
C   C6        1.0  0.34530  0.11430  0.61890  1.0000 -0.161267545
C   C7        1.0  0.62120  0.55100  0.54780  1.0000 -0.161267545
C   C8        1.0  0.73650  0.66950  0.54300  1.0000 0.0500730632
C   C9        1.0  0.04890  0.12150  0.96360  1.0000 0.3592520854
C   C10       1.0  0.07360  0.22700  0.92560  1.0000 0.0500730632
C   C11       1.0  0.18830  0.34370  0.92490  1.0000 -0.1546729157
C   C12       1.0  0.21000  0.44220  0.88660  1.0000 0.0905139497
C   C13       1.0  0.00410  0.31310  0.84890  1.0000 0.079748263
C   C14       1.0  0.98040  0.21520  0.88610  1.0000 -0.1692589173
C   C15       1.0  0.69920  0.76120  0.93990  1.0000 -0.1692589173
C   C16       1.0  0.58140  0.64160  0.94400  1.0000 0.079748263
C   C17       1.0  0.41140  0.81260  0.37240  1.0000 0.0408583111
C   C18       1.0  0.46410  0.77290  0.43600  1.0000 -0.2165242979
C   C19       1.0  0.37600  0.68500  0.51840  1.0000 -0.161267545
C   C20       1.0  0.28570  0.69130  0.50670  1.0000 -0.178808237
C   C21       1.0  0.24100  0.67660  0.60050  1.0000 0.6032840958
C   C22       1.0  0.34920  0.81400  0.44920  1.0000 0.2284291437
C   C23       1.0  0.44610  0.92470  0.50620  1.0000 -0.468941311
C   C24       1.0  0.25500  0.81360  0.40580  1.0000 -0.4579689154
C   C25       1.0  0.51030  0.93970  0.32470  1.0000 0.5800310126
C   C26       1.0  0.31780  0.72380  0.29620  1.0000 -0.4510017434
C   C27       1.0  0.51940  0.90940  0.86340  1.0000 0.0408583111
C   C28       1.0  0.59320  0.04100  0.82620  1.0000 -0.2100511888
C   C29       1.0  0.64310  0.11670  0.90470  1.0000 -0.161267545
C   C30       1.0  0.64490  0.05130  0.99160  1.0000 -0.161267545
C   C31       1.0  0.65840  0.09380  0.08790  1.0000 0.5923329344
C   C32       1.0  0.52970  0.91370  0.97620  1.0000 0.215651845
C   C33       1.0  0.55540  0.84260  0.02860  1.0000 -0.4510017434
C   C34       1.0  0.41920  0.86920  0.01020  1.0000 -0.468941311
C   C35       1.0  0.38830  0.81670  0.82470  1.0000 0.5662119141
C   C36       1.0  0.58030  0.87710  0.83000  1.0000 -0.4354827502
C   C37       1.0  0.19860  0.27160  0.46400  1.0000 0.3592520854
C   C38       1.0  0.09350  0.24870  0.42330  1.0000 0.060199981
C   C39       1.0  0.97360  0.13080  0.42700  1.0000 -0.161267545
C   C40       1.0  0.88070  0.11530  0.38410  1.0000 0.079748263
C   C41       1.0  0.01360  0.31920  0.34110  1.0000 0.0905139497
C   C42       1.0  0.11430  0.34530  0.38110  1.0000 -0.161267545
C   C43       1.0  0.55100  0.62120  0.45220  1.0000 -0.161267545
C   C44       1.0  0.66950  0.73650  0.45700  1.0000 0.0500730632
C   C45       1.0  0.12150  0.04890  0.03640  1.0000 0.3592520854
C   C46       1.0  0.22700  0.07360  0.07440  1.0000 0.0500730632
C   C47       1.0  0.34370  0.18830  0.07510  1.0000 -0.1546729157
C   C48       1.0  0.44220  0.21000  0.11340  1.0000 0.0905139497
C   C49       1.0  0.31310  0.00410  0.15110  1.0000 0.079748263
C   C50       1.0  0.21520  0.98040  0.11390  1.0000 -0.1692589173
C   C51       1.0  0.76120  0.69920  0.06010  1.0000 -0.1692589173
C   C52       1.0  0.64160  0.58140  0.05600  1.0000 0.079748263
C   C53       1.0  0.81260  0.41140  0.62760  1.0000 0.0408583111
C   C54       1.0  0.77290  0.46410  0.56400  1.0000 -0.2165242979
C   C55       1.0  0.68500  0.37600  0.48160  1.0000 -0.161267545
C   C56       1.0  0.69130  0.28570  0.49330  1.0000 -0.178808237
C   C57       1.0  0.67660  0.24100  0.39950  1.0000 0.6032840958
C   C58       1.0  0.81400  0.34920  0.55080  1.0000 0.2284291437
C   C59       1.0  0.92470  0.44610  0.49380  1.0000 -0.468941311
C   C60       1.0  0.81360  0.25500  0.59420  1.0000 -0.4579689154
C   C61       1.0  0.93970  0.51030  0.67530  1.0000 0.5800310126
C   C62       1.0  0.72380  0.31780  0.70380  1.0000 -0.4510017434
C   C63       1.0  0.90940  0.51940  0.13660  1.0000 0.0408583111
C   C64       1.0  0.04100  0.59320  0.17380  1.0000 -0.2100511888
C   C65       1.0  0.11670  0.64310  0.09530  1.0000 -0.161267545
C   C66       1.0  0.05130  0.64490  0.00840  1.0000 -0.161267545
C   C67       1.0  0.09380  0.65840  0.91210  1.0000 0.5923329344
C   C68       1.0  0.91370  0.52970  0.02380  1.0000 0.215651845
C   C69       1.0  0.84260  0.55540  0.97140  1.0000 -0.4510017434
C   C70       1.0  0.86920  0.41920  0.98980  1.0000 -0.468941311
C   C71       1.0  0.81670  0.38830  0.17530  1.0000 0.5662119141
C   C72       1.0  0.87710  0.58030  0.17000  1.0000 -0.4354827502
C   C73       1.0  0.40000  0.40000  0.50000  1.0000 0.3680452755
C   C74       1.0  0.52900  0.52900  0.50000  1.0000 0.0695893144
C   C75       1.0  0.91770  0.91770  0.00000  1.0000 0.3518964401
C   C76       1.0  0.79440  0.79440  0.00000  1.0000 0.0500730632
N   N1        1.0  0.38590  0.31010  0.53730  1.0000 -0.4000224242
N   N2        1.0  0.20700  0.89820  0.65860  1.0000 -0.2283077487
N   N3        1.0  0.93340  0.00940  0.96110  1.0000 -0.4000224242
N   N4        1.0  0.11830  0.42610  0.84910  1.0000 -0.2046847144
N   N5        1.0  0.31010  0.38590  0.46270  1.0000 -0.4000224242
N   N6        1.0  0.89820  0.20700  0.34140  1.0000 -0.2283077487
N   N7        1.0  0.00940  0.93340  0.03890  1.0000 -0.4000224242
N   N8        1.0  0.42610  0.11830  0.15090  1.0000 -0.2046847144
N   N9        1.0  0.17240  0.17240  0.50000  1.0000 -0.4142783234
N   N10       1.0  0.76600  0.76600  0.50000  1.0000 -0.2602967867
N   N11       1.0  0.14580  0.14580  0.00000  1.0000 -0.4000224242
N   N12       1.0  0.55400  0.55400  0.00000  1.0000 -0.275966371
O   O1        1.0  0.22250  0.73590  0.61310  1.0000 -0.5375927934
O   O2        1.0  0.21600  0.59240  0.66250  1.0000 -0.5752282986
O   O3        1.0  0.47500  0.98320  0.27350  1.0000 -0.5752282986
O   O4        1.0  0.62190  0.99810  0.33270  1.0000 -0.5518776128
O   O5        1.0  0.59590  0.11190  0.09600  1.0000 -0.5703984746
O   O6        1.0  0.72900  0.10800  0.15100  1.0000 -0.5244662413
O   O7        1.0  0.33120  0.70720  0.83680  1.0000 -0.5302405605
O   O8        1.0  0.34210  0.85110  0.78580  1.0000 -0.5518776128
O   O9        1.0  0.73590  0.22250  0.38690  1.0000 -0.5375927934
O   O10       1.0  0.59240  0.21600  0.33750  1.0000 -0.5752282986
O   O11       1.0  0.98320  0.47500  0.72650  1.0000 -0.5752282986
O   O12       1.0  0.99810  0.62190  0.66730  1.0000 -0.5518776128
O   O13       1.0  0.11190  0.59590  0.90400  1.0000 -0.5703984746
O   O14       1.0  0.10800  0.72900  0.84900  1.0000 -0.5244662413
O   O15       1.0  0.70720  0.33120  0.16320  1.0000 -0.5302405605
O   O16       1.0  0.85110  0.34210  0.21420  1.0000 -0.5518776128
