# DDEC6 charges by PACMAN v1.1 (https://github.com/mtap-research/PACMAN-charge/)
data_2019[Y][pcu]3[ASR]1
_chemical_formula_sum              "Y2 H18 C36 O12"
_cell_length_a       11.8479
_cell_length_b       12.2628
_cell_length_c       13.3571
_cell_angle_alpha    102.851
_cell_angle_beta     98.902
_cell_angle_gamma    106.554

_symmetry_space_group_name_H-M    "P 1"
_symmetry_Int_Tables_number       1

loop_
  _symmetry_equiv_pos_as_xyz
  'x, y, z'

loop_
  _atom_site_type_symbol
  _atom_site_label
  _atom_site_symmetry_multiplicity
  _atom_site_fract_x
  _atom_site_fract_y
  _atom_site_fract_z
  _atom_site_occupancy
  _atom_site_charge
Y   Y1        1.0  0.67536  0.52135  0.54601  1.0000 1.7753309453
Y   Y2        1.0  0.32464  0.47865  0.45399  1.0000 1.7753309453
H   H1        1.0  0.71947  0.52731  0.21571  1.0000 0.1215305795
H   H2        1.0  0.73700  0.54024  0.04728  1.0000 0.1145234699
H   H3        1.0  0.35864  0.46193  0.13451  1.0000 0.1215305795
H   H4        1.0  0.59263  0.23499  0.55105  1.0000 0.1299925962
H   H5        1.0  0.71826  0.12420  0.62264  1.0000 0.1215305795
H   H6        1.0  0.74208  0.94800  0.63522  1.0000 0.1215305795
H   H7        1.0  0.77431  0.30360  0.79106  1.0000 0.1215305795
H   H8        1.0  0.87183  0.27112  0.94100  1.0000 0.1215305795
H   H9        1.0  0.97202  0.65043  0.88899  1.0000 0.1299925962
H   H10       1.0  0.28053  0.47269  0.78429  1.0000 0.1215305795
H   H11       1.0  0.26300  0.45976  0.95272  1.0000 0.1145234699
H   H12       1.0  0.64136  0.53807  0.86549  1.0000 0.1215305795
H   H13       1.0  0.40737  0.76501  0.44895  1.0000 0.1299925962
H   H14       1.0  0.28174  0.87580  0.37736  1.0000 0.1215305795
H   H15       1.0  0.25792  0.05200  0.36478  1.0000 0.1215305795
H   H16       1.0  0.22569  0.69640  0.20894  1.0000 0.1215305795
H   H17       1.0  0.12817  0.72888  0.05900  1.0000 0.1215305795
H   H18       1.0  0.02798  0.34957  0.11101  1.0000 0.1299925962
C   C1        1.0  0.52520  0.48940  0.30040  1.0000 0.6246282304
C   C2        1.0  0.53630  0.49390  0.18960  1.0000 -0.013235299
C   C3        1.0  0.64960  0.51720  0.16410  1.0000 -0.0990277143
C   C4        1.0  0.66000  0.52540  0.06410  1.0000 -0.1579222014
C   C5        1.0  0.55750  0.51210  0.98690  1.0000 0.072228215
C   C6        1.0  0.43500  0.47880  0.11640  1.0000 -0.1415092504
C   C7        1.0  0.40590  0.27560  0.45390  1.0000 0.601142093
C   C8        1.0  0.42400  0.16200  0.45930  1.0000 -0.0310235188
C   C9        1.0  0.52950  0.16190  0.51670  1.0000 -0.1415092504
C   C10       1.0  0.54690  0.05390  0.52600  1.0000 0.0761891262
C   C11       1.0  0.65480  0.05180  0.58660  1.0000 -0.1492403565
C   C12       1.0  0.66900  0.94760  0.59390  1.0000 -0.0990277143
C   C13       1.0  0.80810  0.49750  0.72440  1.0000 0.5563459838
C   C14       1.0  0.86880  0.48070  0.82520  1.0000 -0.013235299
C   C15       1.0  0.83670  0.36760  0.84210  1.0000 -0.1078090524
C   C16       1.0  0.89370  0.34790  0.93070  1.0000 -0.1579222014
C   C17       1.0  0.98410  0.44270  0.00500  1.0000 0.062654003
C   C18       1.0  0.95320  0.57360  0.89920  1.0000 -0.1492403565
C   C19       1.0  0.47480  0.51060  0.69960  1.0000 0.6246282304
C   C20       1.0  0.46370  0.50610  0.81040  1.0000 -0.013235299
C   C21       1.0  0.35040  0.48280  0.83590  1.0000 -0.0990277143
C   C22       1.0  0.34000  0.47460  0.93590  1.0000 -0.1579222014
C   C23       1.0  0.44250  0.48790  0.01310  1.0000 0.072228215
C   C24       1.0  0.56500  0.52120  0.88360  1.0000 -0.1415092504
C   C25       1.0  0.59410  0.72440  0.54610  1.0000 0.601142093
C   C26       1.0  0.57600  0.83800  0.54070  1.0000 -0.0310235188
C   C27       1.0  0.47050  0.83810  0.48330  1.0000 -0.1415092504
C   C28       1.0  0.45310  0.94610  0.47400  1.0000 0.0761891262
C   C29       1.0  0.34520  0.94820  0.41340  1.0000 -0.1492403565
C   C30       1.0  0.33100  0.05240  0.40610  1.0000 -0.0990277143
C   C31       1.0  0.19190  0.50250  0.27560  1.0000 0.5563459838
C   C32       1.0  0.13120  0.51930  0.17480  1.0000 -0.013235299
C   C33       1.0  0.16330  0.63240  0.15790  1.0000 -0.1078090524
C   C34       1.0  0.10630  0.65210  0.06930  1.0000 -0.1579222014
C   C35       1.0  0.01590  0.55730  0.99500  1.0000 0.062654003
C   C36       1.0  0.04680  0.42640  0.10080  1.0000 -0.1492403565
O   O1        1.0  0.42010  0.45360  0.31446  1.0000 -0.587019757
O   O2        1.0  0.62290  0.52110  0.36914  1.0000 -0.6294081962
O   O3        1.0  0.49350  0.37110  0.48955  1.0000 -0.6411028659
O   O4        1.0  0.29980  0.27370  0.41560  1.0000 -0.5724287188
O   O5        1.0  0.73150  0.40730  0.65870  1.0000 -0.5975492751
O   O6        1.0  0.83410  0.59830  0.70870  1.0000 -0.5839997088
O   O7        1.0  0.57990  0.54640  0.68554  1.0000 -0.587019757
O   O8        1.0  0.37710  0.47890  0.63086  1.0000 -0.6294081962
O   O9        1.0  0.50650  0.62890  0.51045  1.0000 -0.6411028659
O   O10       1.0  0.70020  0.72630  0.58440  1.0000 -0.5724287188
O   O11       1.0  0.26850  0.59270  0.34130  1.0000 -0.5975492751
O   O12       1.0  0.16590  0.40170  0.29130  1.0000 -0.5839997088
