# DDEC6 charges by PACMAN v1.1 (https://github.com/mtap-research/PACMAN-charge/)
data_2019[U][ctn]3[ASR]1
_chemical_formula_sum              "U8 H24 C48 O48"
_cell_length_a       16.2727
_cell_length_b       16.2727
_cell_length_c       16.2727
_cell_angle_alpha    109.471
_cell_angle_beta     109.471
_cell_angle_gamma    109.471

_symmetry_space_group_name_H-M    "P 1"
_symmetry_Int_Tables_number       1

loop_
  _symmetry_equiv_pos_as_xyz
  'x, y, z'

loop_
  _atom_site_type_symbol
  _atom_site_label
  _atom_site_symmetry_multiplicity
  _atom_site_fract_x
  _atom_site_fract_y
  _atom_site_fract_z
  _atom_site_occupancy
  _atom_site_charge
U   U1        1.0  0.00000  0.02908  0.50000  1.0000 2.0927874194
U   U2        1.0  0.02908  0.50000  0.00000  1.0000 2.0927874194
U   U3        1.0  0.47092  0.47092  0.47092  1.0000 2.0927874194
U   U4        1.0  0.50000  0.00000  0.02908  1.0000 2.0957493332
U   U5        1.0  0.52908  0.50000  0.00000  1.0000 2.0957493332
U   U6        1.0  0.00000  0.52908  0.50000  1.0000 2.0927874194
U   U7        1.0  0.97092  0.97092  0.97092  1.0000 2.0927874194
U   U8        1.0  0.50000  0.00000  0.52908  1.0000 2.0927874194
H   H1        1.0  0.81820  0.99560  0.67880  1.0000 0.0975972485
H   H2        1.0  0.81680  0.13940  0.82120  1.0000 0.0975972485
H   H3        1.0  0.68320  0.50440  0.32260  1.0000 0.0975972485
H   H4        1.0  0.68180  0.36060  0.17740  1.0000 0.0975972485
H   H5        1.0  0.67880  0.81820  0.99560  1.0000 0.0975972485
H   H6        1.0  0.82120  0.81680  0.13940  1.0000 0.0975972485
H   H7        1.0  0.32260  0.68320  0.50440  1.0000 0.0975972485
H   H8        1.0  0.17740  0.68180  0.36060  1.0000 0.0975972485
H   H9        1.0  0.99560  0.67880  0.81820  1.0000 0.0975972485
H   H10       1.0  0.13940  0.82120  0.81680  1.0000 0.0975972485
H   H11       1.0  0.50440  0.32260  0.68320  1.0000 0.0975972485
H   H12       1.0  0.36060  0.17740  0.68180  1.0000 0.0975972485
H   H13       1.0  0.49560  0.31820  0.17880  1.0000 0.0975972485
H   H14       1.0  0.63940  0.31680  0.32120  1.0000 0.0975972485
H   H15       1.0  0.00440  0.18320  0.82260  1.0000 0.0975972485
H   H16       1.0  0.86060  0.18180  0.67740  1.0000 0.0975972485
H   H17       1.0  0.31820  0.17880  0.49560  1.0000 0.0975972485
H   H18       1.0  0.31680  0.32120  0.63940  1.0000 0.0975972485
H   H19       1.0  0.18320  0.82260  0.00440  1.0000 0.0975972485
H   H20       1.0  0.18180  0.67740  0.86060  1.0000 0.0975972485
H   H21       1.0  0.17880  0.49560  0.31820  1.0000 0.0975972485
H   H22       1.0  0.32120  0.63940  0.31680  1.0000 0.0975972485
H   H23       1.0  0.82260  0.00440  0.18320  1.0000 0.0975972485
H   H24       1.0  0.67740  0.86060  0.18180  1.0000 0.0975972485
C   C1        1.0  0.91710  0.04730  0.62780  1.0000 0.5660372422
C   C2        1.0  0.86890  0.06190  0.69400  1.0000 -0.1673674866
C   C3        1.0  0.91950  0.28930  0.87220  1.0000 0.5660372422
C   C4        1.0  0.86790  0.17490  0.80600  1.0000 -0.1673674866
C   C5        1.0  0.58050  0.45270  0.36980  1.0000 0.5660372422
C   C6        1.0  0.63210  0.43810  0.30700  1.0000 -0.1673674866
C   C7        1.0  0.58290  0.21070  0.13020  1.0000 0.5660372422
C   C8        1.0  0.63110  0.32510  0.19300  1.0000 -0.1673674866
C   C9        1.0  0.62780  0.91710  0.04730  1.0000 0.5660372422
C   C10       1.0  0.69400  0.86890  0.06190  1.0000 -0.1673674866
C   C11       1.0  0.87220  0.91950  0.28930  1.0000 0.5660372422
C   C12       1.0  0.80600  0.86790  0.17490  1.0000 -0.1673674866
C   C13       1.0  0.36980  0.58050  0.45270  1.0000 0.5660372422
C   C14       1.0  0.30700  0.63210  0.43810  1.0000 -0.1673674866
C   C15       1.0  0.13020  0.58290  0.21070  1.0000 0.5660372422
C   C16       1.0  0.19300  0.63110  0.32510  1.0000 -0.1673674866
C   C17       1.0  0.04730  0.62780  0.91710  1.0000 0.5660372422
C   C18       1.0  0.06190  0.69400  0.86890  1.0000 -0.1673674866
C   C19       1.0  0.28930  0.87220  0.91950  1.0000 0.5660372422
C   C20       1.0  0.17490  0.80600  0.86790  1.0000 -0.1673674866
C   C21       1.0  0.45270  0.36980  0.58050  1.0000 0.5660372422
C   C22       1.0  0.43810  0.30700  0.63210  1.0000 -0.1673674866
C   C23       1.0  0.21070  0.13020  0.58290  1.0000 0.5660372422
C   C24       1.0  0.32510  0.19300  0.63110  1.0000 -0.1673674866
C   C25       1.0  0.54730  0.41710  0.12780  1.0000 0.5660372422
C   C26       1.0  0.56190  0.36890  0.19400  1.0000 -0.1673674866
C   C27       1.0  0.78930  0.41950  0.37220  1.0000 0.5660372422
C   C28       1.0  0.67490  0.36790  0.30600  1.0000 -0.1673674866
C   C29       1.0  0.95270  0.08050  0.86980  1.0000 0.5660372422
C   C30       1.0  0.93810  0.13210  0.80700  1.0000 -0.1673674866
C   C31       1.0  0.71070  0.08290  0.63020  1.0000 0.5660372422
C   C32       1.0  0.82510  0.13110  0.69300  1.0000 -0.1673674866
C   C33       1.0  0.41710  0.12780  0.54730  1.0000 0.5660372422
C   C34       1.0  0.36890  0.19400  0.56190  1.0000 -0.1673674866
C   C35       1.0  0.41950  0.37220  0.78930  1.0000 0.5660372422
C   C36       1.0  0.36790  0.30600  0.67490  1.0000 -0.1673674866
C   C37       1.0  0.08050  0.86980  0.95270  1.0000 0.5660372422
C   C38       1.0  0.13210  0.80700  0.93810  1.0000 -0.1673674866
C   C39       1.0  0.08290  0.63020  0.71070  1.0000 0.5660372422
C   C40       1.0  0.13110  0.69300  0.82510  1.0000 -0.1673674866
C   C41       1.0  0.12780  0.54730  0.41710  1.0000 0.5660372422
C   C42       1.0  0.19400  0.56190  0.36890  1.0000 -0.1673674866
C   C43       1.0  0.37220  0.78930  0.41950  1.0000 0.5660372422
C   C44       1.0  0.30600  0.67490  0.36790  1.0000 -0.1673674866
C   C45       1.0  0.86980  0.95270  0.08050  1.0000 0.5660372422
C   C46       1.0  0.80700  0.93810  0.13210  1.0000 -0.1673674866
C   C47       1.0  0.63020  0.71070  0.08290  1.0000 0.5660372422
C   C48       1.0  0.69300  0.82510  0.13110  1.0000 -0.1673674866
O   O1        1.0  0.86010  0.99410  0.53480  1.0000 -0.6012152164
O   O2        1.0  0.01040  0.09090  0.66630  1.0000 -0.5928944203
O   O3        1.0  0.95930  0.32530  0.96520  1.0000 -0.6012152164
O   O4        1.0  0.92460  0.34410  0.83370  1.0000 -0.5928944203
O   O5        1.0  0.54070  0.50590  0.36600  1.0000 -0.6012152164
O   O6        1.0  0.57540  0.40910  0.41950  1.0000 -0.5928944203
O   O7        1.0  0.63990  0.17470  0.13400  1.0000 -0.6012152164
O   O8        1.0  0.48960  0.15590  0.08050  1.0000 -0.5928944203
O   O9        1.0  0.53480  0.86010  0.99410  1.0000 -0.6012152164
O   O10       1.0  0.66630  0.01040  0.09090  1.0000 -0.5928944203
O   O11       1.0  0.96520  0.95930  0.32530  1.0000 -0.6012152164
O   O12       1.0  0.83370  0.92460  0.34410  1.0000 -0.5928944203
O   O13       1.0  0.36600  0.54070  0.50590  1.0000 -0.6012152164
O   O14       1.0  0.41950  0.57540  0.40910  1.0000 -0.5928944203
O   O15       1.0  0.13400  0.63990  0.17470  1.0000 -0.6012152164
O   O16       1.0  0.08050  0.48960  0.15590  1.0000 -0.5928944203
O   O17       1.0  0.99410  0.53480  0.86010  1.0000 -0.6012152164
O   O18       1.0  0.09090  0.66630  0.01040  1.0000 -0.5928944203
O   O19       1.0  0.32530  0.96520  0.95930  1.0000 -0.6012152164
O   O20       1.0  0.34410  0.83370  0.92460  1.0000 -0.5928944203
O   O21       1.0  0.50590  0.36600  0.54070  1.0000 -0.6012152164
O   O22       1.0  0.40910  0.41950  0.57540  1.0000 -0.5928944203
O   O23       1.0  0.17470  0.13400  0.63990  1.0000 -0.6012152164
O   O24       1.0  0.15590  0.08050  0.48960  1.0000 -0.5928944203
O   O25       1.0  0.49410  0.36010  0.03480  1.0000 -0.6012152164
O   O26       1.0  0.59090  0.51040  0.16630  1.0000 -0.5928944203
O   O27       1.0  0.82530  0.45930  0.46520  1.0000 -0.6012152164
O   O28       1.0  0.84410  0.42460  0.33370  1.0000 -0.5928944203
O   O29       1.0  0.00590  0.04070  0.86600  1.0000 -0.6012152164
O   O30       1.0  0.90910  0.07540  0.91950  1.0000 -0.5928944203
O   O31       1.0  0.67470  0.13990  0.63400  1.0000 -0.6012152164
O   O32       1.0  0.65590  0.98960  0.58050  1.0000 -0.5928944203
O   O33       1.0  0.36010  0.03480  0.49410  1.0000 -0.6012152164
O   O34       1.0  0.51040  0.16630  0.59090  1.0000 -0.5928944203
O   O35       1.0  0.45930  0.46520  0.82530  1.0000 -0.6012152164
O   O36       1.0  0.42460  0.33370  0.84410  1.0000 -0.5928944203
O   O37       1.0  0.04070  0.86600  0.00590  1.0000 -0.6012152164
O   O38       1.0  0.07540  0.91950  0.90910  1.0000 -0.5928944203
O   O39       1.0  0.13990  0.63400  0.67470  1.0000 -0.6012152164
O   O40       1.0  0.98960  0.58050  0.65590  1.0000 -0.5928944203
O   O41       1.0  0.03480  0.49410  0.36010  1.0000 -0.6012152164
O   O42       1.0  0.16630  0.59090  0.51040  1.0000 -0.5928944203
O   O43       1.0  0.46520  0.82530  0.45930  1.0000 -0.6012152164
O   O44       1.0  0.33370  0.84410  0.42460  1.0000 -0.5928944203
O   O45       1.0  0.86600  0.00590  0.04070  1.0000 -0.6012152164
O   O46       1.0  0.91950  0.90910  0.07540  1.0000 -0.5928944203
O   O47       1.0  0.63400  0.67470  0.13990  1.0000 -0.6012152164
O   O48       1.0  0.58050  0.65590  0.98960  1.0000 -0.5928944203
