# DDEC6 charges by PACMAN v1.1 (https://github.com/mtap-research/PACMAN-charge/)
data_2019[Ag][nan]2[ASR]1
_chemical_formula_sum              "Ag4 H64 C52 N12 O8"
_cell_length_a       11.0437
_cell_length_b       11.0437
_cell_length_c       12.9695
_cell_angle_alpha    90
_cell_angle_beta     90
_cell_angle_gamma    108.324

_symmetry_space_group_name_H-M    "P 1"
_symmetry_Int_Tables_number       1

loop_
  _symmetry_equiv_pos_as_xyz
  'x, y, z'

loop_
  _atom_site_type_symbol
  _atom_site_label
  _atom_site_symmetry_multiplicity
  _atom_site_fract_x
  _atom_site_fract_y
  _atom_site_fract_z
  _atom_site_occupancy
  _atom_site_charge
Ag  Ag1       1.0  0.62549  0.59387  0.85981  1.0000 0.3929831848
Ag  Ag2       1.0  0.40613  0.37451  0.64019  1.0000 0.3929831848
Ag  Ag3       1.0  0.37451  0.40613  0.35981  1.0000 0.3929831848
Ag  Ag4       1.0  0.59387  0.62549  0.14019  1.0000 0.3929831848
H   H1        1.0  0.35460  0.54260  0.00010  1.0000 0.1177553773
H   H2        1.0  0.13550  0.28650  0.81020  1.0000 0.1315164283
H   H3        1.0  0.96800  0.40420  0.89000  1.0000 0.1099339552
H   H4        1.0  0.04170  0.53870  0.93960  1.0000 0.1177553773
H   H5        1.0  0.97890  0.59310  0.11960  1.0000 0.1099339552
H   H6        1.0  0.86560  0.49320  0.17960  1.0000 0.1020836249
H   H7        1.0  0.06400  0.48660  0.24600  1.0000 0.0887371056
H   H8        1.0  0.18730  0.55050  0.09310  1.0000 0.1177553773
H   H9        1.0  0.20740  0.42400  0.13740  1.0000 0.1099339552
H   H10       1.0  0.08990  0.20970  0.05560  1.0000 0.1020836249
H   H11       1.0  0.99800  0.20400  0.96010  1.0000 0.1099339552
H   H12       1.0  0.87290  0.14110  0.11350  1.0000 0.0804298461
H   H13       1.0  0.74790  0.28030  0.09680  1.0000 0.1020836249
H   H14       1.0  0.78880  0.24740  0.98570  1.0000 0.1099339552
H   H15       1.0  0.89560  0.29060  0.24990  1.0000 0.1020836249
H   H16       1.0  0.02710  0.26350  0.23280  1.0000 0.1020836249
H   H17       1.0  0.45740  0.64540  0.49990  1.0000 0.1177553773
H   H18       1.0  0.71350  0.86450  0.68980  1.0000 0.1315164283
H   H19       1.0  0.59580  0.03200  0.61000  1.0000 0.1099339552
H   H20       1.0  0.46130  0.95830  0.56040  1.0000 0.1177553773
H   H21       1.0  0.40690  0.02110  0.38040  1.0000 0.1099339552
H   H22       1.0  0.50680  0.13440  0.32040  1.0000 0.1020836249
H   H23       1.0  0.51340  0.93600  0.25400  1.0000 0.0887371056
H   H24       1.0  0.44950  0.81270  0.40690  1.0000 0.1177553773
H   H25       1.0  0.57600  0.79260  0.36260  1.0000 0.1099339552
H   H26       1.0  0.79030  0.91010  0.44440  1.0000 0.1020836249
H   H27       1.0  0.79600  0.00200  0.53990  1.0000 0.1099339552
H   H28       1.0  0.85890  0.12710  0.38650  1.0000 0.0804298461
H   H29       1.0  0.71970  0.25210  0.40320  1.0000 0.1020836249
H   H30       1.0  0.75260  0.21120  0.51430  1.0000 0.1099339552
H   H31       1.0  0.70940  0.10440  0.25010  1.0000 0.1020836249
H   H32       1.0  0.73650  0.97290  0.26720  1.0000 0.1020836249
H   H33       1.0  0.64540  0.45740  0.50010  1.0000 0.1177553773
H   H34       1.0  0.86450  0.71350  0.31020  1.0000 0.1315164283
H   H35       1.0  0.03200  0.59580  0.39000  1.0000 0.1099339552
H   H36       1.0  0.95830  0.46130  0.43960  1.0000 0.1177553773
H   H37       1.0  0.02110  0.40690  0.61960  1.0000 0.1099339552
H   H38       1.0  0.13440  0.50680  0.67960  1.0000 0.1020836249
H   H39       1.0  0.93600  0.51340  0.74600  1.0000 0.0887371056
H   H40       1.0  0.81270  0.44950  0.59310  1.0000 0.1177553773
H   H41       1.0  0.79260  0.57600  0.63740  1.0000 0.1099339552
H   H42       1.0  0.91010  0.79030  0.55560  1.0000 0.1020836249
H   H43       1.0  0.00200  0.79600  0.46010  1.0000 0.1099339552
H   H44       1.0  0.12710  0.85890  0.61350  1.0000 0.0804298461
H   H45       1.0  0.25210  0.71970  0.59680  1.0000 0.1020836249
H   H46       1.0  0.21120  0.75260  0.48570  1.0000 0.1099339552
H   H47       1.0  0.10440  0.70940  0.74990  1.0000 0.1020836249
H   H48       1.0  0.97290  0.73650  0.73280  1.0000 0.1020836249
H   H49       1.0  0.54260  0.35460  0.99990  1.0000 0.1177553773
H   H50       1.0  0.28650  0.13550  0.18980  1.0000 0.1315164283
H   H51       1.0  0.40420  0.96800  0.11000  1.0000 0.1099339552
H   H52       1.0  0.53870  0.04170  0.06040  1.0000 0.1177553773
H   H53       1.0  0.59310  0.97890  0.88040  1.0000 0.1099339552
H   H54       1.0  0.49320  0.86560  0.82040  1.0000 0.1020836249
H   H55       1.0  0.48660  0.06400  0.75400  1.0000 0.0887371056
H   H56       1.0  0.55050  0.18730  0.90690  1.0000 0.1177553773
H   H57       1.0  0.42400  0.20740  0.86260  1.0000 0.1099339552
H   H58       1.0  0.20970  0.08990  0.94440  1.0000 0.1020836249
H   H59       1.0  0.20400  0.99800  0.03990  1.0000 0.1099339552
H   H60       1.0  0.14110  0.87290  0.88650  1.0000 0.0804298461
H   H61       1.0  0.28030  0.74790  0.90320  1.0000 0.1020836249
H   H62       1.0  0.24740  0.78880  0.01430  1.0000 0.1099339552
H   H63       1.0  0.29060  0.89560  0.75010  1.0000 0.1020836249
H   H64       1.0  0.26350  0.02710  0.76720  1.0000 0.1020836249
C   C1        1.0  0.32600  0.48800  0.94350  1.0000 0.0804298461
C   C2        1.0  0.20600  0.34800  0.83980  1.0000 0.0646768749
C   C3        1.0  0.79120  0.49220  0.97580  1.0000 0.5257031783
C   C4        1.0  0.09470  0.39050  0.00550  1.0000 0.2521402702
C   C5        1.0  0.99919  0.44841  0.95500  1.0000 -0.3094151266
C   C6        1.0  0.88550  0.43490  0.02930  1.0000 0.0887371056
C   C7        1.0  0.93670  0.50190  0.13190  1.0000 -0.2676600327
C   C8        1.0  0.03220  0.44260  0.18020  1.0000 0.0804298461
C   C9        1.0  0.14500  0.45960  0.10640  1.0000 -0.3021072581
C   C10       1.0  0.02910  0.24770  0.02530  1.0000 -0.3094151266
C   C11       1.0  0.91600  0.23280  0.09990  1.0000 0.0722479202
C   C12       1.0  0.82070  0.29150  0.05050  1.0000 -0.2676600327
C   C13       1.0  0.96640  0.30100  0.20160  1.0000 -0.2676600327
C   C14       1.0  0.51200  0.67400  0.55650  1.0000 0.0804298461
C   C15       1.0  0.65200  0.79400  0.66020  1.0000 0.0646768749
C   C16       1.0  0.50780  0.20880  0.52420  1.0000 0.5257031783
C   C17       1.0  0.60950  0.90530  0.49450  1.0000 0.2521402702
C   C18       1.0  0.55159  0.00081  0.54500  1.0000 -0.3094151266
C   C19       1.0  0.56510  0.11450  0.47070  1.0000 0.0887371056
C   C20       1.0  0.49810  0.06330  0.36810  1.0000 -0.2676600327
C   C21       1.0  0.55740  0.96780  0.31980  1.0000 0.0804298461
C   C22       1.0  0.54040  0.85500  0.39360  1.0000 -0.3021072581
C   C23       1.0  0.75230  0.97090  0.47470  1.0000 -0.3094151266
C   C24       1.0  0.76720  0.08400  0.40010  1.0000 0.0722479202
C   C25       1.0  0.70850  0.17930  0.44950  1.0000 -0.2676600327
C   C26       1.0  0.69900  0.03360  0.29840  1.0000 -0.2676600327
C   C27       1.0  0.67400  0.51200  0.44350  1.0000 0.0804298461
C   C28       1.0  0.79400  0.65200  0.33980  1.0000 0.0646768749
C   C29       1.0  0.20880  0.50780  0.47580  1.0000 0.5257031783
C   C30       1.0  0.90530  0.60950  0.50550  1.0000 0.2521402702
C   C31       1.0  0.00081  0.55159  0.45500  1.0000 -0.3094151266
C   C32       1.0  0.11450  0.56510  0.52930  1.0000 0.0887371056
C   C33       1.0  0.06330  0.49810  0.63190  1.0000 -0.2676600327
C   C34       1.0  0.96780  0.55740  0.68020  1.0000 0.0804298461
C   C35       1.0  0.85500  0.54040  0.60640  1.0000 -0.3021072581
C   C36       1.0  0.97090  0.75230  0.52530  1.0000 -0.3094151266
C   C37       1.0  0.08400  0.76720  0.59990  1.0000 0.0722479202
C   C38       1.0  0.17930  0.70850  0.55050  1.0000 -0.2676600327
C   C39       1.0  0.03360  0.69900  0.70160  1.0000 -0.2676600327
C   C40       1.0  0.48800  0.32600  0.05650  1.0000 0.0804298461
C   C41       1.0  0.34800  0.20600  0.16020  1.0000 0.0646768749
C   C42       1.0  0.49220  0.79120  0.02420  1.0000 0.5257031783
C   C43       1.0  0.39050  0.09470  0.99450  1.0000 0.2521402702
C   C44       1.0  0.44841  0.99919  0.04500  1.0000 -0.3094151266
C   C45       1.0  0.43490  0.88550  0.97070  1.0000 0.0887371056
C   C46       1.0  0.50190  0.93670  0.86810  1.0000 -0.2676600327
C   C47       1.0  0.44260  0.03220  0.81980  1.0000 0.0804298461
C   C48       1.0  0.45960  0.14500  0.89360  1.0000 -0.3021072581
C   C49       1.0  0.24770  0.02910  0.97470  1.0000 -0.3094151266
C   C50       1.0  0.23280  0.91600  0.90010  1.0000 0.0722479202
C   C51       1.0  0.29150  0.82070  0.94950  1.0000 -0.2676600327
C   C52       1.0  0.30100  0.96640  0.79840  1.0000 -0.2676600327
N   N1        1.0  0.39685  0.47995  0.86480  1.0000 -0.1950575992
N   N2        1.0  0.31964  0.39016  0.79820  1.0000 -0.1733214691
N   N3        1.0  0.20443  0.40637  0.93250  1.0000 -0.0718422368
N   N4        1.0  0.52005  0.60315  0.63520  1.0000 -0.1950575992
N   N5        1.0  0.60984  0.68036  0.70180  1.0000 -0.1733214691
N   N6        1.0  0.59363  0.79557  0.56750  1.0000 -0.0718422368
N   N7        1.0  0.60315  0.52005  0.36480  1.0000 -0.1950575992
N   N8        1.0  0.68036  0.60984  0.29820  1.0000 -0.1733214691
N   N9        1.0  0.79557  0.59363  0.43250  1.0000 -0.0718422368
N   N10       1.0  0.47995  0.39685  0.13520  1.0000 -0.1950575992
N   N11       1.0  0.39016  0.31964  0.20180  1.0000 -0.1733214691
N   N12       1.0  0.40637  0.20443  0.06750  1.0000 -0.0718422368
O   O1        1.0  0.73412  0.43768  0.89620  1.0000 -0.5560844079
O   O2        1.0  0.77302  0.58998  0.01230  1.0000 -0.5511623159
O   O3        1.0  0.56232  0.26588  0.60380  1.0000 -0.5560844079
O   O4        1.0  0.41002  0.22698  0.48770  1.0000 -0.5511623159
O   O5        1.0  0.26588  0.56232  0.39620  1.0000 -0.5560844079
O   O6        1.0  0.22698  0.41002  0.51230  1.0000 -0.5511623159
O   O7        1.0  0.43768  0.73412  0.10380  1.0000 -0.5560844079
O   O8        1.0  0.58998  0.77302  0.98770  1.0000 -0.5511623159
