# DDEC6 charges by PACMAN v1.1 (https://github.com/mtap-research/PACMAN-charge/)
data_2019[Zn][nan]2[ASR]8
_chemical_formula_sum              "Zn8 H108 C172 N16 O48"
_cell_length_a       11.2843
_cell_length_b       28.9452
_cell_length_c       18.255
_cell_angle_alpha    90
_cell_angle_beta     126.055
_cell_angle_gamma    90

_symmetry_space_group_name_H-M    "P 1"
_symmetry_Int_Tables_number       1

loop_
  _symmetry_equiv_pos_as_xyz
  'x, y, z'

loop_
  _atom_site_type_symbol
  _atom_site_label
  _atom_site_symmetry_multiplicity
  _atom_site_fract_x
  _atom_site_fract_y
  _atom_site_fract_z
  _atom_site_occupancy
  _atom_site_charge
Zn  Zn1       1.0  0.24285  0.67268  0.54377  1.0000 0.8300467451
Zn  Zn2       1.0  0.78018  0.67495  0.37271  1.0000 0.8300467451
Zn  Zn3       1.0  0.75715  0.17268  0.95623  1.0000 0.8300467451
Zn  Zn4       1.0  0.21982  0.17495  0.12729  1.0000 0.8300467451
Zn  Zn5       1.0  0.75715  0.32732  0.45623  1.0000 0.8300467451
Zn  Zn6       1.0  0.21982  0.32505  0.62729  1.0000 0.8300467451
Zn  Zn7       1.0  0.24285  0.82732  0.04377  1.0000 0.8300467451
Zn  Zn8       1.0  0.78018  0.82505  0.87271  1.0000 0.8300467451
H   H1        1.0  0.54673  0.70566  0.71068  1.0000 0.1285739824
H   H2        1.0  0.79414  0.69261  0.77046  1.0000 0.1382545618
H   H3        1.0  0.65891  0.60266  0.56712  1.0000 0.1382545618
H   H4        1.0  0.41804  0.61635  0.51384  1.0000 0.119072009
H   H5        1.0  0.00028  0.65681  0.83937  1.0000 0.1493393962
H   H6        1.0  0.24016  0.63791  0.89176  1.0000 0.119072009
H   H7        1.0  0.10159  0.59734  0.64772  1.0000 0.1382545618
H   H8        1.0  0.86117  0.61535  0.58771  1.0000 0.1493393962
H   H9        1.0  0.35808  0.59905  0.76743  1.0000 0.1493393962
H   H10       1.0  0.41043  0.61379  0.86719  1.0000 0.1285739824
H   H11       1.0  0.35436  0.51800  0.74061  1.0000 0.1382545618
H   H12       1.0  0.34828  0.44051  0.77516  1.0000 0.1382545618
H   H13       1.0  0.30912  0.48092  0.97065  1.0000 0.119072009
H   H14       1.0  0.32131  0.55816  0.93922  1.0000 0.110880387
H   H15       1.0  0.34605  0.38383  0.86480  1.0000 0.1493393962
H   H16       1.0  0.38322  0.39883  0.96067  1.0000 0.119072009
H   H17       1.0  0.07334  0.40688  0.73253  1.0000 0.1382545618
H   H18       1.0  0.83367  0.38671  0.67927  1.0000 0.1568288637
H   H19       1.0  0.98297  0.34735  0.93123  1.0000 0.1493393962
H   H20       1.0  0.21526  0.37049  0.98214  1.0000 0.1285739824
H   H21       1.0  0.65618  0.34205  0.63145  1.0000 0.1382545618
H   H22       1.0  0.41742  0.32329  0.57688  1.0000 0.119072009
H   H23       1.0  0.51262  0.32941  0.82169  1.0000 0.119072009
H   H24       1.0  0.75618  0.34655  0.88277  1.0000 0.1382545618
H   H25       1.0  0.26656  0.73448  0.81817  1.0000 0.119072009
H   H26       1.0  0.77328  0.76787  0.60327  1.0000 0.119072009
H   H27       1.0  0.24153  0.49653  0.54683  1.0000 0.119072009
H   H28       1.0  0.45327  0.20566  0.78932  1.0000 0.1285739824
H   H29       1.0  0.20586  0.19261  0.72954  1.0000 0.1382545618
H   H30       1.0  0.34109  0.10266  0.93288  1.0000 0.1382545618
H   H31       1.0  0.58196  0.11635  0.98616  1.0000 0.119072009
H   H32       1.0  0.99972  0.15681  0.66063  1.0000 0.1493393962
H   H33       1.0  0.75984  0.13791  0.60824  1.0000 0.119072009
H   H34       1.0  0.89841  0.09734  0.85228  1.0000 0.1382545618
H   H35       1.0  0.13883  0.11535  0.91229  1.0000 0.1493393962
H   H36       1.0  0.64192  0.09905  0.73257  1.0000 0.1493393962
H   H37       1.0  0.58957  0.11379  0.63281  1.0000 0.1285739824
H   H38       1.0  0.64564  0.01800  0.75939  1.0000 0.1382545618
H   H39       1.0  0.65172  0.94051  0.72484  1.0000 0.1382545618
H   H40       1.0  0.69088  0.98092  0.52935  1.0000 0.119072009
H   H41       1.0  0.67869  0.05816  0.56078  1.0000 0.110880387
H   H42       1.0  0.65395  0.88383  0.63520  1.0000 0.1493393962
H   H43       1.0  0.61678  0.89883  0.53933  1.0000 0.119072009
H   H44       1.0  0.92666  0.90688  0.76747  1.0000 0.1382545618
H   H45       1.0  0.16633  0.88671  0.82073  1.0000 0.1568288637
H   H46       1.0  0.01703  0.84735  0.56877  1.0000 0.1493393962
H   H47       1.0  0.78474  0.87049  0.51786  1.0000 0.1285739824
H   H48       1.0  0.34382  0.84205  0.86855  1.0000 0.1382545618
H   H49       1.0  0.58258  0.82329  0.92312  1.0000 0.119072009
H   H50       1.0  0.48738  0.82941  0.67831  1.0000 0.119072009
H   H51       1.0  0.24382  0.84655  0.61723  1.0000 0.1382545618
H   H52       1.0  0.73344  0.23448  0.68183  1.0000 0.119072009
H   H53       1.0  0.22672  0.26787  0.89673  1.0000 0.119072009
H   H54       1.0  0.75847  0.99653  0.95317  1.0000 0.119072009
H   H55       1.0  0.45327  0.29434  0.28932  1.0000 0.1285739824
H   H56       1.0  0.20586  0.30739  0.22954  1.0000 0.1382545618
H   H57       1.0  0.34109  0.39734  0.43288  1.0000 0.1382545618
H   H58       1.0  0.58196  0.38365  0.48616  1.0000 0.119072009
H   H59       1.0  0.99972  0.34319  0.16063  1.0000 0.1493393962
H   H60       1.0  0.75984  0.36209  0.10824  1.0000 0.119072009
H   H61       1.0  0.89841  0.40266  0.35228  1.0000 0.1382545618
H   H62       1.0  0.13883  0.38465  0.41229  1.0000 0.1493393962
H   H63       1.0  0.64192  0.40095  0.23257  1.0000 0.1493393962
H   H64       1.0  0.58957  0.38621  0.13281  1.0000 0.1285739824
H   H65       1.0  0.64564  0.48200  0.25939  1.0000 0.1382545618
H   H66       1.0  0.65172  0.55949  0.22484  1.0000 0.1382545618
H   H67       1.0  0.69088  0.51908  0.02935  1.0000 0.119072009
H   H68       1.0  0.67869  0.44184  0.06078  1.0000 0.110880387
H   H69       1.0  0.65395  0.61617  0.13520  1.0000 0.1493393962
H   H70       1.0  0.61678  0.60117  0.03933  1.0000 0.119072009
H   H71       1.0  0.92666  0.59312  0.26747  1.0000 0.1382545618
H   H72       1.0  0.16633  0.61329  0.32073  1.0000 0.1568288637
H   H73       1.0  0.01703  0.65265  0.06877  1.0000 0.1493393962
H   H74       1.0  0.78474  0.62951  0.01786  1.0000 0.1285739824
H   H75       1.0  0.34382  0.65795  0.36855  1.0000 0.1382545618
H   H76       1.0  0.58258  0.67671  0.42312  1.0000 0.119072009
H   H77       1.0  0.48738  0.67059  0.17831  1.0000 0.119072009
H   H78       1.0  0.24382  0.65345  0.11723  1.0000 0.1382545618
H   H79       1.0  0.73344  0.26552  0.18183  1.0000 0.119072009
H   H80       1.0  0.22672  0.23213  0.39673  1.0000 0.119072009
H   H81       1.0  0.75847  0.50347  0.45317  1.0000 0.119072009
H   H82       1.0  0.54673  0.79434  0.21068  1.0000 0.1285739824
H   H83       1.0  0.79414  0.80739  0.27046  1.0000 0.1382545618
H   H84       1.0  0.65891  0.89734  0.06712  1.0000 0.1382545618
H   H85       1.0  0.41804  0.88365  0.01384  1.0000 0.119072009
H   H86       1.0  0.00028  0.84319  0.33937  1.0000 0.1493393962
H   H87       1.0  0.24016  0.86209  0.39176  1.0000 0.119072009
H   H88       1.0  0.10159  0.90266  0.14772  1.0000 0.1382545618
H   H89       1.0  0.86117  0.88465  0.08771  1.0000 0.1493393962
H   H90       1.0  0.35808  0.90095  0.26743  1.0000 0.1493393962
H   H91       1.0  0.41043  0.88621  0.36719  1.0000 0.1285739824
H   H92       1.0  0.35436  0.98200  0.24061  1.0000 0.1382545618
H   H93       1.0  0.34828  0.05949  0.27516  1.0000 0.1382545618
H   H94       1.0  0.30912  0.01908  0.47065  1.0000 0.119072009
H   H95       1.0  0.32131  0.94184  0.43922  1.0000 0.110880387
H   H96       1.0  0.34605  0.11617  0.36480  1.0000 0.1493393962
H   H97       1.0  0.38322  0.10117  0.46067  1.0000 0.119072009
H   H98       1.0  0.07334  0.09312  0.23253  1.0000 0.1382545618
H   H99       1.0  0.83367  0.11329  0.17927  1.0000 0.1568288637
H   H100      1.0  0.98297  0.15265  0.43123  1.0000 0.1493393962
H   H101      1.0  0.21526  0.12951  0.48214  1.0000 0.1285739824
H   H102      1.0  0.65618  0.15795  0.13145  1.0000 0.1382545618
H   H103      1.0  0.41742  0.17671  0.07688  1.0000 0.119072009
H   H104      1.0  0.51262  0.17059  0.32169  1.0000 0.119072009
H   H105      1.0  0.75618  0.15345  0.38277  1.0000 0.1285739824
H   H106      1.0  0.26656  0.76552  0.31817  1.0000 0.119072009
H   H107      1.0  0.77328  0.73213  0.10327  1.0000 0.119072009
H   H108      1.0  0.24153  0.00347  0.04683  1.0000 0.119072009
C   C1        1.0  0.56990  0.68470  0.68080  1.0000 0.119072009
C   C2        1.0  0.71840  0.67700  0.71710  1.0000 -0.1732315078
C   C3        1.0  0.75110  0.64670  0.67390  1.0000 0.110880387
C   C4        1.0  0.63810  0.62410  0.59760  1.0000 -0.1616595204
C   C5        1.0  0.49510  0.63250  0.56570  1.0000 0.0676667319
C   C6        1.0  0.90620  0.63630  0.70930  1.0000 0.119072009
C   C7        1.0  0.01930  0.64400  0.79930  1.0000 -0.1732315078
C   C8        1.0  0.16110  0.63260  0.83020  1.0000 0.0276201881
C   C9        1.0  0.07880  0.60900  0.68670  1.0000 0.0598513336
C   C10       1.0  0.93660  0.61940  0.65050  1.0000 -0.1474053654
C   C11       1.0  0.33600  0.59610  0.81230  1.0000 -0.193676548
C   C12       1.0  0.33900  0.54530  0.83620  1.0000 0.0893558519
C   C13       1.0  0.34580  0.51060  0.78800  1.0000 -0.1418534572
C   C14       1.0  0.34030  0.46440  0.80770  1.0000 -0.1343467514
C   C15       1.0  0.32350  0.45360  0.87390  1.0000 0.0893558519
C   C16       1.0  0.31800  0.48850  0.92340  1.0000 -0.1474053654
C   C17       1.0  0.32550  0.53430  0.90500  1.0000 -0.1616595204
C   C18       1.0  0.31490  0.40390  0.89450  1.0000 -0.2007774505
C   C19       1.0  0.05340  0.39520  0.77290  1.0000 0.0676667319
C   C20       1.0  0.91170  0.38250  0.74150  1.0000 -0.1418534572
C   C21       1.0  0.88270  0.36400  0.79840  1.0000 0.110880387
C   C22       1.0  0.99930  0.35980  0.88970  1.0000 -0.1797177399
C   C23       1.0  0.13660  0.37330  0.91970  1.0000 0.0242630193
C   C24       1.0  0.73100  0.34920  0.76290  1.0000 0.119072009
C   C25       1.0  0.62920  0.34030  0.67180  1.0000 -0.1732315078
C   C26       1.0  0.48680  0.32890  0.63990  1.0000 0.110880387
C   C27       1.0  0.54180  0.33220  0.78250  1.0000 0.0893558519
C   C28       1.0  0.68700  0.34320  0.81910  1.0000 -0.1797177399
C   C29       1.0  0.19850  0.71060  0.66010  1.0000 0.5491112192
C   C30       1.0  0.10190  0.73110  0.68510  1.0000 -0.0515418871
C   C31       1.0  0.16560  0.74130  0.77450  1.0000 -0.1616595204
C   C32       1.0  0.08680  0.76130  0.80330  1.0000 -0.039548397
C   C33       1.0  0.93760  0.77100  0.73790  1.0000 -0.0515418871
C   C34       1.0  0.87400  0.76090  0.64740  1.0000 -0.1616595204
C   C35       1.0  0.95300  0.74120  0.62000  1.0000 -0.0271123861
C   C36       1.0  0.16990  0.77400  0.90140  1.0000 0.5702896734
C   C37       1.0  0.84330  0.79150  0.76300  1.0000 0.5491112192
C   C38       1.0  0.86920  0.73050  0.51980  1.0000 0.5768819769
C   C39       1.0  0.14970  0.58020  0.49430  1.0000 0.5768819769
C   C40       1.0  0.06650  0.53880  0.49290  1.0000 -0.0271123861
C   C41       1.0  0.14310  0.49800  0.52780  1.0000 -0.1616595204
C   C42       1.0  0.92000  0.54130  0.46400  1.0000 -0.039548397
C   C43       1.0  0.82690  0.58440  0.42490  1.0000 0.5491112192
C   C44       1.0  0.43010  0.18470  0.81920  1.0000 0.119072009
C   C45       1.0  0.28160  0.17700  0.78290  1.0000 -0.1732315078
C   C46       1.0  0.24890  0.14670  0.82610  1.0000 0.110880387
C   C47       1.0  0.36190  0.12410  0.90240  1.0000 -0.1616595204
C   C48       1.0  0.50490  0.13250  0.93430  1.0000 0.0676667319
C   C49       1.0  0.09380  0.13630  0.79070  1.0000 0.119072009
C   C50       1.0  0.98070  0.14400  0.70070  1.0000 -0.1732315078
C   C51       1.0  0.83890  0.13260  0.66980  1.0000 0.0276201881
C   C52       1.0  0.92120  0.10900  0.81330  1.0000 0.0598513336
C   C53       1.0  0.06340  0.11940  0.84950  1.0000 -0.1474053654
C   C54       1.0  0.66400  0.09610  0.68770  1.0000 -0.193676548
C   C55       1.0  0.66100  0.04530  0.66380  1.0000 0.0893558519
C   C56       1.0  0.65420  0.01060  0.71200  1.0000 -0.1418534572
C   C57       1.0  0.65970  0.96440  0.69230  1.0000 -0.1343467514
C   C58       1.0  0.67650  0.95360  0.62610  1.0000 0.0893558519
C   C59       1.0  0.68200  0.98850  0.57660  1.0000 -0.1474053654
C   C60       1.0  0.67450  0.03430  0.59500  1.0000 -0.1616595204
C   C61       1.0  0.68510  0.90390  0.60550  1.0000 -0.2007774505
C   C62       1.0  0.94660  0.89520  0.72710  1.0000 0.0676667319
C   C63       1.0  0.08830  0.88250  0.75850  1.0000 -0.1418534572
C   C64       1.0  0.11730  0.86400  0.70160  1.0000 0.119072009
C   C65       1.0  0.00070  0.85980  0.61030  1.0000 -0.1797177399
C   C66       1.0  0.86340  0.87330  0.58030  1.0000 0.0242630193
C   C67       1.0  0.26900  0.84920  0.73710  1.0000 0.119072009
C   C68       1.0  0.37080  0.84030  0.82820  1.0000 -0.1732315078
C   C69       1.0  0.51320  0.82890  0.86010  1.0000 0.110880387
C   C70       1.0  0.45820  0.83220  0.71750  1.0000 0.0893558519
C   C71       1.0  0.31300  0.84320  0.68090  1.0000 -0.1797177399
C   C72       1.0  0.80150  0.21060  0.83990  1.0000 0.5491112192
C   C73       1.0  0.89810  0.23110  0.81490  1.0000 -0.0515418871
C   C74       1.0  0.83440  0.24130  0.72550  1.0000 -0.1616595204
C   C75       1.0  0.91320  0.26130  0.69670  1.0000 -0.039548397
C   C76       1.0  0.06240  0.27100  0.76210  1.0000 -0.0515418871
C   C77       1.0  0.12600  0.26090  0.85260  1.0000 -0.1616595204
C   C78       1.0  0.04700  0.24120  0.88000  1.0000 -0.0271123861
C   C79       1.0  0.83010  0.27400  0.59860  1.0000 0.5702896734
C   C80       1.0  0.15670  0.29150  0.73700  1.0000 0.5491112192
C   C81       1.0  0.13080  0.23050  0.98020  1.0000 0.5768819769
C   C82       1.0  0.85030  0.08020  0.00570  1.0000 0.5768819769
C   C83       1.0  0.93350  0.03880  0.00710  1.0000 -0.0271123861
C   C84       1.0  0.85690  0.99800  0.97220  1.0000 -0.1616595204
C   C85       1.0  0.08000  0.04130  0.03600  1.0000 -0.039548397
C   C86       1.0  0.17310  0.08440  0.07510  1.0000 0.5491112192
C   C87       1.0  0.43010  0.31530  0.31920  1.0000 0.119072009
C   C88       1.0  0.28160  0.32300  0.28290  1.0000 -0.1732315078
C   C89       1.0  0.24890  0.35330  0.32610  1.0000 0.110880387
C   C90       1.0  0.36190  0.37590  0.40240  1.0000 -0.1616595204
C   C91       1.0  0.50490  0.36750  0.43430  1.0000 0.0676667319
C   C92       1.0  0.09380  0.36370  0.29070  1.0000 0.119072009
C   C93       1.0  0.98070  0.35600  0.20070  1.0000 -0.1732315078
C   C94       1.0  0.83890  0.36740  0.16980  1.0000 0.0276201881
C   C95       1.0  0.92120  0.39100  0.31330  1.0000 0.0598513336
C   C96       1.0  0.06340  0.38060  0.34950  1.0000 -0.1474053654
C   C97       1.0  0.66400  0.40390  0.18770  1.0000 -0.193676548
C   C98       1.0  0.66100  0.45470  0.16380  1.0000 0.0893558519
C   C99       1.0  0.65420  0.48940  0.21200  1.0000 -0.1418534572
C   C100      1.0  0.65970  0.53560  0.19230  1.0000 -0.1343467514
C   C101      1.0  0.67650  0.54640  0.12610  1.0000 0.0893558519
C   C102      1.0  0.68200  0.51150  0.07660  1.0000 -0.1474053654
C   C103      1.0  0.67450  0.46570  0.09500  1.0000 -0.1616595204
C   C104      1.0  0.68510  0.59610  0.10550  1.0000 -0.2007774505
C   C105      1.0  0.94660  0.60480  0.22710  1.0000 0.0676667319
C   C106      1.0  0.08830  0.61750  0.25850  1.0000 -0.1418534572
C   C107      1.0  0.11730  0.63600  0.20160  1.0000 0.119072009
C   C108      1.0  0.00070  0.64020  0.11030  1.0000 -0.1797177399
C   C109      1.0  0.86340  0.62670  0.08030  1.0000 0.0242630193
C   C110      1.0  0.26900  0.65080  0.23710  1.0000 0.119072009
C   C111      1.0  0.37080  0.65970  0.32820  1.0000 -0.1732315078
C   C112      1.0  0.51320  0.67110  0.36010  1.0000 0.110880387
C   C113      1.0  0.45820  0.66780  0.21750  1.0000 0.0893558519
C   C114      1.0  0.31300  0.65680  0.18090  1.0000 -0.1797177399
C   C115      1.0  0.80150  0.28940  0.33990  1.0000 0.5491112192
C   C116      1.0  0.89810  0.26890  0.31490  1.0000 -0.0515418871
C   C117      1.0  0.83440  0.25870  0.22550  1.0000 -0.1616595204
C   C118      1.0  0.91320  0.23870  0.19670  1.0000 -0.039548397
C   C119      1.0  0.06240  0.22900  0.26210  1.0000 -0.0515418871
C   C120      1.0  0.12600  0.23910  0.35260  1.0000 -0.1616595204
C   C121      1.0  0.04700  0.25880  0.38000  1.0000 -0.0271123861
C   C122      1.0  0.83010  0.22600  0.09860  1.0000 0.5702896734
C   C123      1.0  0.15670  0.20850  0.23700  1.0000 0.5491112192
C   C124      1.0  0.13080  0.26950  0.48020  1.0000 0.5768819769
C   C125      1.0  0.85030  0.41980  0.50570  1.0000 0.5768819769
C   C126      1.0  0.93350  0.46120  0.50710  1.0000 -0.0271123861
C   C127      1.0  0.85690  0.50200  0.47220  1.0000 -0.1616595204
C   C128      1.0  0.08000  0.45870  0.53600  1.0000 -0.039548397
C   C129      1.0  0.17310  0.41560  0.57510  1.0000 0.5491112192
C   C130      1.0  0.56990  0.81530  0.18080  1.0000 0.119072009
C   C131      1.0  0.71840  0.82300  0.21710  1.0000 -0.1732315078
C   C132      1.0  0.75110  0.85330  0.17390  1.0000 0.110880387
C   C133      1.0  0.63810  0.87590  0.09760  1.0000 -0.1616595204
C   C134      1.0  0.49510  0.86750  0.06570  1.0000 0.0676667319
C   C135      1.0  0.90620  0.86370  0.20930  1.0000 0.119072009
C   C136      1.0  0.01930  0.85600  0.29930  1.0000 -0.1732315078
C   C137      1.0  0.16110  0.86740  0.33020  1.0000 0.0276201881
C   C138      1.0  0.07880  0.89100  0.18670  1.0000 0.0598513336
C   C139      1.0  0.93660  0.88060  0.15050  1.0000 -0.1474053654
C   C140      1.0  0.33600  0.90390  0.31230  1.0000 -0.193676548
C   C141      1.0  0.33900  0.95470  0.33620  1.0000 0.0893558519
C   C142      1.0  0.34580  0.98940  0.28800  1.0000 -0.1418534572
C   C143      1.0  0.34030  0.03560  0.30770  1.0000 -0.1343467514
C   C144      1.0  0.32350  0.04640  0.37390  1.0000 0.0893558519
C   C145      1.0  0.31800  0.01150  0.42340  1.0000 -0.1474053654
C   C146      1.0  0.32550  0.96570  0.40500  1.0000 -0.1616595204
C   C147      1.0  0.31490  0.09610  0.39450  1.0000 -0.2007774505
C   C148      1.0  0.05340  0.10480  0.27290  1.0000 0.0676667319
C   C149      1.0  0.91170  0.11750  0.24150  1.0000 -0.1418534572
C   C150      1.0  0.88270  0.13600  0.29840  1.0000 0.110880387
C   C151      1.0  0.99930  0.14020  0.38970  1.0000 -0.1797177399
C   C152      1.0  0.13660  0.12670  0.41970  1.0000 0.0242630193
C   C153      1.0  0.73100  0.15080  0.26290  1.0000 0.119072009
C   C154      1.0  0.62920  0.15970  0.17180  1.0000 -0.1732315078
C   C155      1.0  0.48680  0.17110  0.13990  1.0000 0.110880387
C   C156      1.0  0.54180  0.16780  0.28250  1.0000 0.0893558519
C   C157      1.0  0.68700  0.15680  0.31910  1.0000 -0.1797177399
C   C158      1.0  0.19850  0.78940  0.16010  1.0000 0.5491112192
C   C159      1.0  0.10190  0.76890  0.18510  1.0000 -0.0515418871
C   C160      1.0  0.16560  0.75870  0.27450  1.0000 -0.1616595204
C   C161      1.0  0.08680  0.73870  0.30330  1.0000 -0.039548397
C   C162      1.0  0.93760  0.72900  0.23790  1.0000 -0.0515418871
C   C163      1.0  0.87400  0.73910  0.14740  1.0000 -0.1616595204
C   C164      1.0  0.95300  0.75880  0.12000  1.0000 -0.0271123861
C   C165      1.0  0.16990  0.72600  0.40140  1.0000 0.5702896734
C   C166      1.0  0.84330  0.70850  0.26300  1.0000 0.5491112192
C   C167      1.0  0.86920  0.76950  0.01980  1.0000 0.5768819769
C   C168      1.0  0.14970  0.91980  0.99430  1.0000 0.5768819769
C   C169      1.0  0.06650  0.96120  0.99290  1.0000 -0.0271123861
C   C170      1.0  0.14310  0.00200  0.02780  1.0000 -0.1616595204
C   C171      1.0  0.92000  0.95870  0.96400  1.0000 -0.039548397
C   C172      1.0  0.82690  0.91560  0.92490  1.0000 0.5491112192
N   N1        1.0  0.46230  0.66370  0.60700  1.0000 -0.2251053731
N   N2        1.0  0.18700  0.61430  0.77390  1.0000 0.110880387
N   N3        1.0  0.16170  0.39060  0.86210  1.0000 0.110880387
N   N4        1.0  0.44230  0.32540  0.69320  1.0000 -0.2236854891
N   N5        1.0  0.53770  0.16370  0.89300  1.0000 -0.2251053731
N   N6        1.0  0.81300  0.11430  0.72610  1.0000 0.110880387
N   N7        1.0  0.83830  0.89060  0.63790  1.0000 0.110880387
N   N8        1.0  0.55770  0.82540  0.80680  1.0000 -0.2236854891
N   N9        1.0  0.53770  0.33630  0.39300  1.0000 -0.2251053731
N   N10       1.0  0.81300  0.38570  0.22610  1.0000 0.110880387
N   N11       1.0  0.83830  0.60940  0.13790  1.0000 0.110880387
N   N12       1.0  0.55770  0.67460  0.30680  1.0000 -0.2236854891
N   N13       1.0  0.46230  0.83630  0.10700  1.0000 -0.2236854891
N   N14       1.0  0.18700  0.88570  0.27390  1.0000 0.110880387
N   N15       1.0  0.16170  0.10940  0.36210  1.0000 0.110880387
N   N16       1.0  0.44230  0.17460  0.19320  1.0000 -0.2236854891
O   O1        1.0  0.15430  0.71620  0.57910  1.0000 -0.5056887994
O   O2        1.0  0.31250  0.69010  0.71950  1.0000 -0.5739122013
O   O3        1.0  0.23520  0.74340  0.96010  1.0000 -0.5739122013
O   O4        1.0  0.16890  0.81672  0.91700  1.0000 -0.5408709656
O   O5        1.0  0.88140  0.78280  0.84220  1.0000 -0.5026289205
O   O6        1.0  0.73530  0.81530  0.70720  1.0000 -0.5754756908
O   O7        1.0  0.81040  0.76280  0.46540  1.0000 -0.5610814224
O   O8        1.0  0.85540  0.68801  0.49940  1.0000 -0.5408709656
O   O9        1.0  0.85640  0.61186  0.38330  1.0000 -0.5408709656
O   O10       1.0  0.72800  0.59030  0.43310  1.0000 -0.5408709656
O   O11       1.0  0.16810  0.61228  0.54870  1.0000 -0.5610814224
O   O12       1.0  0.20010  0.57880  0.45050  1.0000 -0.5408709656
O   O13       1.0  0.84570  0.21620  0.92090  1.0000 -0.5056887994
O   O14       1.0  0.68750  0.19010  0.78050  1.0000 -0.5739122013
O   O15       1.0  0.76480  0.24340  0.53990  1.0000 -0.5739122013
O   O16       1.0  0.83110  0.31672  0.58300  1.0000 -0.5408709656
O   O17       1.0  0.11860  0.28280  0.65780  1.0000 -0.5026289205
O   O18       1.0  0.26470  0.31530  0.79280  1.0000 -0.5754756908
O   O19       1.0  0.18960  0.26280  0.03460  1.0000 -0.5610814224
O   O20       1.0  0.14460  0.18801  0.00060  1.0000 -0.5408709656
O   O21       1.0  0.14360  0.11186  0.11670  1.0000 -0.5408709656
O   O22       1.0  0.27200  0.09030  0.06690  1.0000 -0.5408709656
O   O23       1.0  0.83190  0.11228  0.95130  1.0000 -0.5610814224
O   O24       1.0  0.79990  0.07880  0.04950  1.0000 -0.5408709656
O   O25       1.0  0.84570  0.28380  0.42090  1.0000 -0.5056887994
O   O26       1.0  0.68750  0.30990  0.28050  1.0000 -0.5739122013
O   O27       1.0  0.76480  0.25660  0.03990  1.0000 -0.5739122013
O   O28       1.0  0.83110  0.18328  0.08300  1.0000 -0.5408709656
O   O29       1.0  0.11860  0.21720  0.15780  1.0000 -0.5026289205
O   O30       1.0  0.26470  0.18470  0.29280  1.0000 -0.5754756908
O   O31       1.0  0.18960  0.23720  0.53460  1.0000 -0.5610814224
O   O32       1.0  0.14460  0.31199  0.50060  1.0000 -0.5408709656
O   O33       1.0  0.14360  0.38814  0.61670  1.0000 -0.5408709656
O   O34       1.0  0.27200  0.40970  0.56690  1.0000 -0.5408709656
O   O35       1.0  0.83190  0.38772  0.45130  1.0000 -0.5610814224
O   O36       1.0  0.79990  0.42120  0.54950  1.0000 -0.5408709656
O   O37       1.0  0.15430  0.78380  0.07910  1.0000 -0.5056887994
O   O38       1.0  0.31250  0.80990  0.21950  1.0000 -0.5739122013
O   O39       1.0  0.23520  0.75660  0.46010  1.0000 -0.5739122013
O   O40       1.0  0.16890  0.68328  0.41700  1.0000 -0.5408709656
O   O41       1.0  0.88140  0.71720  0.34220  1.0000 -0.5026289205
O   O42       1.0  0.73530  0.68470  0.20720  1.0000 -0.5754756908
O   O43       1.0  0.81040  0.73720  0.96540  1.0000 -0.5610814224
O   O44       1.0  0.85540  0.81199  0.99940  1.0000 -0.5408709656
O   O45       1.0  0.85640  0.88814  0.88330  1.0000 -0.5408709656
O   O46       1.0  0.72800  0.90970  0.93310  1.0000 -0.5408709656
O   O47       1.0  0.16810  0.88772  0.04870  1.0000 -0.5610814224
O   O48       1.0  0.20010  0.92120  0.95050  1.0000 -0.5408709656
