# DDEC6 charges by PACMAN v1.1 (https://github.com/mtap-research/PACMAN-charge/)
data_2019[Co][sql]2[ASR]6
_chemical_formula_sum              "Co2 H30 C46 N2 O18"
_cell_length_a       4.75
_cell_length_b       15.915
_cell_length_c       16.062
_cell_angle_alpha    61.88
_cell_angle_beta     85.027
_cell_angle_gamma    81.966

_symmetry_space_group_name_H-M    "P 1"
_symmetry_Int_Tables_number       1

loop_
  _symmetry_equiv_pos_as_xyz
  'x, y, z'

loop_
  _atom_site_type_symbol
  _atom_site_label
  _atom_site_symmetry_multiplicity
  _atom_site_fract_x
  _atom_site_fract_y
  _atom_site_fract_z
  _atom_site_occupancy
  _atom_site_charge
Co  Co1       1.0  0.65190  0.72204  0.68091  1.0000 0.9913747199
Co  Co2       1.0  0.34810  0.27796  0.31909  1.0000 0.9913747199
H   H1        1.0  0.55730  0.33650  0.97970  1.0000 0.3185250648
H   H2        1.0  0.60170  0.66800  0.80940  1.0000 0.3629467673
H   H3        1.0  0.26010  0.69650  0.78760  1.0000 0.3696128912
H   H4        1.0  0.10550  0.80620  0.80300  1.0000 0.3323001452
H   H5        1.0  0.63730  0.07520  0.98740  1.0000 0.1119826883
H   H6        1.0  0.96190  0.05120  0.88250  1.0000 0.129939732
H   H7        1.0  0.84360  0.34190  0.89480  1.0000 0.1213109729
H   H8        1.0  0.25080  0.45780  0.76150  1.0000 0.1368410058
H   H9        1.0  0.80600  0.43070  0.56930  1.0000 0.129939732
H   H10       1.0  0.68730  0.27840  0.61440  1.0000 0.129939732
H   H11       1.0  0.44780  0.04910  0.80420  1.0000 0.1213109729
H   H12       1.0  0.59990  0.11730  0.71040  1.0000 0.1119826883
H   H13       1.0  0.20550  0.21180  0.57050  1.0000 0.1368410058
H   H14       1.0  0.74510  0.02830  0.55140  1.0000 0.129939732
H   H15       1.0  0.19370  0.94480  0.78420  1.0000 0.1213109729
H   H16       1.0  0.44270  0.66350  0.02030  1.0000 0.3185250648
H   H17       1.0  0.39830  0.33200  0.19060  1.0000 0.3629467673
H   H18       1.0  0.73990  0.30350  0.21240  1.0000 0.3696128912
H   H19       1.0  0.89450  0.19380  0.19700  1.0000 0.3323001452
H   H20       1.0  0.36270  0.92480  0.01260  1.0000 0.1119826883
H   H21       1.0  0.03810  0.94880  0.11750  1.0000 0.129939732
H   H22       1.0  0.15640  0.65810  0.10520  1.0000 0.1213109729
H   H23       1.0  0.74920  0.54220  0.23850  1.0000 0.1368410058
H   H24       1.0  0.19400  0.56930  0.43070  1.0000 0.129939732
H   H25       1.0  0.31270  0.72160  0.38560  1.0000 0.129939732
H   H26       1.0  0.55220  0.95090  0.19580  1.0000 0.1213109729
H   H27       1.0  0.40010  0.88270  0.28960  1.0000 0.1119826883
H   H28       1.0  0.79450  0.78820  0.42950  1.0000 0.1368410058
H   H29       1.0  0.25490  0.97170  0.44860  1.0000 0.1368410058
H   H30       1.0  0.80630  0.05520  0.21580  1.0000 0.1213109729
C   C1        1.0  0.48770  0.22260  0.02610  1.0000 0.5271899886
C   C2        1.0  0.70860  0.21080  0.95040  1.0000 -0.0456195306
C   C3        1.0  0.74500  0.12400  0.94690  1.0000 -0.0967225656
C   C4        1.0  0.93760  0.10920  0.88450  1.0000 -0.178832875
C   C5        1.0  0.09490  0.18390  0.82460  1.0000 0.129939732
C   C6        1.0  0.06220  0.27230  0.82900  1.0000 -0.0169462003
C   C7        1.0  0.86830  0.28450  0.89160  1.0000 -0.178832875
C   C8        1.0  0.25940  0.33090  0.75910  1.0000 -0.0272425041
C   C9        1.0  0.33760  0.42140  0.73300  1.0000 -0.135325592
C   C10       1.0  0.54650  0.45600  0.66390  1.0000 -0.0048707873
C   C11       1.0  0.67290  0.40420  0.61790  1.0000 -0.0848658793
C   C12       1.0  0.60150  0.31380  0.64410  1.0000 -0.178832875
C   C13       1.0  0.39950  0.27680  0.71550  1.0000 0.1119826883
C   C14       1.0  0.64650  0.55380  0.63760  1.0000 0.5625973828
C   C15       1.0  0.41690  0.10490  0.74300  1.0000 -0.1602395289
C   C16       1.0  0.22630  0.08310  0.68700  1.0000 0.1119826883
C   C17       1.0  0.14040  0.15180  0.59720  1.0000 -0.1484616585
C   C18       1.0  0.95860  0.13240  0.54660  1.0000 -0.0117130044
C   C19       1.0  0.86800  0.04160  0.58470  1.0000 -0.1186105572
C   C20       1.0  0.96210  0.97100  0.67260  1.0000 -0.0384637844
C   C21       1.0  0.13670  0.99180  0.72450  1.0000 -0.2031488382
C   C22       1.0  0.85650  0.20900  0.45200  1.0000 0.5913589187
C   C23       1.0  0.87220  0.87160  0.71320  1.0000 0.5625973828
C   C24       1.0  0.51230  0.77740  0.97390  1.0000 0.5271899886
C   C25       1.0  0.29140  0.78920  0.04960  1.0000 -0.0456195306
C   C26       1.0  0.25500  0.87600  0.05310  1.0000 -0.0967225656
C   C27       1.0  0.06240  0.89080  0.11550  1.0000 -0.178832875
C   C28       1.0  0.90510  0.81610  0.17540  1.0000 0.129939732
C   C29       1.0  0.93780  0.72770  0.17100  1.0000 -0.0169462003
C   C30       1.0  0.13170  0.71550  0.10840  1.0000 -0.178832875
C   C31       1.0  0.74060  0.66910  0.24090  1.0000 -0.0272425041
C   C32       1.0  0.66240  0.57860  0.26700  1.0000 -0.135325592
C   C33       1.0  0.45350  0.54400  0.33610  1.0000 -0.0048707873
C   C34       1.0  0.32710  0.59580  0.38210  1.0000 -0.0848658793
C   C35       1.0  0.39850  0.68620  0.35590  1.0000 -0.178832875
C   C36       1.0  0.60050  0.72320  0.28450  1.0000 0.1119826883
C   C37       1.0  0.35350  0.44620  0.36240  1.0000 0.5625973828
C   C38       1.0  0.58310  0.89510  0.25700  1.0000 -0.1602395289
C   C39       1.0  0.77370  0.91690  0.31300  1.0000 0.1119826883
C   C40       1.0  0.85960  0.84820  0.40280  1.0000 -0.1484616585
C   C41       1.0  0.04140  0.86760  0.45340  1.0000 -0.0117130044
C   C42       1.0  0.13200  0.95840  0.41530  1.0000 -0.1186105572
C   C43       1.0  0.03790  0.02900  0.32740  1.0000 -0.0384637844
C   C44       1.0  0.86330  0.00820  0.27550  1.0000 -0.2031488382
C   C45       1.0  0.14350  0.79100  0.54800  1.0000 0.5913589187
C   C46       1.0  0.12780  0.12840  0.28680  1.0000 0.5625973828
N   N1        1.0  0.29970  0.18730  0.75700  1.0000 -0.0585079752
N   N2        1.0  0.70030  0.81270  0.24300  1.0000 -0.0585079752
O   O1        1.0  0.37030  0.15260  0.07550  1.0000 -0.4986512624
O   O2        1.0  0.45280  0.30160  0.02140  1.0000 -0.3834084086
O   O3        1.0  0.42700  0.69040  0.80620  1.0000 -0.687335711
O   O4        1.0  0.56250  0.59030  0.68980  1.0000 -0.58523665
O   O5        1.0  0.82140  0.58210  0.57370  1.0000 -0.4751468711
O   O6        1.0  0.99900  0.28130  0.40680  1.0000 -0.5686074309
O   O7        1.0  0.63520  0.19920  0.42270  1.0000 -0.5587425046
O   O8        1.0  0.74870  0.85210  0.66030  1.0000 -0.5240473561
O   O9        1.0  0.93250  0.81400  0.79730  1.0000 -0.3887850158
O   O10       1.0  0.62970  0.84740  0.92450  1.0000 -0.4986512624
O   O11       1.0  0.54720  0.69840  0.97860  1.0000 -0.3834084086
O   O12       1.0  0.57300  0.30960  0.19380  1.0000 -0.687335711
O   O13       1.0  0.43750  0.40970  0.31020  1.0000 -0.58523665
O   O14       1.0  0.17860  0.41790  0.42630  1.0000 -0.4751468711
O   O15       1.0  0.00100  0.71870  0.59320  1.0000 -0.5686074309
O   O16       1.0  0.36480  0.80080  0.57730  1.0000 -0.5587425046
O   O17       1.0  0.25130  0.14790  0.33970  1.0000 -0.5240473561
O   O18       1.0  0.06750  0.18600  0.20270  1.0000 -0.3887850158
