# DDEC6 charges by PACMAN v1.1 (https://github.com/mtap-research/PACMAN-charge/)
data_2019[Cd][ant]3[ASR]1
_chemical_formula_sum              "Cd6 H32 C64 N20 O20"
_cell_length_a       17.1637
_cell_length_b       17.1637
_cell_length_c       19.632
_cell_angle_alpha    69.7793
_cell_angle_beta     110.221
_cell_angle_gamma    156.68

_symmetry_space_group_name_H-M    "P 1"
_symmetry_Int_Tables_number       1

loop_
  _symmetry_equiv_pos_as_xyz
  'x, y, z'

loop_
  _atom_site_type_symbol
  _atom_site_label
  _atom_site_symmetry_multiplicity
  _atom_site_fract_x
  _atom_site_fract_y
  _atom_site_fract_z
  _atom_site_occupancy
  _atom_site_charge
Cd  Cd1       1.0  0.68996  0.74404  0.55654  1.0000 0.9553308978
Cd  Cd2       1.0  0.74404  0.68996  0.94346  1.0000 0.9553308978
Cd  Cd3       1.0  0.31004  0.25596  0.44346  1.0000 0.9553308978
Cd  Cd4       1.0  0.25596  0.31004  0.05654  1.0000 0.9553308978
Cd  Cd5       1.0  0.05769  0.05769  0.25000  1.0000 0.8821840479
Cd  Cd6       1.0  0.94231  0.94231  0.75000  1.0000 0.8821840479
H   H1        1.0  0.31400  0.73180  0.17930  1.0000 0.2777544974
H   H2        1.0  0.27550  0.57850  0.14110  1.0000 0.1374460145
H   H3        1.0  0.45130  0.51470  0.28370  1.0000 0.1230987391
H   H4        1.0  0.47650  0.73910  0.34480  1.0000 0.1451079442
H   H5        1.0  0.16100  0.84440  0.29540  1.0000 0.1230987391
H   H6        1.0  0.21990  0.75590  0.33650  1.0000 0.1134250171
H   H7        1.0  0.29520  0.83700  0.13200  1.0000 0.1134250171
H   H8        1.0  0.23630  0.92550  0.09090  1.0000 0.1374460145
H   H9        1.0  0.73180  0.31400  0.32070  1.0000 0.2777544974
H   H10       1.0  0.57850  0.27550  0.35890  1.0000 0.1374460145
H   H11       1.0  0.51470  0.45130  0.21630  1.0000 0.1230987391
H   H12       1.0  0.73910  0.47650  0.15520  1.0000 0.1451079442
H   H13       1.0  0.84440  0.16100  0.20460  1.0000 0.1230987391
H   H14       1.0  0.75590  0.21990  0.16350  1.0000 0.1134250171
H   H15       1.0  0.83700  0.29520  0.36800  1.0000 0.1134250171
H   H16       1.0  0.92550  0.23630  0.40910  1.0000 0.1346700235
H   H17       1.0  0.68600  0.26820  0.82070  1.0000 0.2777544974
H   H18       1.0  0.72450  0.42150  0.85890  1.0000 0.1374460145
H   H19       1.0  0.54870  0.48530  0.71630  1.0000 0.1230987391
H   H20       1.0  0.52350  0.26090  0.65520  1.0000 0.1451079442
H   H21       1.0  0.83900  0.15560  0.70460  1.0000 0.1230987391
H   H22       1.0  0.78010  0.24410  0.66350  1.0000 0.1134250171
H   H23       1.0  0.70480  0.16300  0.86800  1.0000 0.1134250171
H   H24       1.0  0.76370  0.07450  0.90910  1.0000 0.1346700235
H   H25       1.0  0.26820  0.68600  0.67930  1.0000 0.2777544974
H   H26       1.0  0.42150  0.72450  0.64110  1.0000 0.1374460145
H   H27       1.0  0.48530  0.54870  0.78370  1.0000 0.1230987391
H   H28       1.0  0.26090  0.52350  0.84480  1.0000 0.1451079442
H   H29       1.0  0.15560  0.83900  0.79540  1.0000 0.1230987391
H   H30       1.0  0.24410  0.78010  0.83650  1.0000 0.1134250171
H   H31       1.0  0.16300  0.70480  0.63200  1.0000 0.1134250171
H   H32       1.0  0.07450  0.76370  0.59090  1.0000 0.1346700235
C   C1        1.0  0.36482  0.66218  0.24070  1.0000 0.2184622034
C   C2        1.0  0.32402  0.58978  0.18770  1.0000 -0.2128452019
C   C3        1.0  0.35537  0.53343  0.20390  1.0000 0.0019861164
C   C4        1.0  0.43133  0.55307  0.27290  1.0000 -0.1560219184
C   C5        1.0  0.44461  0.68619  0.30940  1.0000 -0.1779377789
C   C6        1.0  0.47665  0.63035  0.32500  1.0000 -0.0067002622
C   C7        1.0  0.16513  0.96067  0.16750  1.0000 0.229364623
C   C8        1.0  0.30674  0.45046  0.14710  1.0000 0.5735928907
C   C9        1.0  0.55820  0.65260  0.40130  1.0000 0.5914327397
C   C10       1.0  0.19288  0.89372  0.18910  1.0000 0.0616887666
C   C11       1.0  0.18792  0.84288  0.26270  1.0000 -0.1311912269
C   C12       1.0  0.22314  0.78986  0.28730  1.0000 -0.1138226495
C   C13       1.0  0.26343  0.78777  0.23830  1.0000 -0.0377325521
C   C14       1.0  0.26829  0.83851  0.16480  1.0000 -0.1205253501
C   C15       1.0  0.23307  0.89153  0.14010  1.0000 -0.0853963972
C   C16       1.0  0.31000  0.73780  0.26850  1.0000 0.4432295828
C   C17       1.0  0.66218  0.36482  0.25930  1.0000 0.2184622034
C   C18       1.0  0.58978  0.32402  0.31230  1.0000 -0.2128452019
C   C19       1.0  0.53343  0.35537  0.29610  1.0000 0.0019861164
C   C20       1.0  0.55307  0.43133  0.22710  1.0000 -0.1560219184
C   C21       1.0  0.68619  0.44461  0.19060  1.0000 -0.1779377789
C   C22       1.0  0.63035  0.47665  0.17500  1.0000 -0.0067002622
C   C23       1.0  0.96067  0.16513  0.33250  1.0000 0.229364623
C   C24       1.0  0.45046  0.30674  0.35290  1.0000 0.5735928907
C   C25       1.0  0.65260  0.55820  0.09870  1.0000 0.5914327397
C   C26       1.0  0.89372  0.19288  0.31090  1.0000 0.0616887666
C   C27       1.0  0.84288  0.18792  0.23730  1.0000 -0.1311912269
C   C28       1.0  0.78986  0.22314  0.21270  1.0000 -0.1138226495
C   C29       1.0  0.78777  0.26343  0.26170  1.0000 -0.0377325521
C   C30       1.0  0.83851  0.26829  0.33520  1.0000 -0.1205253501
C   C31       1.0  0.89153  0.23307  0.35990  1.0000 -0.0853963972
C   C32       1.0  0.73780  0.31000  0.23150  1.0000 0.4432295828
C   C33       1.0  0.63518  0.33782  0.75930  1.0000 0.2184622034
C   C34       1.0  0.67598  0.41022  0.81230  1.0000 -0.2128452019
C   C35       1.0  0.64463  0.46657  0.79610  1.0000 0.0019861164
C   C36       1.0  0.56867  0.44693  0.72710  1.0000 -0.1560219184
C   C37       1.0  0.55539  0.31381  0.69060  1.0000 -0.1779377789
C   C38       1.0  0.52335  0.36965  0.67500  1.0000 -0.0067002622
C   C39       1.0  0.83487  0.03933  0.83250  1.0000 0.229364623
C   C40       1.0  0.69326  0.54954  0.85290  1.0000 0.5735928907
C   C41       1.0  0.44180  0.34740  0.59870  1.0000 0.5914327397
C   C42       1.0  0.80712  0.10628  0.81090  1.0000 0.0616887666
C   C43       1.0  0.81208  0.15712  0.73730  1.0000 -0.1311912269
C   C44       1.0  0.77686  0.21014  0.71270  1.0000 -0.1138226495
C   C45       1.0  0.73657  0.21223  0.76170  1.0000 -0.0377325521
C   C46       1.0  0.73171  0.16149  0.83520  1.0000 -0.1205253501
C   C47       1.0  0.76693  0.10847  0.85990  1.0000 -0.0853963972
C   C48       1.0  0.69000  0.26220  0.73150  1.0000 0.4432295828
C   C49       1.0  0.33782  0.63518  0.74070  1.0000 0.2184622034
C   C50       1.0  0.41022  0.67598  0.68770  1.0000 -0.2128452019
C   C51       1.0  0.46657  0.64463  0.70390  1.0000 0.0019861164
C   C52       1.0  0.44693  0.56867  0.77290  1.0000 -0.1560219184
C   C53       1.0  0.31381  0.55539  0.80940  1.0000 -0.1779377789
C   C54       1.0  0.36965  0.52335  0.82500  1.0000 -0.0067002622
C   C55       1.0  0.03933  0.83487  0.66750  1.0000 0.229364623
C   C56       1.0  0.54954  0.69326  0.64710  1.0000 0.5735928907
C   C57       1.0  0.34740  0.44180  0.90130  1.0000 0.5914327397
C   C58       1.0  0.10628  0.80712  0.68910  1.0000 0.0616887666
C   C59       1.0  0.15712  0.81208  0.76270  1.0000 -0.1311912269
C   C60       1.0  0.21014  0.77686  0.78730  1.0000 -0.1138226495
C   C61       1.0  0.21223  0.73657  0.73830  1.0000 -0.0377325521
C   C62       1.0  0.16149  0.73171  0.66480  1.0000 -0.1205253501
C   C63       1.0  0.10847  0.76693  0.64010  1.0000 -0.0853963972
C   C64       1.0  0.26220  0.69000  0.76850  1.0000 0.4432295828
N   N1        1.0  0.32708  0.71412  0.22480  1.0000 -0.3495527611
N   N2        1.0  0.10188  0.01512  0.18280  1.0000 -0.0700959222
N   N3        1.0  0.10490  0.93590  0.21660  1.0000 -0.2641314771
N   N4        1.0  0.15819  0.08521  0.11670  1.0000 -0.09644195
N   N5        1.0  0.19875  0.05185  0.10540  1.0000 -0.2471080527
N   N6        1.0  0.71412  0.32708  0.27520  1.0000 -0.3495527611
N   N7        1.0  0.01512  0.10188  0.31720  1.0000 -0.0700959222
N   N8        1.0  0.93590  0.10490  0.28340  1.0000 -0.2641314771
N   N9        1.0  0.08521  0.15819  0.38330  1.0000 -0.09644195
N   N10       1.0  0.05185  0.19875  0.39460  1.0000 -0.2471080527
N   N11       1.0  0.67292  0.28588  0.77520  1.0000 -0.3495527611
N   N12       1.0  0.89812  0.98488  0.81720  1.0000 -0.0700959222
N   N13       1.0  0.89510  0.06410  0.78340  1.0000 -0.2652771578
N   N14       1.0  0.84181  0.91479  0.88330  1.0000 -0.09644195
N   N15       1.0  0.80125  0.94815  0.89460  1.0000 -0.2471080527
N   N16       1.0  0.28588  0.67292  0.72480  1.0000 -0.3495527611
N   N17       1.0  0.98488  0.89812  0.68280  1.0000 -0.0700959222
N   N18       1.0  0.06410  0.89510  0.71660  1.0000 -0.2641314771
N   N19       1.0  0.91479  0.84181  0.61670  1.0000 -0.09644195
N   N20       1.0  0.94815  0.80125  0.60540  1.0000 -0.2471080527
O   O1        1.0  0.25931  0.33009  0.16800  1.0000 -0.5786674277
O   O2        1.0  0.57088  0.58612  0.41840  1.0000 -0.5786674277
O   O3        1.0  0.61329  0.74111  0.44290  1.0000 -0.5072750704
O   O4        1.0  0.32035  0.50185  0.08170  1.0000 -0.4843502448
O   O5        1.0  0.32570  0.71630  0.33640  1.0000 -0.466149743
O   O6        1.0  0.33009  0.25931  0.33200  1.0000 -0.5786674277
O   O7        1.0  0.58612  0.57088  0.08160  1.0000 -0.5786674277
O   O8        1.0  0.74111  0.61329  0.05710  1.0000 -0.5072750704
O   O9        1.0  0.50185  0.32035  0.41830  1.0000 -0.4843502448
O   O10       1.0  0.71630  0.32570  0.16360  1.0000 -0.466149743
O   O11       1.0  0.74069  0.66991  0.83200  1.0000 -0.5786674277
O   O12       1.0  0.42912  0.41388  0.58160  1.0000 -0.5786674277
O   O13       1.0  0.38671  0.25889  0.55710  1.0000 -0.5072750704
O   O14       1.0  0.67965  0.49815  0.91830  1.0000 -0.4843502448
O   O15       1.0  0.67430  0.28370  0.66360  1.0000 -0.466149743
O   O16       1.0  0.66991  0.74069  0.66800  1.0000 -0.5786674277
O   O17       1.0  0.41388  0.42912  0.91840  1.0000 -0.5786674277
O   O18       1.0  0.25889  0.38671  0.94290  1.0000 -0.5072750704
O   O19       1.0  0.49815  0.67965  0.58170  1.0000 -0.4843502448
O   O20       1.0  0.28370  0.67430  0.83640  1.0000 -0.466149743
