# DDEC6 charges by PACMAN v1.1 (https://github.com/mtap-research/PACMAN-charge/)
data_2019[Gd][nan]3[ASR]3
_chemical_formula_sum              "Gd4 H24 C64 O36"
_cell_length_a       9.1875
_cell_length_b       13.1939
_cell_length_c       14.4346
_cell_angle_alpha    90
_cell_angle_beta     90
_cell_angle_gamma    90

_symmetry_space_group_name_H-M    "P 1"
_symmetry_Int_Tables_number       1

loop_
  _symmetry_equiv_pos_as_xyz
  'x, y, z'

loop_
  _atom_site_type_symbol
  _atom_site_label
  _atom_site_symmetry_multiplicity
  _atom_site_fract_x
  _atom_site_fract_y
  _atom_site_fract_z
  _atom_site_occupancy
  _atom_site_charge
Gd  Gd1       1.0  0.75000  0.50000  0.59614  1.0000 2.0397086652
Gd  Gd2       1.0  0.75000  0.00000  0.90386  1.0000 2.0397086652
Gd  Gd3       1.0  0.25000  0.50000  0.40386  1.0000 2.0397086652
Gd  Gd4       1.0  0.25000  0.00000  0.09614  1.0000 2.0397086652
H   H1        1.0  0.10590  0.47020  0.86000  1.0000 0.1525123237
H   H2        1.0  0.90430  0.74020  0.84840  1.0000 0.1417258368
H   H3        1.0  0.18710  0.68040  0.05350  1.0000 0.1525123237
H   H4        1.0  0.39410  0.52980  0.86000  1.0000 0.1525123237
H   H5        1.0  0.59570  0.25980  0.84840  1.0000 0.1417258368
H   H6        1.0  0.31290  0.31960  0.05350  1.0000 0.1525123237
H   H7        1.0  0.39410  0.97020  0.64000  1.0000 0.1525123237
H   H8        1.0  0.59570  0.24020  0.65160  1.0000 0.1417258368
H   H9        1.0  0.31290  0.18040  0.44650  1.0000 0.1525123237
H   H10       1.0  0.10590  0.02980  0.64000  1.0000 0.1525123237
H   H11       1.0  0.90430  0.75980  0.65160  1.0000 0.1417258368
H   H12       1.0  0.18710  0.81960  0.44650  1.0000 0.1525123237
H   H13       1.0  0.89410  0.52980  0.14000  1.0000 0.1525123237
H   H14       1.0  0.09570  0.25980  0.15160  1.0000 0.1417258368
H   H15       1.0  0.81290  0.31960  0.94650  1.0000 0.1525123237
H   H16       1.0  0.60590  0.47020  0.14000  1.0000 0.1525123237
H   H17       1.0  0.40430  0.74020  0.15160  1.0000 0.1417258368
H   H18       1.0  0.68710  0.68040  0.94650  1.0000 0.1525123237
H   H19       1.0  0.60590  0.02980  0.36000  1.0000 0.1525123237
H   H20       1.0  0.40430  0.75980  0.34840  1.0000 0.1417258368
H   H21       1.0  0.68710  0.81960  0.55350  1.0000 0.1525123237
H   H22       1.0  0.89410  0.97020  0.36000  1.0000 0.1525123237
H   H23       1.0  0.09570  0.24020  0.34840  1.0000 0.1417258368
H   H24       1.0  0.81290  0.18040  0.55350  1.0000 0.1525123237
C   C1        1.0  0.99470  0.60020  0.84060  1.0000 0.0282900618
C   C2        1.0  0.08960  0.53440  0.88440  1.0000 -0.207856649
C   C3        1.0  0.91730  0.56580  0.75460  1.0000 0.5594376312
C   C4        1.0  0.96960  0.69640  0.87700  1.0000 -0.1026000543
C   C5        1.0  0.16030  0.56430  0.96450  1.0000 0.2445358267
C   C6        1.0  0.13820  0.66020  0.00020  1.0000 -0.1861716348
C   C7        1.0  0.04330  0.72640  0.95670  1.0000 0.0025989558
C   C8        1.0  0.02370  0.83270  0.99400  1.0000 0.6493806751
C   C9        1.0  0.50530  0.39980  0.84060  1.0000 0.0282900618
C   C10       1.0  0.41040  0.46560  0.88440  1.0000 -0.207856649
C   C11       1.0  0.58270  0.43420  0.75460  1.0000 0.5594376312
C   C12       1.0  0.53040  0.30360  0.87700  1.0000 -0.1026000543
C   C13       1.0  0.33970  0.43570  0.96450  1.0000 0.2445358267
C   C14       1.0  0.36180  0.33980  0.00020  1.0000 -0.1861716348
C   C15       1.0  0.45670  0.27360  0.95670  1.0000 0.0025989558
C   C16       1.0  0.47630  0.16730  0.99400  1.0000 0.6493806751
C   C17       1.0  0.50530  0.10020  0.65940  1.0000 0.0282900618
C   C18       1.0  0.41040  0.03440  0.61560  1.0000 -0.207856649
C   C19       1.0  0.58270  0.06580  0.74540  1.0000 0.5594376312
C   C20       1.0  0.53040  0.19640  0.62300  1.0000 -0.1026000543
C   C21       1.0  0.33970  0.06430  0.53550  1.0000 0.2445358267
C   C22       1.0  0.36180  0.16020  0.49980  1.0000 -0.1861716348
C   C23       1.0  0.45670  0.22640  0.54330  1.0000 0.0025989558
C   C24       1.0  0.47630  0.33270  0.50600  1.0000 0.6493806751
C   C25       1.0  0.99470  0.89980  0.65940  1.0000 0.0282900618
C   C26       1.0  0.08960  0.96560  0.61560  1.0000 -0.207856649
C   C27       1.0  0.91730  0.93420  0.74540  1.0000 0.5594376312
C   C28       1.0  0.96960  0.80360  0.62300  1.0000 -0.1026000543
C   C29       1.0  0.16030  0.93570  0.53550  1.0000 0.2445358267
C   C30       1.0  0.13820  0.83980  0.49980  1.0000 -0.1861716348
C   C31       1.0  0.04330  0.77360  0.54330  1.0000 0.0025989558
C   C32       1.0  0.02370  0.66730  0.50600  1.0000 0.6493806751
C   C33       1.0  0.00530  0.39980  0.15940  1.0000 0.0282900618
C   C34       1.0  0.91040  0.46560  0.11560  1.0000 -0.207856649
C   C35       1.0  0.08270  0.43420  0.24540  1.0000 0.5594376312
C   C36       1.0  0.03040  0.30360  0.12300  1.0000 -0.1026000543
C   C37       1.0  0.83970  0.43570  0.03550  1.0000 0.2445358267
C   C38       1.0  0.86180  0.33980  0.99980  1.0000 -0.1861716348
C   C39       1.0  0.95670  0.27360  0.04330  1.0000 0.0025989558
C   C40       1.0  0.97630  0.16730  0.00600  1.0000 0.6493806751
C   C41       1.0  0.49470  0.60020  0.15940  1.0000 0.0282900618
C   C42       1.0  0.58960  0.53440  0.11560  1.0000 -0.207856649
C   C43       1.0  0.41730  0.56580  0.24540  1.0000 0.5594376312
C   C44       1.0  0.46960  0.69640  0.12300  1.0000 -0.1026000543
C   C45       1.0  0.66030  0.56430  0.03550  1.0000 0.2445358267
C   C46       1.0  0.63820  0.66020  0.99980  1.0000 -0.1861716348
C   C47       1.0  0.54330  0.72640  0.04330  1.0000 0.0025989558
C   C48       1.0  0.52370  0.83270  0.00600  1.0000 0.6493806751
C   C49       1.0  0.49470  0.89980  0.34060  1.0000 0.0282900618
C   C50       1.0  0.58960  0.96560  0.38440  1.0000 -0.207856649
C   C51       1.0  0.41730  0.93420  0.25460  1.0000 0.5594376312
C   C52       1.0  0.46960  0.80360  0.37700  1.0000 -0.1026000543
C   C53       1.0  0.66030  0.93570  0.46450  1.0000 0.2445358267
C   C54       1.0  0.63820  0.83980  0.50020  1.0000 -0.1861716348
C   C55       1.0  0.54330  0.77360  0.45670  1.0000 0.0025989558
C   C56       1.0  0.52370  0.66730  0.49400  1.0000 0.6493806751
C   C57       1.0  0.00530  0.10020  0.34060  1.0000 0.0282900618
C   C58       1.0  0.91040  0.03440  0.38440  1.0000 -0.207856649
C   C59       1.0  0.08270  0.06580  0.25460  1.0000 0.5594376312
C   C60       1.0  0.03040  0.19640  0.37700  1.0000 -0.1026000543
C   C61       1.0  0.83970  0.06430  0.46450  1.0000 0.2445358267
C   C62       1.0  0.86180  0.16020  0.50020  1.0000 -0.1861716348
C   C63       1.0  0.95670  0.22640  0.45670  1.0000 0.0025989558
C   C64       1.0  0.97630  0.33270  0.49400  1.0000 0.6493806751
O   O1        1.0  0.80120  0.60970  0.73145  1.0000 -0.5753305642
O   O2        1.0  0.96890  0.49360  0.70810  1.0000 -0.5351891159
O   O3        1.0  0.10490  0.85830  0.06010  1.0000 -0.6194748221
O   O4        1.0  0.93110  0.88840  0.95730  1.0000 -0.6311393095
O   O5        1.0  0.69880  0.39030  0.73145  1.0000 -0.5753305642
O   O6        1.0  0.53110  0.50640  0.70810  1.0000 -0.5351891159
O   O7        1.0  0.39510  0.14170  0.06010  1.0000 -0.6194748221
O   O8        1.0  0.56890  0.11160  0.95730  1.0000 -0.6311393095
O   O9        1.0  0.69880  0.10970  0.76855  1.0000 -0.5753305642
O   O10       1.0  0.53110  0.99360  0.79190  1.0000 -0.5351891159
O   O11       1.0  0.39510  0.35830  0.43990  1.0000 -0.6194748221
O   O12       1.0  0.56890  0.38840  0.54270  1.0000 -0.6311393095
O   O13       1.0  0.80120  0.89030  0.76855  1.0000 -0.5753305642
O   O14       1.0  0.96890  0.00640  0.79190  1.0000 -0.5351891159
O   O15       1.0  0.10490  0.64170  0.43990  1.0000 -0.6194748221
O   O16       1.0  0.93110  0.61160  0.54270  1.0000 -0.6311393095
O   O17       1.0  0.19880  0.39030  0.26855  1.0000 -0.5753305642
O   O18       1.0  0.03110  0.50640  0.29190  1.0000 -0.5351891159
O   O19       1.0  0.89510  0.14170  0.93990  1.0000 -0.6194748221
O   O20       1.0  0.06890  0.11160  0.04270  1.0000 -0.6311393095
O   O21       1.0  0.30120  0.60970  0.26855  1.0000 -0.5753305642
O   O22       1.0  0.46890  0.49360  0.29190  1.0000 -0.5351891159
O   O23       1.0  0.60490  0.85830  0.93990  1.0000 -0.6194748221
O   O24       1.0  0.43110  0.88840  0.04270  1.0000 -0.6311393095
O   O25       1.0  0.30120  0.89030  0.23145  1.0000 -0.5753305642
O   O26       1.0  0.46890  0.00640  0.20810  1.0000 -0.5351891159
O   O27       1.0  0.60490  0.64170  0.56010  1.0000 -0.6194748221
O   O28       1.0  0.43110  0.61160  0.45730  1.0000 -0.6311393095
O   O29       1.0  0.19880  0.10970  0.23145  1.0000 -0.5753305642
O   O30       1.0  0.03110  0.99360  0.20810  1.0000 -0.5351891159
O   O31       1.0  0.89510  0.35830  0.56010  1.0000 -0.6194748221
O   O32       1.0  0.06890  0.38840  0.45730  1.0000 -0.6311393095
O   O33       1.0  0.25000  0.50000  0.01380  1.0000 -0.1861716348
O   O34       1.0  0.25000  0.00000  0.48620  1.0000 -0.1861716348
O   O35       1.0  0.75000  0.50000  0.98620  1.0000 -0.1861716348
O   O36       1.0  0.75000  0.00000  0.51380  1.0000 -0.1861716348
