# DDEC6 charges by PACMAN v1.1 (https://github.com/mtap-research/PACMAN-charge/)
data_2019[Zn][sql]2[ASR]22
_chemical_formula_sum              "Zn4 H44 C72 Br4 N8 O16"
_cell_length_a       10.089
_cell_length_b       11.448
_cell_length_c       17.443
_cell_angle_alpha    90
_cell_angle_beta     103.607
_cell_angle_gamma    90

_symmetry_space_group_name_H-M    "P 1"
_symmetry_Int_Tables_number       1

loop_
  _symmetry_equiv_pos_as_xyz
  'x, y, z'

loop_
  _atom_site_type_symbol
  _atom_site_label
  _atom_site_symmetry_multiplicity
  _atom_site_fract_x
  _atom_site_fract_y
  _atom_site_fract_z
  _atom_site_occupancy
  _atom_site_charge
Zn  Zn1       1.0  0.88072  0.76080  0.33048  1.0000 0.7996427918
Zn  Zn2       1.0  0.11928  0.76080  0.16952  1.0000 0.7996427918
Zn  Zn3       1.0  0.11928  0.23920  0.66952  1.0000 0.7996427918
Zn  Zn4       1.0  0.88072  0.23920  0.83048  1.0000 0.7996427918
H   H1        1.0  0.57770  0.76080  0.16820  1.0000 0.131384557
H   H2        1.0  0.34170  0.84270  0.95450  1.0000 0.131384557
H   H3        1.0  0.75010  0.83140  0.98710  1.0000 0.131384557
H   H4        1.0  0.77640  0.97630  0.21880  1.0000 0.1085650182
H   H5        1.0  0.77600  0.17550  0.21960  1.0000 0.1192007529
H   H6        1.0  0.00670  0.96840  0.43250  1.0000 0.1085650182
H   H7        1.0  0.01320  0.16720  0.43850  1.0000 0.1463527287
H   H8        1.0  0.72590  0.35110  0.24460  1.0000 0.131384557
H   H9        1.0  0.72780  0.55340  0.24940  1.0000 0.1192007529
H   H10       1.0  0.04660  0.55120  0.42160  1.0000 0.1085650182
H   H11       1.0  0.05470  0.35200  0.42130  1.0000 0.1463527287
H   H12       1.0  0.42230  0.76080  0.33180  1.0000 0.131384557
H   H13       1.0  0.65830  0.84270  0.54550  1.0000 0.131384557
H   H14       1.0  0.24990  0.83140  0.51290  1.0000 0.131384557
H   H15       1.0  0.22360  0.97630  0.28120  1.0000 0.1085650182
H   H16       1.0  0.22400  0.17550  0.28040  1.0000 0.1192007529
H   H17       1.0  0.99330  0.96840  0.06750  1.0000 0.1085650182
H   H18       1.0  0.98680  0.16720  0.06150  1.0000 0.1463527287
H   H19       1.0  0.27410  0.35110  0.25540  1.0000 0.131384557
H   H20       1.0  0.27220  0.55340  0.25060  1.0000 0.1192007529
H   H21       1.0  0.95340  0.55120  0.07840  1.0000 0.1085650182
H   H22       1.0  0.94530  0.35200  0.07870  1.0000 0.1463527287
H   H23       1.0  0.42230  0.23920  0.83180  1.0000 0.131384557
H   H24       1.0  0.65830  0.15730  0.04550  1.0000 0.131384557
H   H25       1.0  0.24990  0.16860  0.01290  1.0000 0.131384557
H   H26       1.0  0.22360  0.02370  0.78120  1.0000 0.1085650182
H   H27       1.0  0.22400  0.82450  0.78040  1.0000 0.1192007529
H   H28       1.0  0.99330  0.03160  0.56750  1.0000 0.1085650182
H   H29       1.0  0.98680  0.83280  0.56150  1.0000 0.1463527287
H   H30       1.0  0.27410  0.64890  0.75540  1.0000 0.131384557
H   H31       1.0  0.27220  0.44660  0.75060  1.0000 0.1192007529
H   H32       1.0  0.95340  0.44880  0.57840  1.0000 0.1085650182
H   H33       1.0  0.94530  0.64800  0.57870  1.0000 0.1463527287
H   H34       1.0  0.57770  0.23920  0.66820  1.0000 0.131384557
H   H35       1.0  0.34170  0.15730  0.45450  1.0000 0.131384557
H   H36       1.0  0.75010  0.16860  0.48710  1.0000 0.131384557
H   H37       1.0  0.77640  0.02370  0.71880  1.0000 0.1085650182
H   H38       1.0  0.77600  0.82450  0.71960  1.0000 0.1192007529
H   H39       1.0  0.00670  0.03160  0.93250  1.0000 0.1085650182
H   H40       1.0  0.01320  0.83280  0.93850  1.0000 0.1463527287
H   H41       1.0  0.72590  0.64890  0.74460  1.0000 0.131384557
H   H42       1.0  0.72780  0.44660  0.74940  1.0000 0.1192007529
H   H43       1.0  0.04660  0.44880  0.92160  1.0000 0.1085650182
H   H44       1.0  0.05470  0.64800  0.92130  1.0000 0.1463527287
C   C1        1.0  0.68520  0.79000  0.08560  1.0000 -0.0187191089
C   C2        1.0  0.56910  0.77950  0.11540  1.0000 -0.138362447
C   C3        1.0  0.43920  0.79710  0.06590  1.0000 0.0086507665
C   C4        1.0  0.42720  0.83030  0.98770  1.0000 -0.1821316315
C   C5        1.0  0.54440  0.84460  0.95980  1.0000 0.1085650182
C   C6        1.0  0.67300  0.82350  0.00720  1.0000 -0.1739294102
C   C7        1.0  0.31190  0.78010  0.09680  1.0000 0.5343369598
C   C8        1.0  0.82580  0.76760  0.13720  1.0000 0.5645065809
C   C9        1.0  0.82440  0.01510  0.26360  1.0000 0.0831164102
C   C10       1.0  0.82360  0.13530  0.26390  1.0000 -0.1999766375
C   C11       1.0  0.95970  0.01060  0.38910  1.0000 0.0873535032
C   C12       1.0  0.96370  0.13040  0.39320  1.0000 -0.1895025374
C   C13       1.0  0.89320  0.19690  0.32940  1.0000 0.1085650182
C   C14       1.0  0.89120  0.32680  0.33210  1.0000 0.1085650182
C   C15       1.0  0.79370  0.38950  0.28140  1.0000 -0.1999766375
C   C16       1.0  0.79550  0.51250  0.28460  1.0000 0.1085650182
C   C17       1.0  0.98120  0.51080  0.38460  1.0000 0.0831164102
C   C18       1.0  0.98630  0.39040  0.38500  1.0000 -0.1895025374
C   C19       1.0  0.31480  0.79000  0.41440  1.0000 -0.0187191089
C   C20       1.0  0.43090  0.77950  0.38460  1.0000 -0.138362447
C   C21       1.0  0.56080  0.79710  0.43410  1.0000 0.0086507665
C   C22       1.0  0.57280  0.83030  0.51230  1.0000 -0.1821316315
C   C23       1.0  0.45560  0.84460  0.54020  1.0000 0.1085650182
C   C24       1.0  0.32700  0.82350  0.49280  1.0000 -0.1739294102
C   C25       1.0  0.68810  0.78010  0.40320  1.0000 0.5343369598
C   C26       1.0  0.17420  0.76760  0.36280  1.0000 0.5645065809
C   C27       1.0  0.17560  0.01510  0.23640  1.0000 0.0831164102
C   C28       1.0  0.17640  0.13530  0.23610  1.0000 -0.1999766375
C   C29       1.0  0.04030  0.01060  0.11090  1.0000 0.0873535032
C   C30       1.0  0.03630  0.13040  0.10680  1.0000 -0.1895025374
C   C31       1.0  0.10680  0.19690  0.17060  1.0000 0.1085650182
C   C32       1.0  0.10880  0.32680  0.16790  1.0000 0.1085650182
C   C33       1.0  0.20630  0.38950  0.21860  1.0000 -0.1999766375
C   C34       1.0  0.20450  0.51250  0.21540  1.0000 0.1085650182
C   C35       1.0  0.01880  0.51080  0.11540  1.0000 0.0831164102
C   C36       1.0  0.01370  0.39040  0.11500  1.0000 -0.1895025374
C   C37       1.0  0.31480  0.21000  0.91440  1.0000 -0.0187191089
C   C38       1.0  0.43090  0.22050  0.88460  1.0000 -0.138362447
C   C39       1.0  0.56080  0.20290  0.93410  1.0000 0.0086507665
C   C40       1.0  0.57280  0.16970  0.01230  1.0000 -0.1821316315
C   C41       1.0  0.45560  0.15540  0.04020  1.0000 0.1085650182
C   C42       1.0  0.32700  0.17650  0.99280  1.0000 -0.1739294102
C   C43       1.0  0.68810  0.21990  0.90320  1.0000 0.5343369598
C   C44       1.0  0.17420  0.23240  0.86280  1.0000 0.5645065809
C   C45       1.0  0.17560  0.98490  0.73640  1.0000 0.0831164102
C   C46       1.0  0.17640  0.86470  0.73610  1.0000 -0.1999766375
C   C47       1.0  0.04030  0.98940  0.61090  1.0000 0.0873535032
C   C48       1.0  0.03630  0.86960  0.60680  1.0000 -0.1895025374
C   C49       1.0  0.10680  0.80310  0.67060  1.0000 0.1085650182
C   C50       1.0  0.10880  0.67320  0.66790  1.0000 0.1085650182
C   C51       1.0  0.20630  0.61050  0.71860  1.0000 -0.1999766375
C   C52       1.0  0.20450  0.48750  0.71540  1.0000 0.1085650182
C   C53       1.0  0.01880  0.48920  0.61540  1.0000 0.0831164102
C   C54       1.0  0.01370  0.60960  0.61500  1.0000 -0.1895025374
C   C55       1.0  0.68520  0.21000  0.58560  1.0000 -0.0187191089
C   C56       1.0  0.56910  0.22050  0.61540  1.0000 -0.138362447
C   C57       1.0  0.43920  0.20290  0.56590  1.0000 0.0086507665
C   C58       1.0  0.42720  0.16970  0.48770  1.0000 -0.1821316315
C   C59       1.0  0.54440  0.15540  0.45980  1.0000 0.1085650182
C   C60       1.0  0.67300  0.17650  0.50720  1.0000 -0.1739294102
C   C61       1.0  0.31190  0.21990  0.59680  1.0000 0.5343369598
C   C62       1.0  0.82580  0.23240  0.63720  1.0000 0.5645065809
C   C63       1.0  0.82440  0.98490  0.76360  1.0000 0.0831164102
C   C64       1.0  0.82360  0.86470  0.76390  1.0000 -0.1999766375
C   C65       1.0  0.95970  0.98940  0.88910  1.0000 0.0873535032
C   C66       1.0  0.96370  0.86960  0.89320  1.0000 -0.1895025374
C   C67       1.0  0.89320  0.80310  0.82940  1.0000 0.1085650182
C   C68       1.0  0.89120  0.67320  0.83210  1.0000 0.1085650182
C   C69       1.0  0.79370  0.61050  0.78140  1.0000 -0.1999766375
C   C70       1.0  0.79550  0.48750  0.78460  1.0000 0.1085650182
C   C71       1.0  0.98120  0.48920  0.88460  1.0000 0.0831164102
C   C72       1.0  0.98630  0.60960  0.88500  1.0000 -0.1895025374
Br  Br1       1.0  0.52998  0.89471  0.85406  1.0000 -0.0735750368
Br  Br2       1.0  0.47002  0.89471  0.64594  1.0000 -0.0735750368
Br  Br3       1.0  0.47002  0.10529  0.14594  1.0000 -0.0735750368
Br  Br4       1.0  0.52998  0.10529  0.35406  1.0000 -0.0735750368
N   N1        1.0  0.89140  0.95120  0.32530  1.0000 -0.2205881273
N   N2        1.0  0.88790  0.57160  0.33450  1.0000 -0.1999766375
N   N3        1.0  0.10860  0.95120  0.17470  1.0000 -0.2205881273
N   N4        1.0  0.11210  0.57160  0.16550  1.0000 -0.1999766375
N   N5        1.0  0.10860  0.04880  0.67470  1.0000 -0.2205881273
N   N6        1.0  0.11210  0.42840  0.66550  1.0000 -0.1999766375
N   N7        1.0  0.89140  0.04880  0.82530  1.0000 -0.2205881273
N   N8        1.0  0.88790  0.42840  0.83450  1.0000 -0.1999766375
O   O1        1.0  0.83730  0.75160  0.20870  1.0000 -0.5575962161
O   O2        1.0  0.92330  0.76660  0.10300  1.0000 -0.5490356182
O   O3        1.0  0.32570  0.76360  0.16950  1.0000 -0.5268549418
O   O4        1.0  0.19800  0.78410  0.04980  1.0000 -0.5575962161
O   O5        1.0  0.16270  0.75160  0.29130  1.0000 -0.5575962161
O   O6        1.0  0.07670  0.76660  0.39700  1.0000 -0.5490356182
O   O7        1.0  0.67430  0.76360  0.33050  1.0000 -0.5268549418
O   O8        1.0  0.80200  0.78410  0.45020  1.0000 -0.5575962161
O   O9        1.0  0.16270  0.24840  0.79130  1.0000 -0.5575962161
O   O10       1.0  0.07670  0.23340  0.89700  1.0000 -0.5490356182
O   O11       1.0  0.67430  0.23640  0.83050  1.0000 -0.5268549418
O   O12       1.0  0.80200  0.21590  0.95020  1.0000 -0.5575962161
O   O13       1.0  0.83730  0.24840  0.70870  1.0000 -0.5575962161
O   O14       1.0  0.92330  0.23340  0.60300  1.0000 -0.5490356182
O   O15       1.0  0.32570  0.23640  0.66950  1.0000 -0.5268549418
O   O16       1.0  0.19800  0.21590  0.54980  1.0000 -0.5575962161
