# DDEC6 charges by PACMAN v1.1 (https://github.com/mtap-research/PACMAN-charge/)
data_2019[Cu][sql]2[ASR]12
_chemical_formula_sum              "Cu4 H128 C200 O24"
_cell_length_a       16.4904
_cell_length_b       19.717
_cell_length_c       21.0351
_cell_angle_alpha    111.002
_cell_angle_beta     106.005
_cell_angle_gamma    101.974

_symmetry_space_group_name_H-M    "P 1"
_symmetry_Int_Tables_number       1

loop_
  _symmetry_equiv_pos_as_xyz
  'x, y, z'

loop_
  _atom_site_type_symbol
  _atom_site_label
  _atom_site_symmetry_multiplicity
  _atom_site_fract_x
  _atom_site_fract_y
  _atom_site_fract_z
  _atom_site_occupancy
  _atom_site_charge
Cu  Cu1       1.0  0.14039  0.21367  0.20351  1.0000 0.7784286261
Cu  Cu2       1.0  0.27018  0.18606  0.28341  1.0000 0.8391138733
Cu  Cu3       1.0  0.85961  0.78633  0.79649  1.0000 0.7784286261
Cu  Cu4       1.0  0.72982  0.81394  0.71659  1.0000 0.8391138733
H   H1        1.0  0.30200  0.01150  0.10840  1.0000 0.1106284091
H   H2        1.0  0.29690  0.91420  0.00620  1.0000 0.1106284091
H   H3        1.0  0.07480  0.92930  0.88410  1.0000 0.1201110602
H   H4        1.0  0.08130  0.02960  0.98730  1.0000 0.1269215942
H   H5        1.0  0.23350  0.86210  0.85590  1.0000 0.1106284091
H   H6        1.0  0.12800  0.83010  0.82530  1.0000 0.1106284091
H   H7        1.0  0.02200  0.70670  0.77500  1.0000 0.1201110602
H   H8        1.0  0.98540  0.76660  0.68420  1.0000 0.1201110602
H   H9        1.0  0.97420  0.76490  0.57140  1.0000 0.1106284091
H   H10       1.0  0.00210  0.66940  0.48700  1.0000 0.1106284091
H   H11       1.0  0.04080  0.57390  0.51460  1.0000 0.1106284091
H   H12       1.0  0.07680  0.51700  0.60910  1.0000 0.1023796106
H   H13       1.0  0.94940  0.41120  0.60670  1.0000 0.1106284091
H   H14       1.0  0.83690  0.38070  0.64930  1.0000 0.1106284091
H   H15       1.0  0.81580  0.47710  0.73810  1.0000 0.1201110602
H   H16       1.0  0.89900  0.60590  0.77990  1.0000 0.1269215942
H   H17       1.0  0.21620  0.59680  0.60370  1.0000 0.1023796106
H   H18       1.0  0.31990  0.61270  0.63590  1.0000 0.1106284091
H   H19       1.0  0.26190  0.43180  0.59950  1.0000 0.1201110602
H   H20       1.0  0.24980  0.32800  0.49630  1.0000 0.1269215942
H   H21       1.0  0.21210  0.44650  0.37840  1.0000 0.1106284091
H   H22       1.0  0.23250  0.55300  0.48250  1.0000 0.1201110602
H   H23       1.0  0.09720  0.99060  0.29480  1.0000 0.1269215942
H   H24       1.0  0.99150  0.91120  0.31340  1.0000 0.1201110602
H   H25       1.0  0.82270  0.02280  0.27240  1.0000 0.1201110602
H   H26       1.0  0.92550  0.09970  0.25000  1.0000 0.1106284091
H   H27       1.0  0.80440  0.93260  0.33870  1.0000 0.1106284091
H   H28       1.0  0.84840  0.86850  0.31700  1.0000 0.1023796106
H   H29       1.0  0.63820  0.92340  0.27620  1.0000 0.1106284091
H   H30       1.0  0.67390  0.99380  0.41650  1.0000 0.1201110602
H   H31       1.0  0.64340  0.99500  0.51830  1.0000 0.1201110602
H   H32       1.0  0.53710  0.88980  0.50640  1.0000 0.1106284091
H   H33       1.0  0.46180  0.77990  0.39290  1.0000 0.1201110602
H   H34       1.0  0.43390  0.71260  0.25420  1.0000 0.1106284091
H   H35       1.0  0.30540  0.72860  0.16270  1.0000 0.1269215942
H   H36       1.0  0.26180  0.80120  0.10120  1.0000 0.1201110602
H   H37       1.0  0.36360  0.91000  0.11780  1.0000 0.1023796106
H   H38       1.0  0.51440  0.94680  0.19020  1.0000 0.1201110602
H   H39       1.0  0.62190  0.54430  0.16270  1.0000 0.1106284091
H   H40       1.0  0.59670  0.47020  0.02520  1.0000 0.1201110602
H   H41       1.0  0.63370  0.46820  0.92630  1.0000 0.1106284091
H   H42       1.0  0.73750  0.57530  0.93770  1.0000 0.1106284091
H   H43       1.0  0.80580  0.68640  0.04980  1.0000 0.1201110602
H   H44       1.0  0.82460  0.75670  0.18550  1.0000 0.1023796106
H   H45       1.0  0.95010  0.74950  0.28760  1.0000 0.1201110602
H   H46       1.0  0.99050  0.68980  0.36310  1.0000 0.1106284091
H   H47       1.0  0.88690  0.58440  0.35230  1.0000 0.1106284091
H   H48       1.0  0.74130  0.53410  0.26540  1.0000 0.1201110602
H   H49       1.0  0.59930  0.60170  0.29110  1.0000 0.1023796106
H   H50       1.0  0.53110  0.63950  0.31540  1.0000 0.1106284091
H   H51       1.0  0.36360  0.51290  0.19460  1.0000 0.1201110602
H   H52       1.0  0.27800  0.39610  0.17940  1.0000 0.1201110602
H   H53       1.0  0.49090  0.38870  0.32200  1.0000 0.1201110602
H   H54       1.0  0.57720  0.50500  0.33460  1.0000 0.1106284091
H   H55       1.0  0.35800  0.81560  0.95090  1.0000 0.1023796106
H   H56       1.0  0.43930  0.77490  0.04810  1.0000 0.1106284091
H   H57       1.0  0.52670  0.70400  0.07840  1.0000 0.1023796106
H   H58       1.0  0.56180  0.61930  0.98930  1.0000 0.1023796106
H   H59       1.0  0.50560  0.60180  0.86840  1.0000 0.1106284091
H   H60       1.0  0.41780  0.64250  0.77400  1.0000 0.1023796106
H   H61       1.0  0.44670  0.92920  0.93470  1.0000 0.1106284091
H   H62       1.0  0.52680  0.97040  0.87330  1.0000 0.1023796106
H   H63       1.0  0.55810  0.88460  0.78440  1.0000 0.1201110602
H   H64       1.0  0.50820  0.75300  0.75380  1.0000 0.1201110602
H   H65       1.0  0.69800  0.98850  0.89160  1.0000 0.1106284091
H   H66       1.0  0.70310  0.08580  0.99380  1.0000 0.1106284091
H   H67       1.0  0.92520  0.07070  0.11590  1.0000 0.1201110602
H   H68       1.0  0.91870  0.97040  0.01270  1.0000 0.1269215942
H   H69       1.0  0.76650  0.13790  0.14410  1.0000 0.1106284091
H   H70       1.0  0.87200  0.16990  0.17470  1.0000 0.1106284091
H   H71       1.0  0.97800  0.29330  0.22500  1.0000 0.1201110602
H   H72       1.0  0.01460  0.23340  0.31580  1.0000 0.1201110602
H   H73       1.0  0.02580  0.23510  0.42860  1.0000 0.1106284091
H   H74       1.0  0.99790  0.33060  0.51300  1.0000 0.1106284091
H   H75       1.0  0.95920  0.42610  0.48540  1.0000 0.1106284091
H   H76       1.0  0.92320  0.48300  0.39090  1.0000 0.1023796106
H   H77       1.0  0.05060  0.58880  0.39330  1.0000 0.1106284091
H   H78       1.0  0.16310  0.61930  0.35070  1.0000 0.1106284091
H   H79       1.0  0.18420  0.52290  0.26190  1.0000 0.1201110602
H   H80       1.0  0.10100  0.39410  0.22010  1.0000 0.1269215942
H   H81       1.0  0.78380  0.40320  0.39630  1.0000 0.1023796106
H   H82       1.0  0.68010  0.38730  0.36410  1.0000 0.1106284091
H   H83       1.0  0.73810  0.56820  0.40050  1.0000 0.1201110602
H   H84       1.0  0.75020  0.67200  0.50370  1.0000 0.1269215942
H   H85       1.0  0.78790  0.55350  0.62160  1.0000 0.1106284091
H   H86       1.0  0.76750  0.44700  0.51750  1.0000 0.1201110602
H   H87       1.0  0.90280  0.00940  0.70520  1.0000 0.1269215942
H   H88       1.0  0.00850  0.08880  0.68660  1.0000 0.1201110602
H   H89       1.0  0.17730  0.97720  0.72760  1.0000 0.1201110602
H   H90       1.0  0.07450  0.90030  0.75000  1.0000 0.1106284091
H   H91       1.0  0.19560  0.06740  0.66130  1.0000 0.1106284091
H   H92       1.0  0.15160  0.13150  0.68300  1.0000 0.1023796106
H   H93       1.0  0.36180  0.07660  0.72380  1.0000 0.1106284091
H   H94       1.0  0.32610  0.00620  0.58350  1.0000 0.1201110602
H   H95       1.0  0.35660  0.00500  0.48170  1.0000 0.1106284091
H   H96       1.0  0.46290  0.11020  0.49360  1.0000 0.1106284091
H   H97       1.0  0.53820  0.22010  0.60710  1.0000 0.1201110602
H   H98       1.0  0.56610  0.28740  0.74580  1.0000 0.1106284091
H   H99       1.0  0.69460  0.27140  0.83730  1.0000 0.1269215942
H   H100      1.0  0.73820  0.19880  0.89880  1.0000 0.1201110602
H   H101      1.0  0.63640  0.09000  0.88220  1.0000 0.1023796106
H   H102      1.0  0.48560  0.05320  0.80980  1.0000 0.1201110602
H   H103      1.0  0.37810  0.45570  0.83730  1.0000 0.1106284091
H   H104      1.0  0.40330  0.52980  0.97480  1.0000 0.1201110602
H   H105      1.0  0.36630  0.53180  0.07370  1.0000 0.1106284091
H   H106      1.0  0.26250  0.42470  0.06230  1.0000 0.1106284091
H   H107      1.0  0.19420  0.31360  0.95020  1.0000 0.1201110602
H   H108      1.0  0.17540  0.24330  0.81450  1.0000 0.1023796106
H   H109      1.0  0.04990  0.25050  0.71240  1.0000 0.1201110602
H   H110      1.0  0.00950  0.31020  0.63690  1.0000 0.1106284091
H   H111      1.0  0.11310  0.41560  0.64770  1.0000 0.1106284091
H   H112      1.0  0.25870  0.46590  0.73460  1.0000 0.1201110602
H   H113      1.0  0.40070  0.39830  0.70890  1.0000 0.1023796106
H   H114      1.0  0.46890  0.36050  0.68460  1.0000 0.1106284091
H   H115      1.0  0.63640  0.48710  0.80540  1.0000 0.1201110602
H   H116      1.0  0.72200  0.60390  0.82060  1.0000 0.1201110602
H   H117      1.0  0.50910  0.61130  0.67800  1.0000 0.1201110602
H   H118      1.0  0.42280  0.49500  0.66540  1.0000 0.1106284091
H   H119      1.0  0.64200  0.18440  0.04910  1.0000 0.1023796106
H   H120      1.0  0.56070  0.22510  0.95190  1.0000 0.1106284091
H   H121      1.0  0.47330  0.29600  0.92160  1.0000 0.1023796106
H   H122      1.0  0.43820  0.38070  0.01070  1.0000 0.1023796106
H   H123      1.0  0.49440  0.39820  0.13160  1.0000 0.1106284091
H   H124      1.0  0.58220  0.35750  0.22600  1.0000 0.1023796106
H   H125      1.0  0.55330  0.07080  0.06530  1.0000 0.1106284091
H   H126      1.0  0.47320  0.02960  0.12670  1.0000 0.1023796106
H   H127      1.0  0.44190  0.11540  0.21560  1.0000 0.1201110602
H   H128      1.0  0.49180  0.24700  0.24620  1.0000 0.1201110602
C   C1        1.0  0.19503  0.09358  0.12777  1.0000 0.5687138558
C   C2        1.0  0.19038  0.02970  0.05987  1.0000 -0.0193351784
C   C3        1.0  0.25540  0.99477  0.06341  1.0000 -0.100816399
C   C4        1.0  0.25230  0.93640  0.00215  1.0000 -0.1410144572
C   C5        1.0  0.18391  0.90968  0.93406  1.0000 0.1023796106
C   C6        1.0  0.12052  0.94549  0.92938  1.0000 -0.1410144572
C   C7        1.0  0.12405  0.00555  0.99168  1.0000 -0.0891848212
C   C8        1.0  0.18230  0.84523  0.86757  1.0000 -0.0787074396
C   C9        1.0  0.20050  0.72316  0.83203  1.0000 0.1269215942
C   C10       1.0  0.28663  0.72036  0.84572  1.0000 -0.0433089694
C   C11       1.0  0.30449  0.66568  0.79271  1.0000 -0.0433089694
C   C12       1.0  0.23467  0.61000  0.72761  1.0000 0.1201110602
C   C13       1.0  0.14785  0.61066  0.71525  1.0000 -0.0492578215
C   C14       1.0  0.13054  0.66812  0.76650  1.0000 -0.0433089694
C   C15       1.0  0.03363  0.66583  0.73925  1.0000 -0.0891848212
C   C16       1.0  0.01948  0.67179  0.66708  1.0000 0.0462002045
C   C17       1.0  0.99653  0.72786  0.65039  1.0000 -0.1410144572
C   C18       1.0  0.98991  0.72680  0.58275  1.0000 -0.100816399
C   C19       1.0  0.00652  0.66957  0.53215  1.0000 -0.1116851642
C   C20       1.0  0.02971  0.61258  0.54866  1.0000 -0.1608202598
C   C21       1.0  0.03635  0.61320  0.61560  1.0000 0.0396916828
C   C22       1.0  0.06498  0.55786  0.64471  1.0000 -0.100816399
C   C23       1.0  0.99051  0.52643  0.66748  1.0000 0.0396916828
C   C24       1.0  0.93943  0.45018  0.64135  1.0000 -0.1608202598
C   C25       1.0  0.87250  0.43195  0.66739  1.0000 -0.1116851642
C   C26       1.0  0.85906  0.48985  0.71985  1.0000 -0.1116851642
C   C27       1.0  0.90948  0.56695  0.74567  1.0000 -0.1410144572
C   C28       1.0  0.97507  0.58487  0.71982  1.0000 0.0462002045
C   C29       1.0  0.26117  0.57438  0.61783  1.0000 -0.0787074396
C   C30       1.0  0.25018  0.50404  0.55206  1.0000 0.0883284033
C   C31       1.0  0.25376  0.43566  0.55550  1.0000 -0.1508384546
C   C32       1.0  0.24524  0.37306  0.49324  1.0000 -0.100816399
C   C33       1.0  0.23011  0.37665  0.42700  1.0000 -0.0193351784
C   C34       1.0  0.22390  0.44388  0.42320  1.0000 -0.0891848212
C   C35       1.0  0.23513  0.50746  0.48551  1.0000 -0.1608202598
C   C36       1.0  0.21823  0.30816  0.35934  1.0000 0.5687138558
C   C37       1.0  0.09065  0.10624  0.25843  1.0000 0.5687138558
C   C38       1.0  0.02273  0.05424  0.27075  1.0000 -0.0278535943
C   C39       1.0  0.04182  0.99703  0.28972  1.0000 -0.100816399
C   C40       1.0  0.97829  0.94959  0.30113  1.0000 -0.1608202598
C   C41       1.0  0.89613  0.95820  0.29463  1.0000 0.0793645912
C   C42       1.0  0.87750  0.01565  0.27625  1.0000 -0.1410144572
C   C43       1.0  0.93959  0.06229  0.26357  1.0000 -0.1116851642
C   C44       1.0  0.82501  0.90399  0.30199  1.0000 -0.0891848212
C   C45       1.0  0.69046  0.79816  0.22462  1.0000 0.1367200733
C   C46       1.0  0.61649  0.80453  0.24284  1.0000 -0.0589961501
C   C47       1.0  0.59450  0.87806  0.27162  1.0000 -0.0891848212
C   C48       1.0  0.58610  0.88724  0.34475  1.0000 0.0396916828
C   C49       1.0  0.63130  0.95124  0.41188  1.0000 -0.1608202598
C   C50       1.0  0.61300  0.95190  0.47275  1.0000 -0.1223460148
C   C51       1.0  0.54970  0.88870  0.46564  1.0000 -0.1116851642
C   C52       1.0  0.50390  0.82270  0.39741  1.0000 -0.1608202598
C   C53       1.0  0.52241  0.82244  0.33723  1.0000 0.0396916828
C   C54       1.0  0.47777  0.75787  0.25889  1.0000 -0.0891848212
C   C55       1.0  0.43698  0.79456  0.21226  1.0000 0.0396916828
C   C56       1.0  0.34740  0.77195  0.16822  1.0000 -0.1608202598
C   C57       1.0  0.32150  0.81620  0.13192  1.0000 -0.100816399
C   C58       1.0  0.38250  0.88070  0.14104  1.0000 -0.1223460148
C   C59       1.0  0.47270  0.90319  0.18477  1.0000 -0.1508384546
C   C60       1.0  0.49925  0.86005  0.21969  1.0000 0.0396916828
C   C61       1.0  0.55466  0.73940  0.23638  1.0000 -0.0492578215
C   C62       1.0  0.56698  0.66886  0.21257  1.0000 0.1269215942
C   C63       1.0  0.63930  0.66202  0.19271  1.0000 -0.0589961501
C   C64       1.0  0.70161  0.72732  0.19922  1.0000 -0.0589961501
C   C65       1.0  0.66528  0.59011  0.16773  1.0000 -0.0787074396
C   C66       1.0  0.67928  0.57933  0.09636  1.0000 0.0396916828
C   C67       1.0  0.63850  0.51337  0.03011  1.0000 -0.1508384546
C   C68       1.0  0.66080  0.51245  0.97111  1.0000 -0.1116851642
C   C69       1.0  0.72310  0.57666  0.97781  1.0000 -0.1116851642
C   C70       1.0  0.76400  0.64312  0.04478  1.0000 -0.1508384546
C   C71       1.0  0.74181  0.64400  0.10338  1.0000 0.0396916828
C   C72       1.0  0.78105  0.71100  0.18061  1.0000 -0.0891848212
C   C73       1.0  0.82080  0.67797  0.23247  1.0000 0.0396916828
C   C74       1.0  0.90824  0.70691  0.28343  1.0000 -0.1508384546
C   C75       1.0  0.93220  0.67092  0.32840  1.0000 -0.1223460148
C   C76       1.0  0.87010  0.60753  0.32166  1.0000 -0.1116851642
C   C77       1.0  0.78260  0.57737  0.26997  1.0000 -0.1410144572
C   C78       1.0  0.75830  0.61302  0.22547  1.0000 0.0396916828
C   C79       1.0  0.53676  0.59793  0.27657  1.0000 -0.0787074396
C   C80       1.0  0.47954  0.52072  0.26548  1.0000 0.0883284033
C   C81       1.0  0.38963  0.48763  0.21973  1.0000 -0.1410144572
C   C82       1.0  0.33821  0.41786  0.21087  1.0000 -0.1116851642
C   C83       1.0  0.37558  0.37980  0.24859  1.0000 -0.0193351784
C   C84       1.0  0.46527  0.41317  0.29564  1.0000 -0.100816399
C   C85       1.0  0.51690  0.48320  0.30346  1.0000 -0.1608202598
C   C86       1.0  0.31630  0.30464  0.23995  1.0000 0.5687138558
C   C87       1.0  0.37079  0.77835  0.91277  1.0000 -0.0787074396
C   C88       1.0  0.42246  0.73173  0.94088  1.0000 0.0396916828
C   C89       1.0  0.45321  0.74087  0.01241  1.0000 -0.1410144572
C   C90       1.0  0.50535  0.69823  0.03026  1.0000 -0.1116851642
C   C91       1.0  0.52600  0.64682  0.97664  1.0000 -0.100816399
C   C92       1.0  0.49316  0.63676  0.90449  1.0000 -0.1508384546
C   C93       1.0  0.44140  0.67964  0.88685  1.0000 0.0396916828
C   C94       1.0  0.40513  0.67983  0.81203  1.0000 -0.0787074396
C   C95       1.0  0.42731  0.81591  0.88019  1.0000 0.0396916828
C   C96       1.0  0.45827  0.89368  0.89823  1.0000 -0.1508384546
C   C97       1.0  0.50650  0.91810  0.86160  1.0000 -0.1223460148
C   C98       1.0  0.52520  0.86680  0.80830  1.0000 -0.0891848212
C   C99       1.0  0.49522  0.78794  0.78958  1.0000 -0.1410144572
C   C100      1.0  0.44572  0.76289  0.82536  1.0000 0.0396916828
C   C101      1.0  0.80497  0.90642  0.87223  1.0000 0.5687138558
C   C102      1.0  0.80962  0.97030  0.94013  1.0000 -0.0193351784
C   C103      1.0  0.74460  0.00523  0.93659  1.0000 -0.100816399
C   C104      1.0  0.74770  0.06360  0.99785  1.0000 -0.1410144572
C   C105      1.0  0.81609  0.09032  0.06594  1.0000 0.1023796106
C   C106      1.0  0.87948  0.05451  0.07062  1.0000 -0.1410144572
C   C107      1.0  0.87595  0.99445  0.00832  1.0000 -0.0891848212
C   C108      1.0  0.81770  0.15477  0.13243  1.0000 -0.0787074396
C   C109      1.0  0.79950  0.27684  0.16797  1.0000 0.1269215942
C   C110      1.0  0.71337  0.27964  0.15428  1.0000 -0.0433089694
C   C111      1.0  0.69551  0.33432  0.20729  1.0000 -0.0433089694
C   C112      1.0  0.76533  0.39000  0.27239  1.0000 0.1269215942
C   C113      1.0  0.85215  0.38934  0.28475  1.0000 -0.0492578215
C   C114      1.0  0.86946  0.33188  0.23350  1.0000 -0.0433089694
C   C115      1.0  0.96637  0.33417  0.26075  1.0000 -0.0891848212
C   C116      1.0  0.98052  0.32821  0.33292  1.0000 0.0462002045
C   C117      1.0  0.00347  0.27214  0.34961  1.0000 -0.1410144572
C   C118      1.0  0.01009  0.27320  0.41725  1.0000 -0.100816399
C   C119      1.0  0.99348  0.33043  0.46785  1.0000 -0.1116851642
C   C120      1.0  0.97029  0.38742  0.45134  1.0000 -0.1608202598
C   C121      1.0  0.96365  0.38680  0.38440  1.0000 0.0396916828
C   C122      1.0  0.93502  0.44214  0.35529  1.0000 -0.100816399
C   C123      1.0  0.00949  0.47357  0.33252  1.0000 0.0396916828
C   C124      1.0  0.06057  0.54982  0.35865  1.0000 -0.1608202598
C   C125      1.0  0.12750  0.56805  0.33261  1.0000 -0.1116851642
C   C126      1.0  0.14094  0.51015  0.28015  1.0000 -0.1116851642
C   C127      1.0  0.09052  0.43305  0.25433  1.0000 -0.1410144572
C   C128      1.0  0.02493  0.41513  0.28018  1.0000 0.0462002045
C   C129      1.0  0.73883  0.42562  0.38217  1.0000 -0.0787074396
C   C130      1.0  0.74982  0.49596  0.44794  1.0000 0.0883284033
C   C131      1.0  0.74624  0.56434  0.44450  1.0000 -0.1508384546
C   C132      1.0  0.75476  0.62694  0.50676  1.0000 -0.100816399
C   C133      1.0  0.76989  0.62335  0.57300  1.0000 -0.0193351784
C   C134      1.0  0.77610  0.55612  0.57680  1.0000 -0.0891848212
C   C135      1.0  0.76487  0.49254  0.51449  1.0000 -0.1608202598
C   C136      1.0  0.78177  0.69184  0.64066  1.0000 0.5687138558
C   C137      1.0  0.90935  0.89376  0.74157  1.0000 0.5687138558
C   C138      1.0  0.97727  0.94576  0.72925  1.0000 -0.0278535943
C   C139      1.0  0.95818  0.00297  0.71028  1.0000 -0.100816399
C   C140      1.0  0.02171  0.05041  0.69887  1.0000 -0.1608202598
C   C141      1.0  0.10387  0.04180  0.70537  1.0000 0.0793645912
C   C142      1.0  0.12250  0.98435  0.72375  1.0000 -0.1410144572
C   C143      1.0  0.06041  0.93771  0.73643  1.0000 -0.1116851642
C   C144      1.0  0.17499  0.09601  0.69801  1.0000 -0.0891848212
C   C145      1.0  0.30954  0.20184  0.77538  1.0000 0.1367200733
C   C146      1.0  0.38351  0.19547  0.75716  1.0000 -0.0589961501
C   C147      1.0  0.40550  0.12194  0.72838  1.0000 -0.0891848212
C   C148      1.0  0.41390  0.11276  0.65525  1.0000 0.0396916828
C   C149      1.0  0.36870  0.04876  0.58812  1.0000 -0.1608202598
C   C150      1.0  0.38700  0.04810  0.52725  1.0000 -0.1223460148
C   C151      1.0  0.45030  0.11130  0.53436  1.0000 -0.1116851642
C   C152      1.0  0.49610  0.17730  0.60259  1.0000 -0.1608202598
C   C153      1.0  0.47759  0.17756  0.66277  1.0000 0.0396916828
C   C154      1.0  0.52223  0.24213  0.74111  1.0000 -0.0891848212
C   C155      1.0  0.56302  0.20544  0.78774  1.0000 0.0396916828
C   C156      1.0  0.65260  0.22805  0.83178  1.0000 -0.1608202598
C   C157      1.0  0.67850  0.18380  0.86808  1.0000 -0.100816399
C   C158      1.0  0.61750  0.11930  0.85896  1.0000 -0.1223460148
C   C159      1.0  0.52730  0.09681  0.81523  1.0000 -0.1508384546
C   C160      1.0  0.50075  0.13995  0.78031  1.0000 0.0396916828
C   C161      1.0  0.44534  0.26060  0.76362  1.0000 -0.0492578215
C   C162      1.0  0.43302  0.33114  0.78743  1.0000 0.1269215942
C   C163      1.0  0.36070  0.33798  0.80729  1.0000 -0.0589961501
C   C164      1.0  0.29839  0.27268  0.80078  1.0000 -0.0589961501
C   C165      1.0  0.33472  0.40989  0.83227  1.0000 -0.0787074396
C   C166      1.0  0.32072  0.42067  0.90364  1.0000 0.0396916828
C   C167      1.0  0.36150  0.48663  0.96989  1.0000 -0.1508384546
C   C168      1.0  0.33920  0.48755  0.02889  1.0000 -0.1116851642
C   C169      1.0  0.27690  0.42334  0.02219  1.0000 -0.1116851642
C   C170      1.0  0.23600  0.35688  0.95522  1.0000 -0.1508384546
C   C171      1.0  0.25819  0.35600  0.89662  1.0000 0.0396916828
C   C172      1.0  0.21895  0.28900  0.81939  1.0000 -0.0891848212
C   C173      1.0  0.17920  0.32203  0.76753  1.0000 0.0396916828
C   C174      1.0  0.09176  0.29309  0.71657  1.0000 -0.1508384546
C   C175      1.0  0.06780  0.32908  0.67160  1.0000 -0.1223460148
C   C176      1.0  0.12990  0.39247  0.67834  1.0000 -0.1116851642
C   C177      1.0  0.21740  0.42263  0.73003  1.0000 -0.1410144572
C   C178      1.0  0.24170  0.38698  0.77453  1.0000 0.0396916828
C   C179      1.0  0.46324  0.40207  0.72343  1.0000 -0.0787074396
C   C180      1.0  0.52046  0.47928  0.73452  1.0000 0.0883284033
C   C181      1.0  0.61037  0.51237  0.78027  1.0000 -0.1410144572
C   C182      1.0  0.66179  0.58214  0.78913  1.0000 -0.1116851642
C   C183      1.0  0.62442  0.62020  0.75141  1.0000 -0.0193351784
C   C184      1.0  0.53473  0.58683  0.70436  1.0000 -0.100816399
C   C185      1.0  0.48310  0.51680  0.69654  1.0000 -0.1608202598
C   C186      1.0  0.68370  0.69536  0.76005  1.0000 0.5687138558
C   C187      1.0  0.62921  0.22165  0.08723  1.0000 -0.0787074396
C   C188      1.0  0.57754  0.26827  0.05912  1.0000 0.0396916828
C   C189      1.0  0.54679  0.25913  0.98759  1.0000 -0.1410144572
C   C190      1.0  0.49465  0.30177  0.96974  1.0000 -0.1116851642
C   C191      1.0  0.47400  0.35318  0.02336  1.0000 -0.100816399
C   C192      1.0  0.50684  0.36324  0.09551  1.0000 -0.1508384546
C   C193      1.0  0.55860  0.32036  0.11315  1.0000 0.0396916828
C   C194      1.0  0.59487  0.32017  0.18797  1.0000 -0.0787074396
C   C195      1.0  0.57269  0.18409  0.11981  1.0000 0.0396916828
C   C196      1.0  0.54173  0.10632  0.10177  1.0000 -0.1508384546
C   C197      1.0  0.49350  0.08190  0.13840  1.0000 -0.1223460148
C   C198      1.0  0.47480  0.13320  0.19170  1.0000 -0.0891848212
C   C199      1.0  0.50478  0.21206  0.21042  1.0000 -0.1410144572
C   C200      1.0  0.55428  0.23711  0.17464  1.0000 0.0396916828
O   O1        1.0  0.26172  0.11497  0.18642  1.0000 -0.5212091584
O   O2        1.0  0.13260  0.12109  0.12131  1.0000 -0.4931516229
O   O3        1.0  0.16983  0.10495  0.27711  1.0000 -0.5129676043
O   O4        1.0  0.06355  0.14835  0.23034  1.0000 -0.5367192208
O   O5        1.0  0.17115  0.30309  0.29815  1.0000 -0.5212091584
O   O6        1.0  0.23822  0.27717  0.19218  1.0000 -0.5011927961
O   O7        1.0  0.25636  0.26074  0.36782  1.0000 -0.5129676043
O   O8        1.0  0.34900  0.27650  0.28224  1.0000 -0.5212091584
O   O9        1.0  0.18532  0.78125  0.88422  1.0000 -0.1890785723
O   O10       1.0  0.25177  0.55414  0.67490  1.0000 -0.2515964686
O   O11       1.0  0.75216  0.86215  0.23052  1.0000 -0.1841278254
O   O12       1.0  0.50756  0.60448  0.20906  1.0000 -0.2385406449
O   O13       1.0  0.73828  0.88503  0.81358  1.0000 -0.5212091584
O   O14       1.0  0.86740  0.87891  0.87869  1.0000 -0.4931516229
O   O15       1.0  0.83017  0.89505  0.72289  1.0000 -0.5129676043
O   O16       1.0  0.93645  0.85165  0.76966  1.0000 -0.5367192208
O   O17       1.0  0.82885  0.69691  0.70185  1.0000 -0.5212091584
O   O18       1.0  0.76178  0.72283  0.80782  1.0000 -0.5011927961
O   O19       1.0  0.74364  0.73926  0.63218  1.0000 -0.5129676043
O   O20       1.0  0.65100  0.72350  0.71776  1.0000 -0.5212091584
O   O21       1.0  0.81468  0.21875  0.11578  1.0000 -0.1890785723
O   O22       1.0  0.74823  0.44586  0.32510  1.0000 -0.2515964686
O   O23       1.0  0.24784  0.13785  0.76948  1.0000 -0.1890785723
O   O24       1.0  0.49244  0.39552  0.79094  1.0000 -0.2385406449
