# DDEC6 charges by PACMAN v1.1 (https://github.com/mtap-research/PACMAN-charge/)
data_2019[Zr][nan]2[ASR]1
_chemical_formula_sum              "Zr6 H80 C136 O24"
_cell_length_a       16.9454
_cell_length_b       16.9454
_cell_length_c       17.545
_cell_angle_alpha    90
_cell_angle_beta     90
_cell_angle_gamma    98.8502

_symmetry_space_group_name_H-M    "P 1"
_symmetry_Int_Tables_number       1

loop_
  _symmetry_equiv_pos_as_xyz
  'x, y, z'

loop_
  _atom_site_type_symbol
  _atom_site_label
  _atom_site_symmetry_multiplicity
  _atom_site_fract_x
  _atom_site_fract_y
  _atom_site_fract_z
  _atom_site_occupancy
  _atom_site_charge
Zr  Zr1       1.0  0.56887  0.43113  0.60116  1.0000 2.4826038438
Zr  Zr2       1.0  0.43113  0.56887  0.60116  1.0000 2.4826038438
Zr  Zr3       1.0  0.56887  0.43113  0.39884  1.0000 2.4826038438
Zr  Zr4       1.0  0.43113  0.56887  0.39884  1.0000 2.4826038438
Zr  Zr5       1.0  0.38832  0.38832  0.50000  1.0000 2.3613826591
Zr  Zr6       1.0  0.61168  0.61168  0.50000  1.0000 2.3613826591
H   H1        1.0  0.43610  0.18710  0.06570  1.0000 0.1167455136
H   H2        1.0  0.54860  0.24200  0.13070  1.0000 0.1108128708
H   H3        1.0  0.86950  0.30330  0.07550  1.0000 0.1108128708
H   H4        1.0  0.99580  0.34120  0.12800  1.0000 0.1167455136
H   H5        1.0  0.89490  0.37090  0.32790  1.0000 0.1167455136
H   H6        1.0  0.76940  0.32900  0.27640  1.0000 0.1167455136
H   H7        1.0  0.08700  0.45920  0.19250  1.0000 0.1108128708
H   H8        1.0  0.20940  0.49100  0.24970  1.0000 0.1108128708
H   H9        1.0  0.14100  0.33960  0.41550  1.0000 0.1290418799
H   H10       1.0  0.01820  0.30960  0.36080  1.0000 0.1167455136
H   H11       1.0  0.56390  0.81290  0.06570  1.0000 0.1167455136
H   H12       1.0  0.45140  0.75800  0.13070  1.0000 0.1108128708
H   H13       1.0  0.13050  0.69670  0.07550  1.0000 0.1108128708
H   H14       1.0  0.00420  0.65880  0.12800  1.0000 0.1167455136
H   H15       1.0  0.10510  0.62910  0.32790  1.0000 0.1167455136
H   H16       1.0  0.23060  0.67100  0.27640  1.0000 0.1167455136
H   H17       1.0  0.91300  0.54080  0.19250  1.0000 0.1108128708
H   H18       1.0  0.79060  0.50900  0.24970  1.0000 0.1108128708
H   H19       1.0  0.85900  0.66040  0.41550  1.0000 0.1290418799
H   H20       1.0  0.98180  0.69040  0.36080  1.0000 0.1167455136
H   H21       1.0  0.81290  0.56390  0.93430  1.0000 0.1167455136
H   H22       1.0  0.75800  0.45140  0.86930  1.0000 0.1108128708
H   H23       1.0  0.69670  0.13050  0.92450  1.0000 0.1108128708
H   H24       1.0  0.65880  0.00420  0.87200  1.0000 0.1167455136
H   H25       1.0  0.62910  0.10510  0.67210  1.0000 0.1167455136
H   H26       1.0  0.67100  0.23060  0.72360  1.0000 0.1167455136
H   H27       1.0  0.54080  0.91300  0.80750  1.0000 0.1108128708
H   H28       1.0  0.50900  0.79060  0.75030  1.0000 0.1108128708
H   H29       1.0  0.66040  0.85900  0.58450  1.0000 0.1290418799
H   H30       1.0  0.69040  0.98180  0.63920  1.0000 0.1167455136
H   H31       1.0  0.18710  0.43610  0.93430  1.0000 0.1167455136
H   H32       1.0  0.24200  0.54860  0.86930  1.0000 0.1108128708
H   H33       1.0  0.30330  0.86950  0.92450  1.0000 0.1108128708
H   H34       1.0  0.34120  0.99580  0.87200  1.0000 0.1167455136
H   H35       1.0  0.37090  0.89490  0.67210  1.0000 0.1167455136
H   H36       1.0  0.32900  0.76940  0.72360  1.0000 0.1167455136
H   H37       1.0  0.45920  0.08700  0.80750  1.0000 0.1108128708
H   H38       1.0  0.49100  0.20940  0.75030  1.0000 0.1108128708
H   H39       1.0  0.33960  0.14100  0.58450  1.0000 0.1290418799
H   H40       1.0  0.30960  0.01820  0.63920  1.0000 0.1167455136
H   H41       1.0  0.56390  0.81290  0.93430  1.0000 0.1167455136
H   H42       1.0  0.45140  0.75800  0.86930  1.0000 0.1108128708
H   H43       1.0  0.13050  0.69670  0.92450  1.0000 0.1108128708
H   H44       1.0  0.00420  0.65880  0.87200  1.0000 0.1167455136
H   H45       1.0  0.10510  0.62910  0.67210  1.0000 0.1167455136
H   H46       1.0  0.23060  0.67100  0.72360  1.0000 0.1167455136
H   H47       1.0  0.91300  0.54080  0.80750  1.0000 0.1108128708
H   H48       1.0  0.79060  0.50900  0.75030  1.0000 0.1108128708
H   H49       1.0  0.85900  0.66040  0.58450  1.0000 0.1290418799
H   H50       1.0  0.98180  0.69040  0.63920  1.0000 0.1167455136
H   H51       1.0  0.43610  0.18710  0.93430  1.0000 0.1167455136
H   H52       1.0  0.54860  0.24200  0.86930  1.0000 0.1108128708
H   H53       1.0  0.86950  0.30330  0.92450  1.0000 0.1108128708
H   H54       1.0  0.99580  0.34120  0.87200  1.0000 0.1167455136
H   H55       1.0  0.89490  0.37090  0.67210  1.0000 0.1167455136
H   H56       1.0  0.76940  0.32900  0.72360  1.0000 0.1167455136
H   H57       1.0  0.08700  0.45920  0.80750  1.0000 0.1108128708
H   H58       1.0  0.20940  0.49100  0.75030  1.0000 0.1108128708
H   H59       1.0  0.14100  0.33960  0.58450  1.0000 0.1290418799
H   H60       1.0  0.01820  0.30960  0.63920  1.0000 0.1167455136
H   H61       1.0  0.18710  0.43610  0.06570  1.0000 0.1167455136
H   H62       1.0  0.24200  0.54860  0.13070  1.0000 0.1108128708
H   H63       1.0  0.30330  0.86950  0.07550  1.0000 0.1108128708
H   H64       1.0  0.34120  0.99580  0.12800  1.0000 0.1167455136
H   H65       1.0  0.37090  0.89490  0.32790  1.0000 0.1167455136
H   H66       1.0  0.32900  0.76940  0.27640  1.0000 0.1167455136
H   H67       1.0  0.45920  0.08700  0.19250  1.0000 0.1108128708
H   H68       1.0  0.49100  0.20940  0.24970  1.0000 0.1108128708
H   H69       1.0  0.33960  0.14100  0.41550  1.0000 0.1290418799
H   H70       1.0  0.30960  0.01820  0.36080  1.0000 0.1167455136
H   H71       1.0  0.81290  0.56390  0.06570  1.0000 0.1167455136
H   H72       1.0  0.75800  0.45140  0.13070  1.0000 0.1108128708
H   H73       1.0  0.69670  0.13050  0.07550  1.0000 0.1108128708
H   H74       1.0  0.65880  0.00420  0.12800  1.0000 0.1167455136
H   H75       1.0  0.62910  0.10510  0.32790  1.0000 0.1167455136
H   H76       1.0  0.67100  0.23060  0.27640  1.0000 0.1167455136
H   H77       1.0  0.54080  0.91300  0.19250  1.0000 0.1108128708
H   H78       1.0  0.50900  0.79060  0.24970  1.0000 0.1108128708
H   H79       1.0  0.66040  0.85900  0.41550  1.0000 0.1290418799
H   H80       1.0  0.69040  0.98180  0.36080  1.0000 0.1167455136
C   C1        1.0  0.48190  0.20830  0.03910  1.0000 -0.1134986351
C   C2        1.0  0.54960  0.24000  0.07780  1.0000 -0.1501513762
C   C3        1.0  0.61930  0.26870  0.03970  1.0000 0.0266195494
C   C4        1.0  0.80610  0.30710  0.17010  1.0000 0.0706730089
C   C5        1.0  0.87390  0.31450  0.12740  1.0000 -0.1585726525
C   C6        1.0  0.95070  0.33850  0.15870  1.0000 -0.1501513762
C   C7        1.0  0.95850  0.35750  0.23290  1.0000 0.0642696428
C   C8        1.0  0.89020  0.35540  0.27700  1.0000 -0.1501513762
C   C9        1.0  0.81440  0.33020  0.24600  1.0000 -0.1585726525
C   C10       1.0  0.03930  0.38010  0.26910  1.0000 0.0706730089
C   C11       1.0  0.09690  0.43430  0.23800  1.0000 -0.1729098358
C   C12       1.0  0.17090  0.45370  0.27290  1.0000 -0.0977282864
C   C13       1.0  0.18890  0.41990  0.33940  1.0000 -0.0483169318
C   C14       1.0  0.13050  0.36490  0.37040  1.0000 -0.0922995717
C   C15       1.0  0.05700  0.34620  0.33700  1.0000 -0.1585726525
C   C16       1.0  0.26760  0.43940  0.37700  1.0000 0.6298936936
C   C17       1.0  0.51810  0.79170  0.03910  1.0000 -0.1134986351
C   C18       1.0  0.45040  0.76000  0.07780  1.0000 -0.1501513762
C   C19       1.0  0.38070  0.73130  0.03970  1.0000 0.0266195494
C   C20       1.0  0.19390  0.69290  0.17010  1.0000 0.0706730089
C   C21       1.0  0.12610  0.68550  0.12740  1.0000 -0.1585726525
C   C22       1.0  0.04930  0.66150  0.15870  1.0000 -0.1501513762
C   C23       1.0  0.04150  0.64250  0.23290  1.0000 0.0642696428
C   C24       1.0  0.10980  0.64460  0.27700  1.0000 -0.1501513762
C   C25       1.0  0.18560  0.66980  0.24600  1.0000 -0.1585726525
C   C26       1.0  0.96070  0.61990  0.26910  1.0000 0.0706730089
C   C27       1.0  0.90310  0.56570  0.23800  1.0000 -0.1729098358
C   C28       1.0  0.82910  0.54630  0.27290  1.0000 -0.0977282864
C   C29       1.0  0.81110  0.58010  0.33940  1.0000 -0.0483169318
C   C30       1.0  0.86950  0.63510  0.37040  1.0000 -0.0922995717
C   C31       1.0  0.94300  0.65380  0.33700  1.0000 -0.1585726525
C   C32       1.0  0.73240  0.56060  0.37700  1.0000 0.6298936936
C   C33       1.0  0.79170  0.51810  0.96090  1.0000 -0.1134986351
C   C34       1.0  0.76000  0.45040  0.92220  1.0000 -0.1501513762
C   C35       1.0  0.73130  0.38070  0.96030  1.0000 0.0266195494
C   C36       1.0  0.69290  0.19390  0.82990  1.0000 0.0706730089
C   C37       1.0  0.68550  0.12610  0.87260  1.0000 -0.1585726525
C   C38       1.0  0.66150  0.04930  0.84130  1.0000 -0.1501513762
C   C39       1.0  0.64250  0.04150  0.76710  1.0000 0.0642696428
C   C40       1.0  0.64460  0.10980  0.72300  1.0000 -0.1501513762
C   C41       1.0  0.66980  0.18560  0.75400  1.0000 -0.1585726525
C   C42       1.0  0.61990  0.96070  0.73090  1.0000 0.0706730089
C   C43       1.0  0.56570  0.90310  0.76200  1.0000 -0.1729098358
C   C44       1.0  0.54630  0.82910  0.72710  1.0000 -0.0977282864
C   C45       1.0  0.58010  0.81110  0.66060  1.0000 -0.0483169318
C   C46       1.0  0.63510  0.86950  0.62960  1.0000 -0.0922995717
C   C47       1.0  0.65380  0.94300  0.66300  1.0000 -0.1585726525
C   C48       1.0  0.56060  0.73240  0.62300  1.0000 0.6298936936
C   C49       1.0  0.20830  0.48190  0.96090  1.0000 -0.1134986351
C   C50       1.0  0.24000  0.54960  0.92220  1.0000 -0.1501513762
C   C51       1.0  0.26870  0.61930  0.96030  1.0000 0.0266195494
C   C52       1.0  0.30710  0.80610  0.82990  1.0000 0.0706730089
C   C53       1.0  0.31450  0.87390  0.87260  1.0000 -0.1585726525
C   C54       1.0  0.33850  0.95070  0.84130  1.0000 -0.1501513762
C   C55       1.0  0.35750  0.95850  0.76710  1.0000 0.0642696428
C   C56       1.0  0.35540  0.89020  0.72300  1.0000 -0.1501513762
C   C57       1.0  0.33020  0.81440  0.75400  1.0000 -0.1585726525
C   C58       1.0  0.38010  0.03930  0.73090  1.0000 0.0706730089
C   C59       1.0  0.43430  0.09690  0.76200  1.0000 -0.1729098358
C   C60       1.0  0.45370  0.17090  0.72710  1.0000 -0.0977282864
C   C61       1.0  0.41990  0.18890  0.66060  1.0000 -0.0483169318
C   C62       1.0  0.36490  0.13050  0.62960  1.0000 -0.0922995717
C   C63       1.0  0.34620  0.05700  0.66300  1.0000 -0.1585726525
C   C64       1.0  0.43940  0.26760  0.62300  1.0000 0.6298936936
C   C65       1.0  0.51810  0.79170  0.96090  1.0000 -0.1134986351
C   C66       1.0  0.45040  0.76000  0.92220  1.0000 -0.1501513762
C   C67       1.0  0.38070  0.73130  0.96030  1.0000 0.0266195494
C   C68       1.0  0.19390  0.69290  0.82990  1.0000 0.0706730089
C   C69       1.0  0.12610  0.68550  0.87260  1.0000 -0.1585726525
C   C70       1.0  0.04930  0.66150  0.84130  1.0000 -0.1501513762
C   C71       1.0  0.04150  0.64250  0.76710  1.0000 0.0642696428
C   C72       1.0  0.10980  0.64460  0.72300  1.0000 -0.1501513762
C   C73       1.0  0.18560  0.66980  0.75400  1.0000 -0.1585726525
C   C74       1.0  0.96070  0.61990  0.73090  1.0000 0.0706730089
C   C75       1.0  0.90310  0.56570  0.76200  1.0000 -0.1729098358
C   C76       1.0  0.82910  0.54630  0.72710  1.0000 -0.0977282864
C   C77       1.0  0.81110  0.58010  0.66060  1.0000 -0.0483169318
C   C78       1.0  0.86950  0.63510  0.62960  1.0000 -0.0922995717
C   C79       1.0  0.94300  0.65380  0.66300  1.0000 -0.1585726525
C   C80       1.0  0.73240  0.56060  0.62300  1.0000 0.6298936936
C   C81       1.0  0.48190  0.20830  0.96090  1.0000 -0.1134986351
C   C82       1.0  0.54960  0.24000  0.92220  1.0000 -0.1501513762
C   C83       1.0  0.61930  0.26870  0.96030  1.0000 0.0266195494
C   C84       1.0  0.80610  0.30710  0.82990  1.0000 0.0706730089
C   C85       1.0  0.87390  0.31450  0.87260  1.0000 -0.1585726525
C   C86       1.0  0.95070  0.33850  0.84130  1.0000 -0.1501513762
C   C87       1.0  0.95850  0.35750  0.76710  1.0000 0.0642696428
C   C88       1.0  0.89020  0.35540  0.72300  1.0000 -0.1501513762
C   C89       1.0  0.81440  0.33020  0.75400  1.0000 -0.1585726525
C   C90       1.0  0.03930  0.38010  0.73090  1.0000 0.0706730089
C   C91       1.0  0.09690  0.43430  0.76200  1.0000 -0.1729098358
C   C92       1.0  0.17090  0.45370  0.72710  1.0000 -0.0977282864
C   C93       1.0  0.18890  0.41990  0.66060  1.0000 -0.0483169318
C   C94       1.0  0.13050  0.36490  0.62960  1.0000 -0.0922995717
C   C95       1.0  0.05700  0.34620  0.66300  1.0000 -0.1585726525
C   C96       1.0  0.26760  0.43940  0.62300  1.0000 0.6298936936
C   C97       1.0  0.20830  0.48190  0.03910  1.0000 -0.1134986351
C   C98       1.0  0.24000  0.54960  0.07780  1.0000 -0.1501513762
C   C99       1.0  0.26870  0.61930  0.03970  1.0000 0.0266195494
C   C100      1.0  0.30710  0.80610  0.17010  1.0000 0.0706730089
C   C101      1.0  0.31450  0.87390  0.12740  1.0000 -0.1585726525
C   C102      1.0  0.33850  0.95070  0.15870  1.0000 -0.1501513762
C   C103      1.0  0.35750  0.95850  0.23290  1.0000 0.0642696428
C   C104      1.0  0.35540  0.89020  0.27700  1.0000 -0.1501513762
C   C105      1.0  0.33020  0.81440  0.24600  1.0000 -0.1585726525
C   C106      1.0  0.38010  0.03930  0.26910  1.0000 0.0706730089
C   C107      1.0  0.43430  0.09690  0.23800  1.0000 -0.1729098358
C   C108      1.0  0.45370  0.17090  0.27290  1.0000 -0.0977282864
C   C109      1.0  0.41990  0.18890  0.33940  1.0000 -0.0483169318
C   C110      1.0  0.36490  0.13050  0.37040  1.0000 -0.0922995717
C   C111      1.0  0.34620  0.05700  0.33700  1.0000 -0.1585726525
C   C112      1.0  0.43940  0.26760  0.37700  1.0000 0.6298936936
C   C113      1.0  0.79170  0.51810  0.03910  1.0000 -0.1134986351
C   C114      1.0  0.76000  0.45040  0.07780  1.0000 -0.1501513762
C   C115      1.0  0.73130  0.38070  0.03970  1.0000 0.0266195494
C   C116      1.0  0.69290  0.19390  0.17010  1.0000 0.0706730089
C   C117      1.0  0.68550  0.12610  0.12740  1.0000 -0.1585726525
C   C118      1.0  0.66150  0.04930  0.15870  1.0000 -0.1501513762
C   C119      1.0  0.64250  0.04150  0.23290  1.0000 0.0642696428
C   C120      1.0  0.64460  0.10980  0.27700  1.0000 -0.1501513762
C   C121      1.0  0.66980  0.18560  0.24600  1.0000 -0.1585726525
C   C122      1.0  0.61990  0.96070  0.26910  1.0000 0.0706730089
C   C123      1.0  0.56570  0.90310  0.23800  1.0000 -0.1729098358
C   C124      1.0  0.54630  0.82910  0.27290  1.0000 -0.0977282864
C   C125      1.0  0.58010  0.81110  0.33940  1.0000 -0.0483169318
C   C126      1.0  0.63510  0.86950  0.37040  1.0000 -0.0922995717
C   C127      1.0  0.65380  0.94300  0.33700  1.0000 -0.1585726525
C   C128      1.0  0.56060  0.73240  0.37700  1.0000 0.6298936936
C   C129      1.0  0.69430  0.30570  0.07790  1.0000 -0.0214974401
C   C130      1.0  0.72640  0.27360  0.13700  1.0000 -0.0283832713
C   C131      1.0  0.30570  0.69430  0.07790  1.0000 -0.0214974401
C   C132      1.0  0.27360  0.72640  0.13700  1.0000 -0.0283832713
C   C133      1.0  0.69430  0.30570  0.92210  1.0000 -0.0214974401
C   C134      1.0  0.72640  0.27360  0.86300  1.0000 -0.0283832713
C   C135      1.0  0.30570  0.69430  0.92210  1.0000 -0.0214974401
C   C136      1.0  0.27360  0.72640  0.86300  1.0000 -0.0283832713
O   O1        1.0  0.30995  0.50449  0.35960  1.0000 -0.6071133953
O   O2        1.0  0.28547  0.39005  0.42481  1.0000 -0.5646895808
O   O3        1.0  0.69005  0.49551  0.35960  1.0000 -0.6071133953
O   O4        1.0  0.71453  0.60995  0.42481  1.0000 -0.5653779549
O   O5        1.0  0.49551  0.69005  0.64040  1.0000 -0.6071133953
O   O6        1.0  0.60995  0.71453  0.57519  1.0000 -0.5646895808
O   O7        1.0  0.50449  0.30995  0.64040  1.0000 -0.6071133953
O   O8        1.0  0.39005  0.28547  0.57519  1.0000 -0.5646895808
O   O9        1.0  0.69005  0.49551  0.64040  1.0000 -0.6071133953
O   O10       1.0  0.71453  0.60995  0.57519  1.0000 -0.5653779549
O   O11       1.0  0.30995  0.50449  0.64040  1.0000 -0.6071133953
O   O12       1.0  0.28547  0.39005  0.57519  1.0000 -0.5646895808
O   O13       1.0  0.50449  0.30995  0.35960  1.0000 -0.6071133953
O   O14       1.0  0.39005  0.28547  0.42481  1.0000 -0.5646895808
O   O15       1.0  0.49551  0.69005  0.35960  1.0000 -0.6071133953
O   O16       1.0  0.60995  0.71453  0.42481  1.0000 -0.5646895808
O   O17       1.0  0.51470  0.37610  0.50000  1.0000 -1.1835193378
O   O18       1.0  0.48530  0.62390  0.50000  1.0000 -1.1835193378
O   O19       1.0  0.62390  0.48530  0.50000  1.0000 -1.1835193378
O   O20       1.0  0.37610  0.51470  0.50000  1.0000 -1.1835193378
O   O21       1.0  0.44530  0.44530  0.60200  1.0000 -1.2203939599
O   O22       1.0  0.55470  0.55470  0.60200  1.0000 -1.2203939599
O   O23       1.0  0.55470  0.55470  0.39800  1.0000 -1.2203939599
O   O24       1.0  0.44530  0.44530  0.39800  1.0000 -1.2203939599
