# DDEC6 charges by PACMAN v1.1 (https://github.com/mtap-research/PACMAN-charge/)
data_2019[In][cdt]3[ASR]1
_chemical_formula_sum              "In4 H24 C48 N8 Cl4 O16"
_cell_length_a       9.2613
_cell_length_b       10.7817
_cell_length_c       18.1985
_cell_angle_alpha    90
_cell_angle_beta     90
_cell_angle_gamma    90

_symmetry_space_group_name_H-M    "P 1"
_symmetry_Int_Tables_number       1

loop_
  _symmetry_equiv_pos_as_xyz
  'x, y, z'

loop_
  _atom_site_type_symbol
  _atom_site_label
  _atom_site_symmetry_multiplicity
  _atom_site_fract_x
  _atom_site_fract_y
  _atom_site_fract_z
  _atom_site_occupancy
  _atom_site_charge
In  In1       1.0  0.52014  0.28959  0.83738  1.0000 1.2032111324
In  In2       1.0  0.47986  0.78959  0.16262  1.0000 1.2032111324
In  In3       1.0  0.97986  0.28959  0.33738  1.0000 1.2032111324
In  In4       1.0  0.02014  0.78959  0.66262  1.0000 1.2032111324
H   H1        1.0  0.48550  0.48850  0.96780  1.0000 0.1302520371
H   H2        1.0  0.86760  0.64440  0.01040  1.0000 0.1302520371
H   H3        1.0  0.97660  0.50320  0.93280  1.0000 0.1420603505
H   H4        1.0  0.06480  0.34660  0.87380  1.0000 0.1420603505
H   H5        1.0  0.14210  0.16690  0.81260  1.0000 0.1302520371
H   H6        1.0  0.72970  0.09710  0.75870  1.0000 0.1229808218
H   H7        1.0  0.51450  0.98850  0.03220  1.0000 0.1302520371
H   H8        1.0  0.13240  0.14440  0.98960  1.0000 0.1302520371
H   H9        1.0  0.02340  0.00320  0.06720  1.0000 0.1420603505
H   H10       1.0  0.93520  0.84660  0.12620  1.0000 0.1420603505
H   H11       1.0  0.85790  0.66690  0.18740  1.0000 0.1302520371
H   H12       1.0  0.27030  0.59710  0.24130  1.0000 0.1229808218
H   H13       1.0  0.01450  0.48850  0.46780  1.0000 0.1302520371
H   H14       1.0  0.63240  0.64440  0.51040  1.0000 0.1302520371
H   H15       1.0  0.52340  0.50320  0.43280  1.0000 0.1420603505
H   H16       1.0  0.43520  0.34660  0.37380  1.0000 0.1420603505
H   H17       1.0  0.35790  0.16690  0.31260  1.0000 0.1302520371
H   H18       1.0  0.77030  0.09710  0.25870  1.0000 0.1229808218
H   H19       1.0  0.98550  0.98850  0.53220  1.0000 0.1302520371
H   H20       1.0  0.36760  0.14440  0.48960  1.0000 0.1302520371
H   H21       1.0  0.47660  0.00320  0.56720  1.0000 0.1420603505
H   H22       1.0  0.56480  0.84660  0.62620  1.0000 0.1420603505
H   H23       1.0  0.64210  0.66690  0.68740  1.0000 0.1302520371
H   H24       1.0  0.22970  0.59710  0.74130  1.0000 0.1229808218
C   C1        1.0  0.58500  0.49150  0.96090  1.0000 0.0907920412
C   C2        1.0  0.66480  0.57870  0.99970  1.0000 -0.050437196
C   C3        1.0  0.59220  0.65930  0.05540  1.0000 0.5482455827
C   C4        1.0  0.81230  0.58410  0.98710  1.0000 -0.0290993141
C   C5        1.0  0.87740  0.50090  0.94060  1.0000 -0.1442589426
C   C6        1.0  0.79240  0.41340  0.90540  1.0000 0.1767196791
C   C7        1.0  0.85110  0.31360  0.85860  1.0000 0.1749493516
C   C8        1.0  0.99850  0.29200  0.85270  1.0000 -0.1597002969
C   C9        1.0  0.04460  0.18720  0.81420  1.0000 -0.0290993141
C   C10       1.0  0.94270  0.11230  0.77780  1.0000 -0.050437196
C   C11       1.0  0.98220  0.99810  0.73650  1.0000 0.5416146106
C   C12       1.0  0.79820  0.14460  0.78330  1.0000 0.0845942533
C   C13       1.0  0.41500  0.99150  0.03910  1.0000 0.0907920412
C   C14       1.0  0.33520  0.07870  0.00030  1.0000 -0.0550866091
C   C15       1.0  0.40780  0.15930  0.94460  1.0000 0.5482455827
C   C16       1.0  0.18770  0.08410  0.01290  1.0000 -0.0290993141
C   C17       1.0  0.12260  0.00090  0.05940  1.0000 -0.1442589426
C   C18       1.0  0.20760  0.91340  0.09460  1.0000 0.1767196791
C   C19       1.0  0.14890  0.81360  0.14140  1.0000 0.1767196791
C   C20       1.0  0.00150  0.79200  0.14730  1.0000 -0.1597002969
C   C21       1.0  0.95540  0.68720  0.18580  1.0000 -0.0290993141
C   C22       1.0  0.05730  0.61230  0.22220  1.0000 -0.050437196
C   C23       1.0  0.01780  0.49810  0.26350  1.0000 0.5416146106
C   C24       1.0  0.20180  0.64460  0.21670  1.0000 0.0845942533
C   C25       1.0  0.91500  0.49150  0.46090  1.0000 0.0907920412
C   C26       1.0  0.83520  0.57870  0.49970  1.0000 -0.050437196
C   C27       1.0  0.90780  0.65930  0.55540  1.0000 0.5482455827
C   C28       1.0  0.68770  0.58410  0.48710  1.0000 -0.0290993141
C   C29       1.0  0.62260  0.50090  0.44060  1.0000 -0.1442589426
C   C30       1.0  0.70760  0.41340  0.40540  1.0000 0.1767196791
C   C31       1.0  0.64890  0.31360  0.35860  1.0000 0.1749493516
C   C32       1.0  0.50150  0.29200  0.35270  1.0000 -0.1597002969
C   C33       1.0  0.45540  0.18720  0.31420  1.0000 -0.0290993141
C   C34       1.0  0.55730  0.11230  0.27780  1.0000 -0.050437196
C   C35       1.0  0.51780  0.99810  0.23650  1.0000 0.5416146106
C   C36       1.0  0.70180  0.14460  0.28330  1.0000 0.0845942533
C   C37       1.0  0.08500  0.99150  0.53910  1.0000 0.0907920412
C   C38       1.0  0.16480  0.07870  0.50030  1.0000 -0.0550866091
C   C39       1.0  0.09220  0.15930  0.44460  1.0000 0.5482455827
C   C40       1.0  0.31230  0.08410  0.51290  1.0000 -0.0290993141
C   C41       1.0  0.37740  0.00090  0.55940  1.0000 -0.1442589426
C   C42       1.0  0.29240  0.91340  0.59460  1.0000 0.1767196791
C   C43       1.0  0.35110  0.81360  0.64140  1.0000 0.1767196791
C   C44       1.0  0.49850  0.79200  0.64730  1.0000 -0.1597002969
C   C45       1.0  0.54460  0.68720  0.68580  1.0000 -0.0290993141
C   C46       1.0  0.44270  0.61230  0.72220  1.0000 -0.050437196
C   C47       1.0  0.48220  0.49810  0.76350  1.0000 0.5416146106
C   C48       1.0  0.29820  0.64460  0.71670  1.0000 0.0845942533
N   N1        1.0  0.64590  0.41190  0.91440  1.0000 -0.28121176
N   N2        1.0  0.75430  0.24270  0.82310  1.0000 -0.2637034618
N   N3        1.0  0.35410  0.91190  0.08560  1.0000 -0.28121176
N   N4        1.0  0.24570  0.74270  0.17690  1.0000 -0.2637034618
N   N5        1.0  0.85410  0.41190  0.41440  1.0000 -0.28121176
N   N6        1.0  0.74570  0.24270  0.32310  1.0000 -0.2637034618
N   N7        1.0  0.14590  0.91190  0.58560  1.0000 -0.28121176
N   N8        1.0  0.25430  0.74270  0.67690  1.0000 -0.2637034618
Cl  Cl1       1.0  0.43460  0.15350  0.74165  1.0000 -0.514367696
Cl  Cl2       1.0  0.56540  0.65350  0.25835  1.0000 -0.5201140973
Cl  Cl3       1.0  0.06540  0.15350  0.24165  1.0000 -0.5201140973
Cl  Cl4       1.0  0.93460  0.65350  0.75835  1.0000 -0.5201140973
O   O1        1.0  0.65920  0.74960  0.08210  1.0000 -0.5201140973
O   O2        1.0  0.46690  0.63210  0.07670  1.0000 -0.5324506723
O   O3        1.0  0.89120  0.95240  0.69320  1.0000 -0.5201140973
O   O4        1.0  0.10080  0.94700  0.74860  1.0000 -0.5201140973
O   O5        1.0  0.34080  0.24960  0.91790  1.0000 -0.5201140973
O   O6        1.0  0.53310  0.13210  0.92330  1.0000 -0.5324506723
O   O7        1.0  0.10880  0.45240  0.30680  1.0000 -0.5201140973
O   O8        1.0  0.89920  0.44700  0.25140  1.0000 -0.514367696
O   O9        1.0  0.84080  0.74960  0.58210  1.0000 -0.5201140973
O   O10       1.0  0.03310  0.63210  0.57670  1.0000 -0.5324506723
O   O11       1.0  0.60880  0.95240  0.19320  1.0000 -0.5201140973
O   O12       1.0  0.39920  0.94700  0.24860  1.0000 -0.5201140973
O   O13       1.0  0.15920  0.24960  0.41790  1.0000 -0.5201140973
O   O14       1.0  0.96690  0.13210  0.42330  1.0000 -0.5324506723
O   O15       1.0  0.39120  0.45240  0.80680  1.0000 -0.5201140973
O   O16       1.0  0.60080  0.44700  0.75140  1.0000 -0.514367696
