# DDEC6 charges by PACMAN v1.1 (https://github.com/mtap-research/PACMAN-charge/)
data_2019[Zn][tfw]3[ASR]1
_chemical_formula_sum              "Zn6 H4 C20 N40"
_cell_length_a       11.263
_cell_length_b       11.263
_cell_length_c       13.7046
_cell_angle_alpha    62.3919
_cell_angle_beta     117.608
_cell_angle_gamma    128.798

_symmetry_space_group_name_H-M    "P 1"
_symmetry_Int_Tables_number       1

loop_
  _symmetry_equiv_pos_as_xyz
  'x, y, z'

loop_
  _atom_site_type_symbol
  _atom_site_label
  _atom_site_symmetry_multiplicity
  _atom_site_fract_x
  _atom_site_fract_y
  _atom_site_fract_z
  _atom_site_occupancy
  _atom_site_charge
Zn  Zn1       1.0  0.17129  0.53973  0.43032  1.0000 0.5841121668
Zn  Zn2       1.0  0.53973  0.17129  0.06968  1.0000 0.5841121668
Zn  Zn3       1.0  0.82871  0.46027  0.56968  1.0000 0.5841121668
Zn  Zn4       1.0  0.46027  0.82871  0.93032  1.0000 0.5841121668
Zn  Zn5       1.0  0.09646  0.09646  0.25000  1.0000 0.6354221398
Zn  Zn6       1.0  0.90354  0.90354  0.75000  1.0000 0.6354221398
H   H1        1.0  0.45340  0.79800  0.26860  1.0000 0.1116931582
H   H2        1.0  0.79800  0.45340  0.23140  1.0000 0.1116931582
H   H3        1.0  0.54660  0.20200  0.73140  1.0000 0.1116931582
H   H4        1.0  0.20200  0.54660  0.76860  1.0000 0.1116931582
C   C1        1.0  0.40180  0.83960  0.26600  1.0000 0.1827294113
C   C2        1.0  0.24820  0.86340  0.29790  1.0000 0.0365766589
C   C3        1.0  0.32830  0.99810  0.22130  1.0000 0.0497152092
C   C4        1.0  0.13010  0.80970  0.34780  1.0000 0.2525191451
C   C5        1.0  0.31930  0.13690  0.15400  1.0000 0.2441239724
C   C6        1.0  0.83960  0.40180  0.23400  1.0000 0.1827294113
C   C7        1.0  0.86340  0.24820  0.20210  1.0000 0.0365766589
C   C8        1.0  0.99810  0.32830  0.27870  1.0000 0.0497152092
C   C9        1.0  0.80970  0.13010  0.15220  1.0000 0.2525191451
C   C10       1.0  0.13690  0.31930  0.34600  1.0000 0.2441239724
C   C11       1.0  0.59820  0.16040  0.73400  1.0000 0.1827294113
C   C12       1.0  0.75180  0.13660  0.70210  1.0000 0.0365766589
C   C13       1.0  0.67170  0.00190  0.77870  1.0000 0.0497152092
C   C14       1.0  0.86990  0.19030  0.65220  1.0000 0.2525191451
C   C15       1.0  0.68070  0.86310  0.84600  1.0000 0.2441239724
C   C16       1.0  0.16040  0.59820  0.76600  1.0000 0.1827294113
C   C17       1.0  0.13660  0.75180  0.79790  1.0000 0.0365766589
C   C18       1.0  0.00190  0.67170  0.72130  1.0000 0.0497152092
C   C19       1.0  0.19030  0.86990  0.84780  1.0000 0.2525191451
C   C20       1.0  0.86310  0.68070  0.65400  1.0000 0.2441239724
N   N1        1.0  0.29675  0.76225  0.32670  1.0000 -0.2983912161
N   N2        1.0  0.42560  0.98240  0.20110  1.0000 -0.3103526091
N   N3        1.0  0.23477  0.18243  0.15400  1.0000 -0.2497485062
N   N4        1.0  0.26047  0.31493  0.06750  1.0000 -0.0726448862
N   N5        1.0  0.35550  0.34550  0.01990  1.0000 -0.057974888
N   N6        1.0  0.39690  0.23650  0.07360  1.0000 -0.2497485062
N   N7        1.0  0.06588  0.66532  0.41500  1.0000 -0.2269046387
N   N8        1.0  0.95966  0.65214  0.44500  1.0000 -0.030177056
N   N9        1.0  0.95737  0.78203  0.39790  1.0000 -0.057974888
N   N10       1.0  0.06497  0.88403  0.33610  1.0000 -0.2269046387
N   N11       1.0  0.76225  0.29675  0.17330  1.0000 -0.2983912161
N   N12       1.0  0.98240  0.42560  0.29890  1.0000 -0.3103526091
N   N13       1.0  0.18243  0.23477  0.34600  1.0000 -0.2497485062
N   N14       1.0  0.31493  0.26047  0.43250  1.0000 -0.0726448862
N   N15       1.0  0.34550  0.35550  0.48010  1.0000 -0.057974888
N   N16       1.0  0.23650  0.39690  0.42640  1.0000 -0.2497485062
N   N17       1.0  0.66532  0.06588  0.08500  1.0000 -0.2269046387
N   N18       1.0  0.65214  0.95966  0.05500  1.0000 -0.030177056
N   N19       1.0  0.78203  0.95737  0.10210  1.0000 -0.057974888
N   N20       1.0  0.88403  0.06497  0.16390  1.0000 -0.2269046387
N   N21       1.0  0.70325  0.23775  0.67330  1.0000 -0.2983912161
N   N22       1.0  0.57440  0.01760  0.79890  1.0000 -0.3103526091
N   N23       1.0  0.76523  0.81757  0.84600  1.0000 -0.2497485062
N   N24       1.0  0.73953  0.68507  0.93250  1.0000 -0.0726448862
N   N25       1.0  0.64450  0.65450  0.98010  1.0000 -0.057974888
N   N26       1.0  0.60310  0.76350  0.92640  1.0000 -0.2497485062
N   N27       1.0  0.93412  0.33468  0.58500  1.0000 -0.2269046387
N   N28       1.0  0.04034  0.34786  0.55500  1.0000 -0.030177056
N   N29       1.0  0.04263  0.21797  0.60210  1.0000 -0.0546928054
N   N30       1.0  0.93503  0.11597  0.66390  1.0000 -0.2269046387
N   N31       1.0  0.23775  0.70325  0.82670  1.0000 -0.2983912161
N   N32       1.0  0.01760  0.57440  0.70110  1.0000 -0.3103526091
N   N33       1.0  0.81757  0.76523  0.65400  1.0000 -0.2497485062
N   N34       1.0  0.68507  0.73953  0.56750  1.0000 -0.0726448862
N   N35       1.0  0.65450  0.64450  0.51990  1.0000 -0.057974888
N   N36       1.0  0.76350  0.60310  0.57360  1.0000 -0.2497485062
N   N37       1.0  0.33468  0.93412  0.91500  1.0000 -0.2269046387
N   N38       1.0  0.34786  0.04034  0.94500  1.0000 -0.030177056
N   N39       1.0  0.21797  0.04263  0.89790  1.0000 -0.0546928054
N   N40       1.0  0.11597  0.93503  0.83610  1.0000 -0.2269046387
