# DDEC6 charges by PACMAN v1.1 (https://github.com/mtap-research/PACMAN-charge/)
data_2019[Cd][nan]3[ASR]12
_chemical_formula_sum              "Cd4 H84 C108 N24 O24"
_cell_length_a       17.8029
_cell_length_b       17.8029
_cell_length_c       27.9349
_cell_angle_alpha    73.6541
_cell_angle_beta     106.346
_cell_angle_gamma    128.146

_symmetry_space_group_name_H-M    "P 1"
_symmetry_Int_Tables_number       1

loop_
  _symmetry_equiv_pos_as_xyz
  'x, y, z'

loop_
  _atom_site_type_symbol
  _atom_site_label
  _atom_site_symmetry_multiplicity
  _atom_site_fract_x
  _atom_site_fract_y
  _atom_site_fract_z
  _atom_site_occupancy
  _atom_site_charge
Cd  Cd1       1.0  0.11816  0.37448  0.14307  1.0000 0.9124786645
Cd  Cd2       1.0  0.37448  0.11816  0.35693  1.0000 0.9124786645
Cd  Cd3       1.0  0.88184  0.62552  0.85693  1.0000 0.9124786645
Cd  Cd4       1.0  0.62552  0.88184  0.64307  1.0000 0.9124786645
H   H1        1.0  0.36208  0.95392  0.40857  1.0000 0.3063463061
H   H2        1.0  0.23446  0.06238  0.27463  1.0000 0.2978997543
H   H3        1.0  0.46417  0.93461  0.47539  1.0000 0.1467484473
H   H4        1.0  0.19631  0.15487  0.22206  1.0000 0.1467484473
H   H5        1.0  0.22055  0.79485  0.21236  1.0000 0.2978997543
H   H6        1.0  0.15238  0.93684  0.17193  1.0000 0.1291777769
H   H7        1.0  0.18100  0.65262  0.19723  1.0000 0.1397242813
H   H8        1.0  0.26378  0.72228  0.39076  1.0000 0.1291777769
H   H9        1.0  0.41219  0.67203  0.51918  1.0000 0.1397242813
H   H10       1.0  0.06026  0.09420  0.08107  1.0000 0.1291777769
H   H11       1.0  0.33474  0.55046  0.28112  1.0000 0.1397242813
H   H12       1.0  0.37032  0.77636  0.31820  1.0000 0.1291777769
H   H13       1.0  0.50657  0.71761  0.33882  1.0000 0.1397242813
H   H14       1.0  0.44239  0.69643  0.37768  1.0000 0.1291777769
H   H15       1.0  0.43008  0.60894  0.36228  1.0000 0.1217855668
H   H16       1.0  0.30106  0.54534  0.46895  1.0000 0.1291777769
H   H17       1.0  0.20602  0.54206  0.44642  1.0000 0.1397242813
H   H18       1.0  0.28059  0.57741  0.41000  1.0000 0.1217855668
H   H19       1.0  0.00150  0.90080  0.07612  1.0000 0.1291777769
H   H20       1.0  0.08118  0.99734  0.04505  1.0000 0.1291777769
H   H21       1.0  0.10721  0.92733  0.08223  1.0000 0.1217855668
H   H22       1.0  0.95392  0.36208  0.09143  1.0000 0.3063463061
H   H23       1.0  0.06238  0.23446  0.22537  1.0000 0.2978997543
H   H24       1.0  0.93461  0.46417  0.02461  1.0000 0.1467484473
H   H25       1.0  0.15487  0.19631  0.27794  1.0000 0.1467484473
H   H26       1.0  0.79485  0.22055  0.28764  1.0000 0.2978997543
H   H27       1.0  0.93684  0.15238  0.32807  1.0000 0.1291777769
H   H28       1.0  0.65262  0.18100  0.30277  1.0000 0.1397242813
H   H29       1.0  0.72228  0.26378  0.10924  1.0000 0.1291777769
H   H30       1.0  0.67203  0.41219  0.98082  1.0000 0.1397242813
H   H31       1.0  0.09420  0.06026  0.41893  1.0000 0.1291777769
H   H32       1.0  0.55046  0.33474  0.21888  1.0000 0.1397242813
H   H33       1.0  0.77636  0.37032  0.18180  1.0000 0.1291777769
H   H34       1.0  0.71761  0.50657  0.16118  1.0000 0.1397242813
H   H35       1.0  0.69643  0.44239  0.12232  1.0000 0.1291777769
H   H36       1.0  0.60894  0.43008  0.13772  1.0000 0.1217855668
H   H37       1.0  0.54534  0.30106  0.03105  1.0000 0.1291777769
H   H38       1.0  0.54206  0.20602  0.05358  1.0000 0.1397242813
H   H39       1.0  0.57741  0.28059  0.09000  1.0000 0.1217855668
H   H40       1.0  0.90080  0.00150  0.42388  1.0000 0.1291777769
H   H41       1.0  0.99734  0.08118  0.45495  1.0000 0.1291777769
H   H42       1.0  0.92733  0.10721  0.41777  1.0000 0.1217855668
H   H43       1.0  0.63792  0.04608  0.59143  1.0000 0.3063463061
H   H44       1.0  0.76554  0.93762  0.72537  1.0000 0.2978997543
H   H45       1.0  0.53583  0.06539  0.52461  1.0000 0.1467484473
H   H46       1.0  0.80369  0.84513  0.77794  1.0000 0.1467484473
H   H47       1.0  0.77945  0.20515  0.78764  1.0000 0.2978997543
H   H48       1.0  0.84762  0.06316  0.82807  1.0000 0.1291777769
H   H49       1.0  0.81900  0.34738  0.80277  1.0000 0.1397242813
H   H50       1.0  0.73622  0.27772  0.60924  1.0000 0.1291777769
H   H51       1.0  0.58781  0.32797  0.48082  1.0000 0.1397242813
H   H52       1.0  0.93974  0.90580  0.91893  1.0000 0.1291777769
H   H53       1.0  0.66526  0.44954  0.71888  1.0000 0.1397242813
H   H54       1.0  0.62968  0.22364  0.68180  1.0000 0.1291777769
H   H55       1.0  0.49343  0.28239  0.66118  1.0000 0.1397242813
H   H56       1.0  0.55761  0.30357  0.62232  1.0000 0.1291777769
H   H57       1.0  0.56992  0.39106  0.63772  1.0000 0.1291777769
H   H58       1.0  0.69894  0.45466  0.53105  1.0000 0.1291777769
H   H59       1.0  0.79398  0.45794  0.55358  1.0000 0.1397242813
H   H60       1.0  0.71941  0.42259  0.59000  1.0000 0.1217855668
H   H61       1.0  0.99850  0.09920  0.92388  1.0000 0.1291777769
H   H62       1.0  0.91882  0.00266  0.95495  1.0000 0.1291777769
H   H63       1.0  0.89279  0.07267  0.91777  1.0000 0.1217855668
H   H64       1.0  0.04608  0.63792  0.90857  1.0000 0.3063463061
H   H65       1.0  0.93762  0.76554  0.77463  1.0000 0.2978997543
H   H66       1.0  0.06539  0.53583  0.97539  1.0000 0.1467484473
H   H67       1.0  0.84513  0.80369  0.72206  1.0000 0.1467484473
H   H68       1.0  0.20515  0.77945  0.71236  1.0000 0.2978997543
H   H69       1.0  0.06316  0.84762  0.67193  1.0000 0.1291777769
H   H70       1.0  0.34738  0.81900  0.69723  1.0000 0.1397242813
H   H71       1.0  0.27772  0.73622  0.89076  1.0000 0.1291777769
H   H72       1.0  0.32797  0.58781  0.01918  1.0000 0.1397242813
H   H73       1.0  0.90580  0.93974  0.58107  1.0000 0.1291777769
H   H74       1.0  0.44954  0.66526  0.78112  1.0000 0.1397242813
H   H75       1.0  0.22364  0.62968  0.81820  1.0000 0.1291777769
H   H76       1.0  0.28239  0.49343  0.83882  1.0000 0.1397242813
H   H77       1.0  0.30357  0.55761  0.87768  1.0000 0.1291777769
H   H78       1.0  0.39106  0.56992  0.86228  1.0000 0.1291777769
H   H79       1.0  0.45466  0.69894  0.96895  1.0000 0.1291777769
H   H80       1.0  0.45794  0.79398  0.94642  1.0000 0.1397242813
H   H81       1.0  0.42259  0.71941  0.91000  1.0000 0.1217855668
H   H82       1.0  0.09920  0.99850  0.57612  1.0000 0.1291777769
H   H83       1.0  0.00266  0.91882  0.54505  1.0000 0.1291777769
H   H84       1.0  0.07267  0.89279  0.58223  1.0000 0.1217855668
C   C1        1.0  0.44950  0.80890  0.50419  1.0000 0.0102271787
C   C2        1.0  0.51922  0.84078  0.55155  1.0000 0.5573868095
C   C3        1.0  0.17905  0.04095  0.20480  1.0000 0.221589139
C   C4        1.0  0.11276  0.21464  0.14400  1.0000 0.5482911308
C   C5        1.0  0.43032  0.87008  0.46969  1.0000 -0.1784291936
C   C6        1.0  0.17042  0.11618  0.19635  1.0000 -0.1784291936
C   C7        1.0  0.12471  0.13529  0.15109  1.0000 0.0102271787
C   C8        1.0  0.36288  0.83912  0.42718  1.0000 0.221589139
C   C9        1.0  0.19933  0.51467  0.20080  1.0000 0.5482911308
C   C10       1.0  0.31032  0.90668  0.34508  1.0000 0.5434209197
C   C11       1.0  0.24854  0.96566  0.27497  1.0000 0.5482911308
C   C12       1.0  0.26008  0.84832  0.27240  1.0000 0.5228021233
C   C13       1.0  0.14593  0.98787  0.16650  1.0000 -0.2091087275
C   C14       1.0  0.22744  0.65556  0.22517  1.0000 -0.2091087275
C   C15       1.0  0.25069  0.59051  0.23450  1.0000 0.0228524241
C   C16       1.0  0.27203  0.72457  0.25650  1.0000 0.221589139
C   C17       1.0  0.31160  0.74440  0.41940  1.0000 -0.2328392775
C   C18       1.0  0.39928  0.71452  0.49580  1.0000 -0.160566038
C   C19       1.0  0.09127  0.08113  0.11250  1.0000 -0.1473215208
C   C20       1.0  0.31930  0.59510  0.27490  1.0000 -0.1784291936
C   C21       1.0  0.36588  0.66532  0.30660  1.0000 0.1881424724
C   C22       1.0  0.34015  0.72905  0.29670  1.0000 -0.2365887598
C   C23       1.0  0.32970  0.68130  0.45330  1.0000 0.1839600667
C   C24       1.0  0.10320  0.00900  0.12000  1.0000 0.1632804736
C   C25       1.0  0.44310  0.67270  0.35020  1.0000 -0.4328708394
C   C26       1.0  0.27430  0.57710  0.44380  1.0000 -0.4328708394
C   C27       1.0  0.07030  0.95370  0.07700  1.0000 -0.4239303778
C   C28       1.0  0.80890  0.44950  0.99581  1.0000 0.0102271787
C   C29       1.0  0.84078  0.51922  0.94845  1.0000 0.5573868095
C   C30       1.0  0.04095  0.17905  0.29520  1.0000 0.221589139
C   C31       1.0  0.21464  0.11276  0.35600  1.0000 0.5482911308
C   C32       1.0  0.87008  0.43032  0.03031  1.0000 -0.1784291936
C   C33       1.0  0.11618  0.17042  0.30365  1.0000 -0.1784291936
C   C34       1.0  0.13529  0.12471  0.34891  1.0000 0.0102271787
C   C35       1.0  0.83912  0.36288  0.07282  1.0000 0.221589139
C   C36       1.0  0.51467  0.19933  0.29920  1.0000 0.5482911308
C   C37       1.0  0.90668  0.31032  0.15492  1.0000 0.5434209197
C   C38       1.0  0.96566  0.24854  0.22503  1.0000 0.5482911308
C   C39       1.0  0.84832  0.26008  0.22760  1.0000 0.5228021233
C   C40       1.0  0.98787  0.14593  0.33350  1.0000 -0.2091087275
C   C41       1.0  0.65556  0.22744  0.27483  1.0000 -0.2091087275
C   C42       1.0  0.59051  0.25069  0.26550  1.0000 0.0228524241
C   C43       1.0  0.72457  0.27203  0.24350  1.0000 0.221589139
C   C44       1.0  0.74440  0.31160  0.08060  1.0000 -0.2328392775
C   C45       1.0  0.71452  0.39928  0.00420  1.0000 -0.160566038
C   C46       1.0  0.08113  0.09127  0.38750  1.0000 -0.1473215208
C   C47       1.0  0.59510  0.31930  0.22510  1.0000 -0.1784291936
C   C48       1.0  0.66532  0.36588  0.19340  1.0000 0.1881424724
C   C49       1.0  0.72905  0.34015  0.20330  1.0000 -0.2365887598
C   C50       1.0  0.68130  0.32970  0.04670  1.0000 0.1839600667
C   C51       1.0  0.00900  0.10320  0.38000  1.0000 0.1632804736
C   C52       1.0  0.67270  0.44310  0.14980  1.0000 -0.4328708394
C   C53       1.0  0.57710  0.27430  0.05620  1.0000 -0.4328708394
C   C54       1.0  0.95370  0.07030  0.42300  1.0000 -0.4239303778
C   C55       1.0  0.55050  0.19110  0.49581  1.0000 0.0102271787
C   C56       1.0  0.48078  0.15922  0.44845  1.0000 0.5573868095
C   C57       1.0  0.82095  0.95905  0.79520  1.0000 0.221589139
C   C58       1.0  0.88724  0.78536  0.85600  1.0000 0.5482911308
C   C59       1.0  0.56968  0.12992  0.53031  1.0000 -0.1784291936
C   C60       1.0  0.82958  0.88382  0.80365  1.0000 -0.1784291936
C   C61       1.0  0.87529  0.86471  0.84891  1.0000 0.0102271787
C   C62       1.0  0.63712  0.16088  0.57282  1.0000 0.221589139
C   C63       1.0  0.80067  0.48533  0.79920  1.0000 0.5482911308
C   C64       1.0  0.68968  0.09332  0.65492  1.0000 0.5434209197
C   C65       1.0  0.75146  0.03434  0.72503  1.0000 0.5482911308
C   C66       1.0  0.73992  0.15168  0.72760  1.0000 0.5228021233
C   C67       1.0  0.85407  0.01213  0.83350  1.0000 -0.2091087275
C   C68       1.0  0.77256  0.34444  0.77483  1.0000 -0.2091087275
C   C69       1.0  0.74931  0.40949  0.76550  1.0000 0.0228524241
C   C70       1.0  0.72797  0.27543  0.74350  1.0000 0.2139699697
C   C71       1.0  0.68840  0.25560  0.58060  1.0000 -0.2328392775
C   C72       1.0  0.60072  0.28548  0.50420  1.0000 -0.160566038
C   C73       1.0  0.90873  0.91887  0.88750  1.0000 -0.1473215208
C   C74       1.0  0.68070  0.40490  0.72510  1.0000 -0.1784291936
C   C75       1.0  0.63412  0.33468  0.69340  1.0000 0.1881424724
C   C76       1.0  0.65985  0.27095  0.70330  1.0000 -0.2365887598
C   C77       1.0  0.67030  0.31870  0.54670  1.0000 0.1839600667
C   C78       1.0  0.89680  0.99100  0.88000  1.0000 0.1632804736
C   C79       1.0  0.55690  0.32730  0.64980  1.0000 -0.4328708394
C   C80       1.0  0.72570  0.42290  0.55620  1.0000 -0.4328708394
C   C81       1.0  0.92970  0.04630  0.92300  1.0000 -0.4239303778
C   C82       1.0  0.19110  0.55050  0.00419  1.0000 0.0102271787
C   C83       1.0  0.15922  0.48078  0.05155  1.0000 0.5573868095
C   C84       1.0  0.95905  0.82095  0.70480  1.0000 0.221589139
C   C85       1.0  0.78536  0.88724  0.64400  1.0000 0.5482911308
C   C86       1.0  0.12992  0.56968  0.96969  1.0000 -0.1784291936
C   C87       1.0  0.88382  0.82958  0.69635  1.0000 -0.1784291936
C   C88       1.0  0.86471  0.87529  0.65109  1.0000 0.0102271787
C   C89       1.0  0.16088  0.63712  0.92718  1.0000 0.221589139
C   C90       1.0  0.48533  0.80067  0.70080  1.0000 0.5482911308
C   C91       1.0  0.09332  0.68968  0.84508  1.0000 0.5434209197
C   C92       1.0  0.03434  0.75146  0.77497  1.0000 0.5482911308
C   C93       1.0  0.15168  0.73992  0.77240  1.0000 0.5228021233
C   C94       1.0  0.01213  0.85407  0.66650  1.0000 -0.2091087275
C   C95       1.0  0.34444  0.77256  0.72517  1.0000 -0.2091087275
C   C96       1.0  0.40949  0.74931  0.73450  1.0000 0.0228524241
C   C97       1.0  0.27543  0.72797  0.75650  1.0000 0.2139699697
C   C98       1.0  0.25560  0.68840  0.91940  1.0000 -0.2328392775
C   C99       1.0  0.28548  0.60072  0.99580  1.0000 -0.160566038
C   C100      1.0  0.91887  0.90873  0.61250  1.0000 -0.1473215208
C   C101      1.0  0.40490  0.68070  0.77490  1.0000 -0.1784291936
C   C102      1.0  0.33468  0.63412  0.80660  1.0000 0.1881424724
C   C103      1.0  0.27095  0.65985  0.79670  1.0000 -0.2365887598
C   C104      1.0  0.31870  0.67030  0.95330  1.0000 0.1839600667
C   C105      1.0  0.99100  0.89680  0.62000  1.0000 0.1632804736
C   C106      1.0  0.32730  0.55690  0.85020  1.0000 -0.4328708394
C   C107      1.0  0.42290  0.72570  0.94380  1.0000 -0.4328708394
C   C108      1.0  0.04630  0.92970  0.57700  1.0000 -0.4328708394
N   N1        1.0  0.29843  0.84537  0.32084  1.0000 -0.4829356806
N   N2        1.0  0.34669  0.90651  0.39477  1.0000 -0.3286700309
N   N3        1.0  0.29150  0.97270  0.32413  1.0000 -0.5534393997
N   N4        1.0  0.22243  0.02577  0.25396  1.0000 -0.3149518878
N   N5        1.0  0.23162  0.90518  0.24768  1.0000 -0.5071009458
N   N6        1.0  0.24774  0.79066  0.24367  1.0000 -0.3217561037
N   N7        1.0  0.84537  0.29843  0.17916  1.0000 -0.4829356806
N   N8        1.0  0.90651  0.34669  0.10523  1.0000 -0.3286700309
N   N9        1.0  0.97270  0.29150  0.17587  1.0000 -0.5534393997
N   N10       1.0  0.02577  0.22243  0.24604  1.0000 -0.3149518878
N   N11       1.0  0.90518  0.23162  0.25232  1.0000 -0.5071009458
N   N12       1.0  0.79066  0.24774  0.25633  1.0000 -0.3217561037
N   N13       1.0  0.70157  0.15463  0.67916  1.0000 -0.4829356806
N   N14       1.0  0.65331  0.09349  0.60523  1.0000 -0.3286700309
N   N15       1.0  0.70850  0.02730  0.67587  1.0000 -0.5534393997
N   N16       1.0  0.77757  0.97423  0.74604  1.0000 -0.3217561037
N   N17       1.0  0.76838  0.09482  0.75232  1.0000 -0.5071009458
N   N18       1.0  0.75226  0.20934  0.75633  1.0000 -0.3217561037
N   N19       1.0  0.15463  0.70157  0.82084  1.0000 -0.4829356806
N   N20       1.0  0.09349  0.65331  0.89477  1.0000 -0.3286700309
N   N21       1.0  0.02730  0.70850  0.82413  1.0000 -0.5534393997
N   N22       1.0  0.97423  0.77757  0.75396  1.0000 -0.3149518878
N   N23       1.0  0.09482  0.76838  0.74768  1.0000 -0.5071009458
N   N24       1.0  0.20934  0.75226  0.74367  1.0000 -0.3217561037
O   O1        1.0  0.15039  0.26321  0.17993  1.0000 -0.5534393997
O   O2        1.0  0.57031  0.92929  0.55733  1.0000 -0.5656590671
O   O3        1.0  0.21963  0.45357  0.21180  1.0000 -0.5265786708
O   O4        1.0  0.52448  0.77912  0.58415  1.0000 -0.4907328994
O   O5        1.0  0.14087  0.51393  0.16353  1.0000 -0.5405547828
O   O6        1.0  0.06823  0.23077  0.10420  1.0000 -0.5071009458
O   O7        1.0  0.26321  0.15039  0.32007  1.0000 -0.5534393997
O   O8        1.0  0.92929  0.57031  0.94267  1.0000 -0.5656590671
O   O9        1.0  0.45357  0.21963  0.28820  1.0000 -0.5265786708
O   O10       1.0  0.77912  0.52448  0.91585  1.0000 -0.4907328994
O   O11       1.0  0.51393  0.14087  0.33647  1.0000 -0.5405547828
O   O12       1.0  0.23077  0.06823  0.39580  1.0000 -0.5071009458
O   O13       1.0  0.84961  0.73679  0.82007  1.0000 -0.5534393997
O   O14       1.0  0.42969  0.07071  0.44267  1.0000 -0.5656590671
O   O15       1.0  0.78037  0.54643  0.78820  1.0000 -0.5265786708
O   O16       1.0  0.47552  0.22088  0.41585  1.0000 -0.4907328994
O   O17       1.0  0.85913  0.48607  0.83647  1.0000 -0.5405547828
O   O18       1.0  0.93177  0.76923  0.89580  1.0000 -0.5071009458
O   O19       1.0  0.73679  0.84961  0.67993  1.0000 -0.5534393997
O   O20       1.0  0.07071  0.42969  0.05733  1.0000 -0.5656590671
O   O21       1.0  0.54643  0.78037  0.71180  1.0000 -0.5265786708
O   O22       1.0  0.22088  0.47552  0.08415  1.0000 -0.4907328994
O   O23       1.0  0.48607  0.85913  0.66353  1.0000 -0.5405547828
O   O24       1.0  0.76923  0.93177  0.60420  1.0000 -0.5071009458
