# DDEC6 charges by PACMAN v1.1 (https://github.com/mtap-research/PACMAN-charge/)
data_2020[Cu][sql]2[ASR]19
_chemical_formula_sum              "Cu8 H120 C208 N8 O48"
_cell_length_a       12.8142
_cell_length_b       21.1011
_cell_length_c       26.6108
_cell_angle_alpha    90
_cell_angle_beta     90
_cell_angle_gamma    90

_symmetry_space_group_name_H-M    "P 1"
_symmetry_Int_Tables_number       1

loop_
  _symmetry_equiv_pos_as_xyz
  'x, y, z'

loop_
  _atom_site_type_symbol
  _atom_site_label
  _atom_site_symmetry_multiplicity
  _atom_site_fract_x
  _atom_site_fract_y
  _atom_site_fract_z
  _atom_site_occupancy
  _atom_site_charge
Cu  Cu1       1.0  0.83388  0.60188  0.25000  1.0000 0.8482519111
Cu  Cu2       1.0  0.67788  0.68319  0.25000  1.0000 0.8051048835
Cu  Cu3       1.0  0.66612  0.10188  0.75000  1.0000 0.8482519111
Cu  Cu4       1.0  0.82212  0.18319  0.75000  1.0000 0.8051048835
Cu  Cu5       1.0  0.16612  0.39812  0.75000  1.0000 0.8482519111
Cu  Cu6       1.0  0.32212  0.31681  0.75000  1.0000 0.8051048835
Cu  Cu7       1.0  0.33388  0.89812  0.25000  1.0000 0.8482519111
Cu  Cu8       1.0  0.17788  0.81681  0.25000  1.0000 0.8051048835
H   H1        1.0  0.46552  0.19187  0.85796  1.0000 0.1204803969
H   H2        1.0  0.38150  0.25089  0.91843  1.0000 0.1204803969
H   H3        1.0  0.72048  0.29944  0.87513  1.0000 0.1204803969
H   H4        1.0  0.56403  0.37941  0.01091  1.0000 0.1127588372
H   H5        1.0  0.46943  0.58076  0.15440  1.0000 0.1294100705
H   H6        1.0  0.63733  0.35787  0.93593  1.0000 0.1127588372
H   H7        1.0  0.29914  0.33941  0.93789  1.0000 0.1127588372
H   H8        1.0  0.29476  0.46020  0.05315  1.0000 0.1127588372
H   H9        1.0  0.16904  0.41346  0.91192  1.0000 0.1294100705
H   H10       1.0  0.98927  0.42505  0.89767  1.0000 0.1355332752
H   H11       1.0  0.38239  0.52391  0.09516  1.0000 0.1127588372
H   H12       1.0  0.72232  0.48113  0.13059  1.0000 0.1294100705
H   H13       1.0  0.12528  0.41345  0.05998  1.0000 0.1204803969
H   H14       1.0  0.94473  0.41874  0.04749  1.0000 0.1294100705
H   H15       1.0  0.63306  0.41626  0.07550  1.0000 0.1127588372
H   H16       1.0  0.03448  0.69187  0.14204  1.0000 0.1204803969
H   H17       1.0  0.11850  0.75089  0.08157  1.0000 0.1204803969
H   H18       1.0  0.77952  0.79944  0.12487  1.0000 0.1204803969
H   H19       1.0  0.93597  0.87941  0.98909  1.0000 0.1127588372
H   H20       1.0  0.03057  0.08076  0.84560  1.0000 0.1294100705
H   H21       1.0  0.86267  0.85787  0.06407  1.0000 0.1127588372
H   H22       1.0  0.20086  0.83941  0.06211  1.0000 0.1127588372
H   H23       1.0  0.20524  0.96020  0.94685  1.0000 0.1127588372
H   H24       1.0  0.33096  0.91346  0.08808  1.0000 0.1294100705
H   H25       1.0  0.51073  0.92505  0.10233  1.0000 0.1355332752
H   H26       1.0  0.11761  0.02391  0.90484  1.0000 0.1127588372
H   H27       1.0  0.77768  0.98113  0.86941  1.0000 0.1294100705
H   H28       1.0  0.37472  0.91345  0.94002  1.0000 0.1204803969
H   H29       1.0  0.55527  0.91874  0.95251  1.0000 0.1294100705
H   H30       1.0  0.86694  0.91626  0.92450  1.0000 0.1127588372
H   H31       1.0  0.46552  0.19187  0.64204  1.0000 0.1204803969
H   H32       1.0  0.38150  0.25089  0.58157  1.0000 0.1204803969
H   H33       1.0  0.72048  0.29944  0.62487  1.0000 0.1204803969
H   H34       1.0  0.56403  0.37941  0.48909  1.0000 0.1127588372
H   H35       1.0  0.46943  0.58076  0.34560  1.0000 0.1294100705
H   H36       1.0  0.63733  0.35787  0.56407  1.0000 0.1127588372
H   H37       1.0  0.29914  0.33941  0.56211  1.0000 0.1127588372
H   H38       1.0  0.29476  0.46020  0.44685  1.0000 0.1127588372
H   H39       1.0  0.16904  0.41346  0.58808  1.0000 0.1294100705
H   H40       1.0  0.98927  0.42505  0.60233  1.0000 0.1355332752
H   H41       1.0  0.38239  0.52391  0.40484  1.0000 0.1127588372
H   H42       1.0  0.72232  0.48113  0.36941  1.0000 0.1294100705
H   H43       1.0  0.12528  0.41345  0.44002  1.0000 0.1204803969
H   H44       1.0  0.94473  0.41874  0.45251  1.0000 0.1294100705
H   H45       1.0  0.63306  0.41626  0.42450  1.0000 0.1127588372
H   H46       1.0  0.03448  0.69187  0.35796  1.0000 0.1204803969
H   H47       1.0  0.11850  0.75089  0.41843  1.0000 0.1204803969
H   H48       1.0  0.77952  0.79944  0.37513  1.0000 0.1204803969
H   H49       1.0  0.93597  0.87941  0.51091  1.0000 0.1127588372
H   H50       1.0  0.03057  0.08076  0.65440  1.0000 0.1294100705
H   H51       1.0  0.86267  0.85787  0.43593  1.0000 0.1127588372
H   H52       1.0  0.20086  0.83941  0.43789  1.0000 0.1127588372
H   H53       1.0  0.20524  0.96020  0.55315  1.0000 0.1127588372
H   H54       1.0  0.33096  0.91346  0.41192  1.0000 0.1294100705
H   H55       1.0  0.51073  0.92505  0.39767  1.0000 0.1355332752
H   H56       1.0  0.11761  0.02391  0.59516  1.0000 0.1127588372
H   H57       1.0  0.77768  0.98113  0.63059  1.0000 0.1294100705
H   H58       1.0  0.37472  0.91345  0.55998  1.0000 0.1204803969
H   H59       1.0  0.55527  0.91874  0.54749  1.0000 0.1294100705
H   H60       1.0  0.86694  0.91626  0.57550  1.0000 0.1127588372
H   H61       1.0  0.53448  0.80813  0.35796  1.0000 0.1204803969
H   H62       1.0  0.61850  0.74911  0.41843  1.0000 0.1204803969
H   H63       1.0  0.27952  0.70056  0.37513  1.0000 0.1204803969
H   H64       1.0  0.43597  0.62059  0.51091  1.0000 0.1127588372
H   H65       1.0  0.53057  0.41924  0.65440  1.0000 0.1294100705
H   H66       1.0  0.36267  0.64213  0.43593  1.0000 0.1127588372
H   H67       1.0  0.70086  0.66059  0.43789  1.0000 0.1127588372
H   H68       1.0  0.70524  0.53980  0.55315  1.0000 0.1127588372
H   H69       1.0  0.83096  0.58654  0.41192  1.0000 0.1294100705
H   H70       1.0  0.01073  0.57495  0.39767  1.0000 0.1355332752
H   H71       1.0  0.61761  0.47609  0.59516  1.0000 0.1127588372
H   H72       1.0  0.27768  0.51887  0.63059  1.0000 0.1294100705
H   H73       1.0  0.87472  0.58655  0.55998  1.0000 0.1204803969
H   H74       1.0  0.05527  0.58126  0.54749  1.0000 0.1294100705
H   H75       1.0  0.36694  0.58374  0.57550  1.0000 0.1127588372
H   H76       1.0  0.96552  0.30813  0.64204  1.0000 0.1204803969
H   H77       1.0  0.88150  0.24911  0.58157  1.0000 0.1204803969
H   H78       1.0  0.22048  0.20056  0.62487  1.0000 0.1204803969
H   H79       1.0  0.06403  0.12059  0.48909  1.0000 0.1127588372
H   H80       1.0  0.96943  0.91924  0.34560  1.0000 0.1294100705
H   H81       1.0  0.13733  0.14213  0.56407  1.0000 0.1127588372
H   H82       1.0  0.79914  0.16059  0.56211  1.0000 0.1127588372
H   H83       1.0  0.79476  0.03980  0.44685  1.0000 0.1127588372
H   H84       1.0  0.66904  0.08654  0.58808  1.0000 0.1294100705
H   H85       1.0  0.48927  0.07495  0.60233  1.0000 0.1355332752
H   H86       1.0  0.88239  0.97609  0.40484  1.0000 0.1127588372
H   H87       1.0  0.22232  0.01887  0.36941  1.0000 0.1294100705
H   H88       1.0  0.62528  0.08655  0.44002  1.0000 0.1204803969
H   H89       1.0  0.44473  0.08126  0.45251  1.0000 0.1294100705
H   H90       1.0  0.13306  0.08374  0.42450  1.0000 0.1127588372
H   H91       1.0  0.53448  0.80813  0.14204  1.0000 0.1204803969
H   H92       1.0  0.61850  0.74911  0.08157  1.0000 0.1204803969
H   H93       1.0  0.27952  0.70056  0.12487  1.0000 0.1204803969
H   H94       1.0  0.43597  0.62059  0.98909  1.0000 0.1127588372
H   H95       1.0  0.53057  0.41924  0.84560  1.0000 0.1294100705
H   H96       1.0  0.36267  0.64213  0.06407  1.0000 0.1127588372
H   H97       1.0  0.70086  0.66059  0.06211  1.0000 0.1127588372
H   H98       1.0  0.70524  0.53980  0.94685  1.0000 0.1127588372
H   H99       1.0  0.83096  0.58654  0.08808  1.0000 0.1294100705
H   H100      1.0  0.01073  0.57495  0.10233  1.0000 0.1355332752
H   H101      1.0  0.61761  0.47609  0.90484  1.0000 0.1127588372
H   H102      1.0  0.27768  0.51887  0.86941  1.0000 0.1294100705
H   H103      1.0  0.87472  0.58655  0.94002  1.0000 0.1204803969
H   H104      1.0  0.05527  0.58126  0.95251  1.0000 0.1294100705
H   H105      1.0  0.36694  0.58374  0.92450  1.0000 0.1127588372
H   H106      1.0  0.96552  0.30813  0.85796  1.0000 0.1204803969
H   H107      1.0  0.88150  0.24911  0.91843  1.0000 0.1204803969
H   H108      1.0  0.22048  0.20056  0.87513  1.0000 0.1204803969
H   H109      1.0  0.06403  0.12059  0.01091  1.0000 0.1127588372
H   H110      1.0  0.96943  0.91924  0.15440  1.0000 0.1294100705
H   H111      1.0  0.13733  0.14213  0.93593  1.0000 0.1127588372
H   H112      1.0  0.79914  0.16059  0.93789  1.0000 0.1127588372
H   H113      1.0  0.79476  0.03980  0.05315  1.0000 0.1127588372
H   H114      1.0  0.66904  0.08654  0.91192  1.0000 0.1294100705
H   H115      1.0  0.48927  0.07495  0.89767  1.0000 0.1355332752
H   H116      1.0  0.88239  0.97609  0.09516  1.0000 0.1127588372
H   H117      1.0  0.22232  0.01887  0.13059  1.0000 0.1294100705
H   H118      1.0  0.62528  0.08655  0.05998  1.0000 0.1204803969
H   H119      1.0  0.44473  0.08126  0.04749  1.0000 0.1294100705
H   H120      1.0  0.13306  0.08374  0.07550  1.0000 0.1127588372
C   C1        1.0  0.65450  0.20391  0.81833  1.0000 0.5633631667
C   C2        1.0  0.60170  0.23906  0.85959  1.0000 -0.0285068613
C   C3        1.0  0.50030  0.22540  0.87328  1.0000 -0.0943584622
C   C4        1.0  0.66260  0.57760  0.18521  1.0000 0.5748527368
C   C5        1.0  0.60540  0.53730  0.14791  1.0000 -0.0285068613
C   C6        1.0  0.44970  0.26110  0.90960  1.0000 -0.1397592082
C   C7        1.0  0.65200  0.28960  0.88377  1.0000 -0.1031444742
C   C8        1.0  0.49820  0.31120  0.93281  1.0000 0.0710833341
C   C9        1.0  0.49270  0.38540  0.00650  1.0000 -0.1871295178
C   C10       1.0  0.44130  0.35280  0.96794  1.0000 0.07794063
C   C11       1.0  0.49640  0.46340  0.07744  1.0000 0.07794063
C   C12       1.0  0.43940  0.42650  0.03846  1.0000 0.0878086706
C   C13       1.0  0.50420  0.54850  0.13744  1.0000 -0.0943584622
C   C14       1.0  0.60230  0.32490  0.91997  1.0000 -0.1397592082
C   C15       1.0  0.33470  0.36160  0.96275  1.0000 -0.1836326083
C   C16       1.0  0.27960  0.40260  0.99370  1.0000 0.07794063
C   C17       1.0  0.33190  0.43380  0.03160  1.0000 -0.1871295178
C   C18       1.0  0.95450  0.42070  0.97270  1.0000 0.0710833341
C   C19       1.0  0.12380  0.41470  0.93920  1.0000 -0.1325832808
C   C20       1.0  0.01660  0.42100  0.92990  1.0000 -0.1472242617
C   C21       1.0  0.16520  0.41020  0.98630  1.0000 0.0710833341
C   C22       1.0  0.45130  0.51350  0.10240  1.0000 -0.1472242617
C   C23       1.0  0.65220  0.48920  0.12410  1.0000 -0.1031444742
C   C24       1.0  0.09810  0.41380  0.02760  1.0000 -0.1472242617
C   C25       1.0  0.99040  0.41790  0.02030  1.0000 -0.1397592082
C   C26       1.0  0.59910  0.45070  0.09000  1.0000 -0.1472242617
C   C27       1.0  0.84550  0.70391  0.18167  1.0000 0.5633631667
C   C28       1.0  0.89830  0.73906  0.14041  1.0000 -0.0285068613
C   C29       1.0  0.99970  0.72540  0.12672  1.0000 -0.0943584622
C   C30       1.0  0.83740  0.07760  0.81479  1.0000 0.5748527368
C   C31       1.0  0.89460  0.03730  0.85209  1.0000 -0.0285068613
C   C32       1.0  0.05030  0.76110  0.09040  1.0000 -0.1397592082
C   C33       1.0  0.84800  0.78960  0.11623  1.0000 -0.1031444742
C   C34       1.0  0.00180  0.81120  0.06719  1.0000 0.0710833341
C   C35       1.0  0.00730  0.88540  0.99350  1.0000 -0.1871295178
C   C36       1.0  0.05870  0.85280  0.03206  1.0000 0.07794063
C   C37       1.0  0.00360  0.96340  0.92256  1.0000 0.07794063
C   C38       1.0  0.06060  0.92650  0.96154  1.0000 0.0878086706
C   C39       1.0  0.99580  0.04850  0.86256  1.0000 -0.0943584622
C   C40       1.0  0.89770  0.82490  0.08003  1.0000 -0.1397592082
C   C41       1.0  0.16530  0.86160  0.03725  1.0000 -0.1836326083
C   C42       1.0  0.22040  0.90260  0.00630  1.0000 0.07794063
C   C43       1.0  0.16810  0.93380  0.96840  1.0000 -0.1871295178
C   C44       1.0  0.54550  0.92070  0.02730  1.0000 0.0710833341
C   C45       1.0  0.37620  0.91470  0.06080  1.0000 -0.1325832808
C   C46       1.0  0.48340  0.92100  0.07010  1.0000 -0.1472242617
C   C47       1.0  0.33480  0.91020  0.01370  1.0000 0.0710833341
C   C48       1.0  0.04870  0.01350  0.89760  1.0000 -0.1472242617
C   C49       1.0  0.84780  0.98920  0.87590  1.0000 -0.1031444742
C   C50       1.0  0.40190  0.91380  0.97240  1.0000 -0.1472242617
C   C51       1.0  0.50960  0.91790  0.97970  1.0000 -0.1397592082
C   C52       1.0  0.90090  0.95070  0.91000  1.0000 -0.1472242617
C   C53       1.0  0.65450  0.20391  0.68167  1.0000 0.5633631667
C   C54       1.0  0.60170  0.23906  0.64041  1.0000 -0.0285068613
C   C55       1.0  0.50030  0.22540  0.62672  1.0000 -0.0943584622
C   C56       1.0  0.66260  0.57760  0.31479  1.0000 0.5748527368
C   C57       1.0  0.60540  0.53730  0.35209  1.0000 -0.0285068613
C   C58       1.0  0.44970  0.26110  0.59040  1.0000 -0.1397592082
C   C59       1.0  0.65200  0.28960  0.61623  1.0000 -0.1031444742
C   C60       1.0  0.49820  0.31120  0.56719  1.0000 0.0710833341
C   C61       1.0  0.49270  0.38540  0.49350  1.0000 -0.1871295178
C   C62       1.0  0.44130  0.35280  0.53206  1.0000 0.07794063
C   C63       1.0  0.49640  0.46340  0.42256  1.0000 0.07794063
C   C64       1.0  0.43940  0.42650  0.46154  1.0000 0.0878086706
C   C65       1.0  0.50420  0.54850  0.36256  1.0000 -0.0943584622
C   C66       1.0  0.60230  0.32490  0.58003  1.0000 -0.1397592082
C   C67       1.0  0.33470  0.36160  0.53725  1.0000 -0.1836326083
C   C68       1.0  0.27960  0.40260  0.50630  1.0000 0.07794063
C   C69       1.0  0.33190  0.43380  0.46840  1.0000 -0.1871295178
C   C70       1.0  0.95450  0.42070  0.52730  1.0000 0.0710833341
C   C71       1.0  0.12380  0.41470  0.56080  1.0000 -0.1325832808
C   C72       1.0  0.01660  0.42100  0.57010  1.0000 -0.1472242617
C   C73       1.0  0.16520  0.41020  0.51370  1.0000 0.0710833341
C   C74       1.0  0.45130  0.51350  0.39760  1.0000 -0.1472242617
C   C75       1.0  0.65220  0.48920  0.37590  1.0000 -0.1031444742
C   C76       1.0  0.09810  0.41380  0.47240  1.0000 -0.1472242617
C   C77       1.0  0.99040  0.41790  0.47970  1.0000 -0.1397592082
C   C78       1.0  0.59910  0.45070  0.41000  1.0000 -0.1472242617
C   C79       1.0  0.84550  0.70391  0.31833  1.0000 0.5633631667
C   C80       1.0  0.89830  0.73906  0.35959  1.0000 -0.0285068613
C   C81       1.0  0.99970  0.72540  0.37328  1.0000 -0.0943584622
C   C82       1.0  0.83740  0.07760  0.68521  1.0000 0.5748527368
C   C83       1.0  0.89460  0.03730  0.64791  1.0000 -0.024365682
C   C84       1.0  0.05030  0.76110  0.40960  1.0000 -0.1397592082
C   C85       1.0  0.84800  0.78960  0.38377  1.0000 -0.1031444742
C   C86       1.0  0.00180  0.81120  0.43281  1.0000 0.0710833341
C   C87       1.0  0.00730  0.88540  0.50650  1.0000 -0.1871295178
C   C88       1.0  0.05870  0.85280  0.46794  1.0000 0.07794063
C   C89       1.0  0.00360  0.96340  0.57744  1.0000 0.07794063
C   C90       1.0  0.06060  0.92650  0.53846  1.0000 0.0878086706
C   C91       1.0  0.99580  0.04850  0.63744  1.0000 -0.0943584622
C   C92       1.0  0.89770  0.82490  0.41997  1.0000 -0.1397592082
C   C93       1.0  0.16530  0.86160  0.46275  1.0000 -0.1836326083
C   C94       1.0  0.22040  0.90260  0.49370  1.0000 0.07794063
C   C95       1.0  0.16810  0.93380  0.53160  1.0000 -0.1871295178
C   C96       1.0  0.54550  0.92070  0.47270  1.0000 0.0710833341
C   C97       1.0  0.37620  0.91470  0.43920  1.0000 -0.1325832808
C   C98       1.0  0.48340  0.92100  0.42990  1.0000 -0.1472242617
C   C99       1.0  0.33480  0.91020  0.48630  1.0000 0.0710833341
C   C100      1.0  0.04870  0.01350  0.60240  1.0000 -0.1472242617
C   C101      1.0  0.84780  0.98920  0.62410  1.0000 -0.1031444742
C   C102      1.0  0.40190  0.91380  0.52760  1.0000 -0.1472242617
C   C103      1.0  0.50960  0.91790  0.52030  1.0000 -0.1397592082
C   C104      1.0  0.90090  0.95070  0.59000  1.0000 -0.1472242617
C   C105      1.0  0.34550  0.79609  0.31833  1.0000 0.5633631667
C   C106      1.0  0.39830  0.76094  0.35959  1.0000 -0.0285068613
C   C107      1.0  0.49970  0.77460  0.37328  1.0000 -0.0943584622
C   C108      1.0  0.33740  0.42240  0.68521  1.0000 0.5748527368
C   C109      1.0  0.39460  0.46270  0.64791  1.0000 -0.024365682
C   C110      1.0  0.55030  0.73890  0.40960  1.0000 -0.1397592082
C   C111      1.0  0.34800  0.71040  0.38377  1.0000 -0.1031444742
C   C112      1.0  0.50180  0.68880  0.43281  1.0000 0.0710833341
C   C113      1.0  0.50730  0.61460  0.50650  1.0000 -0.1871295178
C   C114      1.0  0.55870  0.64720  0.46794  1.0000 0.07794063
C   C115      1.0  0.50360  0.53660  0.57744  1.0000 0.07794063
C   C116      1.0  0.56060  0.57350  0.53846  1.0000 0.0878086706
C   C117      1.0  0.49580  0.45150  0.63744  1.0000 -0.0943584622
C   C118      1.0  0.39770  0.67510  0.41997  1.0000 -0.1397592082
C   C119      1.0  0.66530  0.63840  0.46275  1.0000 -0.1836326083
C   C120      1.0  0.72040  0.59740  0.49370  1.0000 0.07794063
C   C121      1.0  0.66810  0.56620  0.53160  1.0000 -0.1871295178
C   C122      1.0  0.04550  0.57930  0.47270  1.0000 0.0710833341
C   C123      1.0  0.87620  0.58530  0.43920  1.0000 -0.1325832808
C   C124      1.0  0.98340  0.57900  0.42990  1.0000 -0.1472242617
C   C125      1.0  0.83480  0.58980  0.48630  1.0000 0.0710833341
C   C126      1.0  0.54870  0.48650  0.60240  1.0000 -0.1472242617
C   C127      1.0  0.34780  0.51080  0.62410  1.0000 -0.1031444742
C   C128      1.0  0.90190  0.58620  0.52760  1.0000 -0.1472242617
C   C129      1.0  0.00960  0.58210  0.52030  1.0000 -0.1397592082
C   C130      1.0  0.40090  0.54930  0.59000  1.0000 -0.1472242617
C   C131      1.0  0.15450  0.29609  0.68167  1.0000 0.5633631667
C   C132      1.0  0.10170  0.26094  0.64041  1.0000 -0.0285068613
C   C133      1.0  0.00030  0.27460  0.62672  1.0000 -0.0943584622
C   C134      1.0  0.16260  0.92240  0.31479  1.0000 0.5748527368
C   C135      1.0  0.10540  0.96270  0.35209  1.0000 -0.0285068613
C   C136      1.0  0.94970  0.23890  0.59040  1.0000 -0.1397592082
C   C137      1.0  0.15200  0.21040  0.61623  1.0000 -0.1031444742
C   C138      1.0  0.99820  0.18880  0.56719  1.0000 0.0710833341
C   C139      1.0  0.99270  0.11460  0.49350  1.0000 -0.1871295178
C   C140      1.0  0.94130  0.14720  0.53206  1.0000 0.07794063
C   C141      1.0  0.99640  0.03660  0.42256  1.0000 0.07794063
C   C142      1.0  0.93940  0.07350  0.46154  1.0000 0.0878086706
C   C143      1.0  0.00420  0.95150  0.36256  1.0000 -0.0943584622
C   C144      1.0  0.10230  0.17510  0.58003  1.0000 -0.1397592082
C   C145      1.0  0.83470  0.13840  0.53725  1.0000 -0.1836326083
C   C146      1.0  0.77960  0.09740  0.50630  1.0000 0.07794063
C   C147      1.0  0.83190  0.06620  0.46840  1.0000 -0.1871295178
C   C148      1.0  0.45450  0.07930  0.52730  1.0000 0.0710833341
C   C149      1.0  0.62380  0.08530  0.56080  1.0000 -0.1325832808
C   C150      1.0  0.51660  0.07900  0.57010  1.0000 -0.1472242617
C   C151      1.0  0.66520  0.08980  0.51370  1.0000 0.0710833341
C   C152      1.0  0.95130  0.98650  0.39760  1.0000 -0.1472242617
C   C153      1.0  0.15220  0.01080  0.37590  1.0000 -0.1031444742
C   C154      1.0  0.59810  0.08620  0.47240  1.0000 -0.1472242617
C   C155      1.0  0.49040  0.08210  0.47970  1.0000 -0.1397592082
C   C156      1.0  0.09910  0.04930  0.41000  1.0000 -0.1472242617
C   C157      1.0  0.34550  0.79609  0.18167  1.0000 0.5633631667
C   C158      1.0  0.39830  0.76094  0.14041  1.0000 -0.0285068613
C   C159      1.0  0.49970  0.77460  0.12672  1.0000 -0.0943584622
C   C160      1.0  0.33740  0.42240  0.81479  1.0000 0.5748527368
C   C161      1.0  0.39460  0.46270  0.85209  1.0000 -0.0285068613
C   C162      1.0  0.55030  0.73890  0.09040  1.0000 -0.1397592082
C   C163      1.0  0.34800  0.71040  0.11623  1.0000 -0.1031444742
C   C164      1.0  0.50180  0.68880  0.06719  1.0000 0.0710833341
C   C165      1.0  0.50730  0.61460  0.99350  1.0000 -0.1871295178
C   C166      1.0  0.55870  0.64720  0.03206  1.0000 0.07794063
C   C167      1.0  0.50360  0.53660  0.92256  1.0000 0.07794063
C   C168      1.0  0.56060  0.57350  0.96154  1.0000 0.0878086706
C   C169      1.0  0.49580  0.45150  0.86256  1.0000 -0.0943584622
C   C170      1.0  0.39770  0.67510  0.08003  1.0000 -0.1397592082
C   C171      1.0  0.66530  0.63840  0.03725  1.0000 -0.1836326083
C   C172      1.0  0.72040  0.59740  0.00630  1.0000 0.07794063
C   C173      1.0  0.66810  0.56620  0.96840  1.0000 -0.1871295178
C   C174      1.0  0.04550  0.57930  0.02730  1.0000 0.0710833341
C   C175      1.0  0.87620  0.58530  0.06080  1.0000 -0.1325832808
C   C176      1.0  0.98340  0.57900  0.07010  1.0000 -0.1472242617
C   C177      1.0  0.83480  0.58980  0.01370  1.0000 0.0710833341
C   C178      1.0  0.54870  0.48650  0.89760  1.0000 -0.1472242617
C   C179      1.0  0.34780  0.51080  0.87590  1.0000 -0.1031444742
C   C180      1.0  0.90190  0.58620  0.97240  1.0000 -0.1472242617
C   C181      1.0  0.00960  0.58210  0.97970  1.0000 -0.1397592082
C   C182      1.0  0.40090  0.54930  0.91000  1.0000 -0.1472242617
C   C183      1.0  0.15450  0.29609  0.81833  1.0000 0.5633631667
C   C184      1.0  0.10170  0.26094  0.85959  1.0000 -0.0285068613
C   C185      1.0  0.00030  0.27460  0.87328  1.0000 -0.0943584622
C   C186      1.0  0.16260  0.92240  0.18521  1.0000 0.5748527368
C   C187      1.0  0.10540  0.96270  0.14791  1.0000 -0.0285068613
C   C188      1.0  0.94970  0.23890  0.90960  1.0000 -0.1397592082
C   C189      1.0  0.15200  0.21040  0.88377  1.0000 -0.1031444742
C   C190      1.0  0.99820  0.18880  0.93281  1.0000 0.0710833341
C   C191      1.0  0.99270  0.11460  0.00650  1.0000 -0.1871295178
C   C192      1.0  0.94130  0.14720  0.96794  1.0000 0.07794063
C   C193      1.0  0.99640  0.03660  0.07744  1.0000 0.07794063
C   C194      1.0  0.93940  0.07350  0.03846  1.0000 0.0878086706
C   C195      1.0  0.00420  0.95150  0.13744  1.0000 -0.0943584622
C   C196      1.0  0.10230  0.17510  0.91997  1.0000 -0.1397592082
C   C197      1.0  0.83470  0.13840  0.96275  1.0000 -0.1836326083
C   C198      1.0  0.77960  0.09740  0.99370  1.0000 0.07794063
C   C199      1.0  0.83190  0.06620  0.03160  1.0000 -0.1871295178
C   C200      1.0  0.45450  0.07930  0.97270  1.0000 0.0710833341
C   C201      1.0  0.62380  0.08530  0.93920  1.0000 -0.1325832808
C   C202      1.0  0.51660  0.07900  0.92990  1.0000 -0.1472242617
C   C203      1.0  0.66520  0.08980  0.98630  1.0000 0.0710833341
C   C204      1.0  0.95130  0.98650  0.10240  1.0000 -0.1472242617
C   C205      1.0  0.15220  0.01080  0.12410  1.0000 -0.1031444742
C   C206      1.0  0.59810  0.08620  0.02760  1.0000 -0.1472242617
C   C207      1.0  0.49040  0.08210  0.02030  1.0000 -0.1397592082
C   C208      1.0  0.09910  0.04930  0.09000  1.0000 -0.1472242617
N   N1        1.0  0.83970  0.42320  0.96470  1.0000 0.4851791879
N   N2        1.0  0.66030  0.92320  0.03530  1.0000 0.4851791879
N   N3        1.0  0.83970  0.42320  0.53530  1.0000 0.4851791879
N   N4        1.0  0.66030  0.92320  0.46470  1.0000 0.4851791879
N   N5        1.0  0.16030  0.57680  0.46470  1.0000 0.4851791879
N   N6        1.0  0.33970  0.07680  0.53530  1.0000 0.4851791879
N   N7        1.0  0.16030  0.57680  0.03530  1.0000 0.4851791879
N   N8        1.0  0.33970  0.07680  0.96470  1.0000 0.4851791879
O   O1        1.0  0.73970  0.22394  0.80355  1.0000 -0.4895899871
O   O2        1.0  0.61810  0.62743  0.19962  1.0000 -0.4972847382
O   O3        1.0  0.60730  0.15705  0.80146  1.0000 -0.5104630644
O   O4        1.0  0.75140  0.55828  0.19804  1.0000 -0.5104630644
O   O5        1.0  0.80930  0.43020  0.92170  1.0000 -0.3195837343
O   O6        1.0  0.78410  0.41830  0.00140  1.0000 -0.3195837343
O   O7        1.0  0.76030  0.72394  0.19645  1.0000 -0.4895899871
O   O8        1.0  0.88190  0.12743  0.80038  1.0000 -0.4972847382
O   O9        1.0  0.89270  0.65705  0.19854  1.0000 -0.5104630644
O   O10       1.0  0.74860  0.05828  0.80196  1.0000 -0.5104630644
O   O11       1.0  0.69070  0.93020  0.07830  1.0000 -0.3195837343
O   O12       1.0  0.71590  0.91830  0.99860  1.0000 -0.3195837343
O   O13       1.0  0.73970  0.22394  0.69645  1.0000 -0.4895899871
O   O14       1.0  0.61810  0.62743  0.30038  1.0000 -0.4972847382
O   O15       1.0  0.60730  0.15705  0.69854  1.0000 -0.5104630644
O   O16       1.0  0.75140  0.55828  0.30196  1.0000 -0.5104630644
O   O17       1.0  0.80930  0.43020  0.57830  1.0000 -0.3195837343
O   O18       1.0  0.78410  0.41830  0.49860  1.0000 -0.3195837343
O   O19       1.0  0.76030  0.72394  0.30355  1.0000 -0.4895899871
O   O20       1.0  0.88190  0.12743  0.69962  1.0000 -0.4972847382
O   O21       1.0  0.89270  0.65705  0.30146  1.0000 -0.5104630644
O   O22       1.0  0.74860  0.05828  0.69804  1.0000 -0.5104630644
O   O23       1.0  0.69070  0.93020  0.42170  1.0000 -0.3195837343
O   O24       1.0  0.71590  0.91830  0.50140  1.0000 -0.3195837343
O   O25       1.0  0.26030  0.77606  0.30355  1.0000 -0.4895899871
O   O26       1.0  0.38190  0.37257  0.69962  1.0000 -0.4972847382
O   O27       1.0  0.39270  0.84295  0.30146  1.0000 -0.5104630644
O   O28       1.0  0.24860  0.44172  0.69804  1.0000 -0.5104630644
O   O29       1.0  0.19070  0.56980  0.42170  1.0000 -0.3195837343
O   O30       1.0  0.21590  0.58170  0.50140  1.0000 -0.3195837343
O   O31       1.0  0.23970  0.27606  0.69645  1.0000 -0.4895899871
O   O32       1.0  0.11810  0.87257  0.30038  1.0000 -0.4972847382
O   O33       1.0  0.10730  0.34295  0.69854  1.0000 -0.5104630644
O   O34       1.0  0.25140  0.94172  0.30196  1.0000 -0.5104630644
O   O35       1.0  0.30930  0.06980  0.57830  1.0000 -0.3195837343
O   O36       1.0  0.28410  0.08170  0.49860  1.0000 -0.3195837343
O   O37       1.0  0.26030  0.77606  0.19645  1.0000 -0.4895899871
O   O38       1.0  0.38190  0.37257  0.80038  1.0000 -0.4972847382
O   O39       1.0  0.39270  0.84295  0.19854  1.0000 -0.5104630644
O   O40       1.0  0.24860  0.44172  0.80196  1.0000 -0.5104630644
O   O41       1.0  0.19070  0.56980  0.07830  1.0000 -0.3195837343
O   O42       1.0  0.21590  0.58170  0.99860  1.0000 -0.3195837343
O   O43       1.0  0.23970  0.27606  0.80355  1.0000 -0.4895899871
O   O44       1.0  0.11810  0.87257  0.19962  1.0000 -0.4972847382
O   O45       1.0  0.10730  0.34295  0.80146  1.0000 -0.5104630644
O   O46       1.0  0.25140  0.94172  0.19804  1.0000 -0.5104630644
O   O47       1.0  0.30930  0.06980  0.92170  1.0000 -0.3195837343
O   O48       1.0  0.28410  0.08170  0.00140  1.0000 -0.3195837343
