# DDEC6 charges by PACMAN v1.1 (https://github.com/mtap-research/PACMAN-charge/)
data_2020[Gd][nan]2[ASR]2
_chemical_formula_sum              "Gd2 H28 C52 N4 O16"
_cell_length_a       9.1146
_cell_length_b       9.9893
_cell_length_c       16.2852
_cell_angle_alpha    94.855
_cell_angle_beta     103.684
_cell_angle_gamma    112.368

_symmetry_space_group_name_H-M    "P 1"
_symmetry_Int_Tables_number       1

loop_
  _symmetry_equiv_pos_as_xyz
  'x, y, z'

loop_
  _atom_site_type_symbol
  _atom_site_label
  _atom_site_symmetry_multiplicity
  _atom_site_fract_x
  _atom_site_fract_y
  _atom_site_fract_z
  _atom_site_occupancy
  _atom_site_charge
Gd  Gd1       1.0  0.66465  0.88233  0.02088  1.0000 2.0354182433
Gd  Gd2       1.0  0.33535  0.11767  0.97912  1.0000 2.0354182433
H   H1        1.0  0.70800  0.41150  0.99280  1.0000 0.1393986604
H   H2        1.0  0.88290  0.23460  0.82860  1.0000 0.1478118014
H   H3        1.0  0.91550  0.64810  0.83050  1.0000 0.1323767502
H   H4        1.0  0.10810  0.66830  0.77420  1.0000 0.1323767502
H   H5        1.0  0.85360  0.23820  0.68900  1.0000 0.1193757396
H   H6        1.0  0.21040  0.68960  0.66000  1.0000 0.1393986604
H   H7        1.0  0.96100  0.25090  0.57630  1.0000 0.1323767502
H   H8        1.0  0.33120  0.70110  0.56500  1.0000 0.1393986604
H   H9        1.0  0.46200  0.71010  0.46260  1.0000 0.1193757396
H   H10       1.0  0.06690  0.26480  0.47490  1.0000 0.1393986604
H   H11       1.0  0.19470  0.28240  0.37120  1.0000 0.1193757396
H   H12       1.0  0.38180  0.28940  0.31660  1.0000 0.1193757396
H   H13       1.0  0.60320  0.51700  0.15580  1.0000 0.1393986604
H   H14       1.0  0.49450  0.72310  0.34100  1.0000 0.1193757396
H   H15       1.0  0.29200  0.58850  0.00720  1.0000 0.1393986604
H   H16       1.0  0.11710  0.76540  0.17140  1.0000 0.1478118014
H   H17       1.0  0.08450  0.35190  0.16950  1.0000 0.1323767502
H   H18       1.0  0.89190  0.33170  0.22580  1.0000 0.1323767502
H   H19       1.0  0.14640  0.76180  0.31100  1.0000 0.1193757396
H   H20       1.0  0.78960  0.31040  0.34000  1.0000 0.1393986604
H   H21       1.0  0.03900  0.74910  0.42370  1.0000 0.1323767502
H   H22       1.0  0.66880  0.29890  0.43500  1.0000 0.1393986604
H   H23       1.0  0.53800  0.28990  0.53740  1.0000 0.1193757396
H   H24       1.0  0.93310  0.73520  0.52510  1.0000 0.1393986604
H   H25       1.0  0.80530  0.71760  0.62880  1.0000 0.1193757396
H   H26       1.0  0.61820  0.71060  0.68340  1.0000 0.1193757396
H   H27       1.0  0.39680  0.48300  0.84420  1.0000 0.1393986604
H   H28       1.0  0.50550  0.27690  0.65900  1.0000 0.1193757396
C   C1        1.0  0.77590  0.67450  0.95417  1.0000 0.5535203528
C   C2        1.0  0.81140  0.54980  0.91860  1.0000 0.0171431771
C   C3        1.0  0.75950  0.41940  0.94935  1.0000 -0.1172681589
C   C4        1.0  0.78460  0.30070  0.91503  1.0000 0.0030979591
C   C5        1.0  0.72910  0.16140  0.94928  1.0000 0.61930135
C   C6        1.0  0.90680  0.44190  0.81731  1.0000 0.1393986604
C   C7        1.0  0.86170  0.31250  0.85005  1.0000 -0.1794527013
C   C8        1.0  0.88340  0.56130  0.85186  1.0000 -0.1950307179
C   C9        1.0  0.07900  0.58390  0.73390  1.0000 0.0325851154
C   C10       1.0  0.92920  0.32870  0.68390  1.0000 0.0082105121
C   C11       1.0  0.14210  0.59660  0.66606  1.0000 -0.1794527013
C   C12       1.0  0.99300  0.33670  0.61607  1.0000 -0.1877767879
C   C13       1.0  0.18270  0.48170  0.53565  1.0000 0.0903103847
C   C14       1.0  0.30370  0.61460  0.52696  1.0000 -0.1877767879
C   C15       1.0  0.38110  0.62040  0.46499  1.0000 -0.0184312047
C   C16       1.0  0.14600  0.35600  0.47315  1.0000 -0.1877767879
C   C17       1.0  0.22350  0.36670  0.41147  1.0000 -0.0184312047
C   C18       1.0  0.42310  0.50510  0.33860  1.0000 0.1323767502
C   C19       1.0  0.42570  0.37770  0.29800  1.0000 -0.2231975783
C   C20       1.0  0.49360  0.38230  0.22994  1.0000 -0.0092191145
C   C21       1.0  0.56070  0.51420  0.20252  1.0000 -0.1252275098
C   C22       1.0  0.56390  0.64260  0.24566  1.0000 0.0030979591
C   C23       1.0  0.49380  0.63760  0.31313  1.0000 -0.2309713799
C   C24       1.0  0.63400  0.78550  0.21564  1.0000 0.6021226358
C   C25       1.0  0.49210  0.23980  0.18819  1.0000 0.5839764785
C   C26       1.0  0.10650  0.47120  0.60402  1.0000 0.0903103847
C   C27       1.0  0.22410  0.32550  0.04583  1.0000 0.5535203528
C   C28       1.0  0.18860  0.45020  0.08140  1.0000 0.0171431771
C   C29       1.0  0.24050  0.58060  0.05065  1.0000 -0.1172681589
C   C30       1.0  0.21540  0.69930  0.08497  1.0000 0.0030979591
C   C31       1.0  0.27090  0.83860  0.05072  1.0000 0.61930135
C   C32       1.0  0.09320  0.55810  0.18269  1.0000 0.1393986604
C   C33       1.0  0.13830  0.68750  0.14995  1.0000 -0.1794527013
C   C34       1.0  0.11660  0.43870  0.14814  1.0000 -0.1950307179
C   C35       1.0  0.92100  0.41610  0.26610  1.0000 0.0325851154
C   C36       1.0  0.07080  0.67130  0.31610  1.0000 0.0082105121
C   C37       1.0  0.85790  0.40340  0.33394  1.0000 -0.1794527013
C   C38       1.0  0.00700  0.66330  0.38393  1.0000 -0.1877767879
C   C39       1.0  0.81730  0.51830  0.46435  1.0000 0.0903103847
C   C40       1.0  0.69630  0.38540  0.47304  1.0000 -0.1877767879
C   C41       1.0  0.61890  0.37960  0.53501  1.0000 -0.0184312047
C   C42       1.0  0.85400  0.64400  0.52685  1.0000 -0.1877767879
C   C43       1.0  0.77650  0.63330  0.58853  1.0000 -0.0184312047
C   C44       1.0  0.57690  0.49490  0.66140  1.0000 0.1323767502
C   C45       1.0  0.57430  0.62230  0.70200  1.0000 -0.2231975783
C   C46       1.0  0.50640  0.61770  0.77006  1.0000 -0.0092191145
C   C47       1.0  0.43930  0.48580  0.79748  1.0000 -0.1252275098
C   C48       1.0  0.43610  0.35740  0.75434  1.0000 0.0030979591
C   C49       1.0  0.50620  0.36240  0.68687  1.0000 -0.2309713799
C   C50       1.0  0.36600  0.21450  0.78436  1.0000 0.6021226358
C   C51       1.0  0.50790  0.76020  0.81181  1.0000 0.5839764785
C   C52       1.0  0.89350  0.52880  0.39598  1.0000 0.0903103847
N   N1        1.0  0.97430  0.45160  0.74494  1.0000 0.0372030373
N   N2        1.0  0.34350  0.49730  0.40573  1.0000 0.0082105121
N   N3        1.0  0.02570  0.54840  0.25506  1.0000 0.0372030373
N   N4        1.0  0.65650  0.50270  0.59427  1.0000 0.0082105121
O   O1        1.0  0.69420  0.90570  0.26805  1.0000 -0.5967012037
O   O2        1.0  0.62770  0.77512  0.13795  1.0000 -0.6727195371
O   O3        1.0  0.52390  0.23640  0.11554  1.0000 -0.6885326494
O   O4        1.0  0.46530  0.13590  0.22606  1.0000 -0.5117421139
O   O5        1.0  0.81290  0.08584  0.95518  1.0000 -0.5967012037
O   O6        1.0  0.70240  0.65600  0.01079  1.0000 -0.5900777865
O   O7        1.0  0.60010  0.12257  0.97335  1.0000 -0.6885326494
O   O8        1.0  0.81650  0.79255  0.92566  1.0000 -0.5900777865
O   O9        1.0  0.30580  0.09430  0.73195  1.0000 -0.5967012037
O   O10       1.0  0.37230  0.22488  0.86205  1.0000 -0.6727195371
O   O11       1.0  0.47610  0.76360  0.88446  1.0000 -0.6885326494
O   O12       1.0  0.53470  0.86410  0.77394  1.0000 -0.5117421139
O   O13       1.0  0.18710  0.91416  0.04482  1.0000 -0.5967012037
O   O14       1.0  0.29760  0.34400  0.98921  1.0000 -0.5900777865
O   O15       1.0  0.39990  0.87743  0.02665  1.0000 -0.6885326494
O   O16       1.0  0.18350  0.20745  0.07434  1.0000 -0.5900777865
