# DDEC6 charges by PACMAN v1.1 (https://github.com/mtap-research/PACMAN-charge/)
data_2020[Cu][cpc]2[ASR]1
_chemical_formula_sum              "Cu8 H44 C56 N40 O8"
_cell_length_a       11.4622
_cell_length_b       10.5017
_cell_length_c       19.3571
_cell_angle_alpha    90
_cell_angle_beta     98.27
_cell_angle_gamma    90

_symmetry_space_group_name_H-M    "P 1"
_symmetry_Int_Tables_number       1

loop_
  _symmetry_equiv_pos_as_xyz
  'x, y, z'

loop_
  _atom_site_type_symbol
  _atom_site_label
  _atom_site_symmetry_multiplicity
  _atom_site_fract_x
  _atom_site_fract_y
  _atom_site_fract_z
  _atom_site_occupancy
  _atom_site_charge
Cu  Cu1       1.0  0.46117  0.43026  0.36762  1.0000 0.6247559289
Cu  Cu2       1.0  0.73564  0.30734  0.50281  1.0000 0.335973243
Cu  Cu3       1.0  0.53883  0.93026  0.13238  1.0000 0.62631465
Cu  Cu4       1.0  0.26436  0.80734  0.99719  1.0000 0.3288603227
Cu  Cu5       1.0  0.53883  0.56974  0.63238  1.0000 0.62631465
Cu  Cu6       1.0  0.26436  0.69266  0.49719  1.0000 0.335973243
Cu  Cu7       1.0  0.46117  0.06974  0.86762  1.0000 0.6247559289
Cu  Cu8       1.0  0.73564  0.19266  0.00281  1.0000 0.335973243
H   H1        1.0  0.89110  0.51340  0.43720  1.0000 0.1118051286
H   H2        1.0  0.65810  0.78340  0.26780  1.0000 0.1270463984
H   H3        1.0  0.33060  0.76400  0.18290  1.0000 0.1118051286
H   H4        1.0  0.29940  0.59640  0.25350  1.0000 0.1270463984
H   H5        1.0  0.30020  0.24850  0.44580  1.0000 0.1188652429
H   H6        1.0  0.52050  0.01340  0.63490  1.0000 0.1188652429
H   H7        1.0  0.85390  0.00970  0.70720  1.0000 0.1188652429
H   H8        1.0  0.89130  0.14880  0.62330  1.0000 0.1270463984
H   H9        1.0  0.07470  0.56280  0.36270  1.0000 0.1495293441
H   H10       1.0  0.07650  0.43730  0.31910  1.0000 0.1585987161
H   H11       1.0  0.07840  0.43020  0.40010  1.0000 0.1585987161
H   H12       1.0  0.10890  0.01340  0.06280  1.0000 0.1118051286
H   H13       1.0  0.34190  0.28340  0.23220  1.0000 0.1270463984
H   H14       1.0  0.66940  0.26400  0.31710  1.0000 0.1118051286
H   H15       1.0  0.70060  0.09640  0.24650  1.0000 0.1270463984
H   H16       1.0  0.69980  0.74850  0.05420  1.0000 0.1188652429
H   H17       1.0  0.47950  0.51340  0.86510  1.0000 0.1188652429
H   H18       1.0  0.14610  0.50970  0.79280  1.0000 0.1188652429
H   H19       1.0  0.10870  0.64880  0.87670  1.0000 0.1270463984
H   H20       1.0  0.92530  0.06280  0.13730  1.0000 0.1495293441
H   H21       1.0  0.92350  0.93730  0.18090  1.0000 0.1585987161
H   H22       1.0  0.92160  0.93020  0.09990  1.0000 0.1585987161
H   H23       1.0  0.10890  0.48660  0.56280  1.0000 0.1118051286
H   H24       1.0  0.34190  0.21660  0.73220  1.0000 0.1270463984
H   H25       1.0  0.66940  0.23600  0.81710  1.0000 0.1118051286
H   H26       1.0  0.70060  0.40360  0.74650  1.0000 0.1270463984
H   H27       1.0  0.69980  0.75150  0.55420  1.0000 0.1188652429
H   H28       1.0  0.47950  0.98660  0.36510  1.0000 0.1188652429
H   H29       1.0  0.14610  0.99030  0.29280  1.0000 0.1188652429
H   H30       1.0  0.10870  0.85120  0.37670  1.0000 0.1270463984
H   H31       1.0  0.92530  0.43720  0.63730  1.0000 0.1495293441
H   H32       1.0  0.92350  0.56270  0.68090  1.0000 0.1585987161
H   H33       1.0  0.92160  0.56980  0.59990  1.0000 0.1585987161
H   H34       1.0  0.89110  0.98660  0.93720  1.0000 0.1118051286
H   H35       1.0  0.65810  0.71660  0.76780  1.0000 0.1270463984
H   H36       1.0  0.33060  0.73600  0.68290  1.0000 0.1118051286
H   H37       1.0  0.29940  0.90360  0.75350  1.0000 0.1270463984
H   H38       1.0  0.30020  0.25150  0.94580  1.0000 0.1188652429
H   H39       1.0  0.52050  0.48660  0.13490  1.0000 0.1188652429
H   H40       1.0  0.85390  0.49030  0.20720  1.0000 0.1188652429
H   H41       1.0  0.89130  0.35120  0.12330  1.0000 0.1270463984
H   H42       1.0  0.07470  0.93720  0.86270  1.0000 0.1495293441
H   H43       1.0  0.07650  0.06270  0.81910  1.0000 0.1585987161
H   H44       1.0  0.07840  0.06980  0.90010  1.0000 0.1585987161
C   C1        1.0  0.81280  0.52050  0.41670  1.0000 0.1270463984
C   C2        1.0  0.65990  0.58280  0.35540  1.0000 0.2359808187
C   C3        1.0  0.56870  0.64250  0.30580  1.0000 0.1188652429
C   C4        1.0  0.58440  0.74460  0.26360  1.0000 0.0169977454
C   C5        1.0  0.39320  0.73370  0.21450  1.0000 0.0169977454
C   C6        1.0  0.37400  0.63260  0.25680  1.0000 0.03580802
C   C7        1.0  0.37860  0.23990  0.46570  1.0000 0.1495293441
C   C8        1.0  0.52970  0.18070  0.52930  1.0000 0.2336883346
C   C9        1.0  0.61970  0.12590  0.58200  1.0000 0.1270463984
C   C10       1.0  0.59720  0.04100  0.63350  1.0000 0.0017324018
C   C11       1.0  0.79120  0.03890  0.67530  1.0000 -0.0208536748
C   C12       1.0  0.81420  0.12240  0.62440  1.0000 0.0017324018
C   C13       1.0  0.23640  0.48080  0.37300  1.0000 0.6618480186
C   C14       1.0  0.10480  0.47750  0.36280  1.0000 -0.6065536638
C   C15       1.0  0.18720  0.02050  0.08330  1.0000 0.1270463984
C   C16       1.0  0.34010  0.08280  0.14460  1.0000 0.2359808187
C   C17       1.0  0.43130  0.14250  0.19420  1.0000 0.1188652429
C   C18       1.0  0.41560  0.24460  0.23640  1.0000 0.0169977454
C   C19       1.0  0.60680  0.23370  0.28550  1.0000 0.0169977454
C   C20       1.0  0.62600  0.13260  0.24320  1.0000 0.03580802
C   C21       1.0  0.62140  0.73990  0.03430  1.0000 0.1495293441
C   C22       1.0  0.47030  0.68070  0.97070  1.0000 0.2336883346
C   C23       1.0  0.38030  0.62590  0.91800  1.0000 0.1270463984
C   C24       1.0  0.40280  0.54100  0.86650  1.0000 0.0017324018
C   C25       1.0  0.20880  0.53890  0.82470  1.0000 -0.0208536748
C   C26       1.0  0.18580  0.62240  0.87560  1.0000 0.0017324018
C   C27       1.0  0.76360  0.98080  0.12700  1.0000 0.6618480186
C   C28       1.0  0.89520  0.97750  0.13720  1.0000 -0.6065536638
C   C29       1.0  0.18720  0.47950  0.58330  1.0000 0.1270463984
C   C30       1.0  0.34010  0.41720  0.64460  1.0000 0.2359808187
C   C31       1.0  0.43130  0.35750  0.69420  1.0000 0.1188652429
C   C32       1.0  0.41560  0.25540  0.73640  1.0000 0.0169977454
C   C33       1.0  0.60680  0.26630  0.78550  1.0000 0.0169977454
C   C34       1.0  0.62600  0.36740  0.74320  1.0000 0.03580802
C   C35       1.0  0.62140  0.76010  0.53430  1.0000 0.1495293441
C   C36       1.0  0.47030  0.81930  0.47070  1.0000 0.2336883346
C   C37       1.0  0.38030  0.87410  0.41800  1.0000 0.1270463984
C   C38       1.0  0.40280  0.95900  0.36650  1.0000 0.0017324018
C   C39       1.0  0.20880  0.96110  0.32470  1.0000 -0.0208536748
C   C40       1.0  0.18580  0.87760  0.37560  1.0000 0.0017324018
C   C41       1.0  0.76360  0.51920  0.62700  1.0000 0.6618480186
C   C42       1.0  0.89520  0.52250  0.63720  1.0000 -0.6065536638
C   C43       1.0  0.81280  0.97950  0.91670  1.0000 0.1270463984
C   C44       1.0  0.65990  0.91720  0.85540  1.0000 0.2359808187
C   C45       1.0  0.56870  0.85750  0.80580  1.0000 0.1188652429
C   C46       1.0  0.58440  0.75540  0.76360  1.0000 0.0169977454
C   C47       1.0  0.39320  0.76630  0.71450  1.0000 0.0169977454
C   C48       1.0  0.37400  0.86740  0.75680  1.0000 0.03580802
C   C49       1.0  0.37860  0.26010  0.96570  1.0000 0.1495293441
C   C50       1.0  0.52970  0.31930  0.02930  1.0000 0.2336883346
C   C51       1.0  0.61970  0.37410  0.08200  1.0000 0.1270463984
C   C52       1.0  0.59720  0.45900  0.13350  1.0000 0.0017324018
C   C53       1.0  0.79120  0.46110  0.17530  1.0000 -0.0208536748
C   C54       1.0  0.81420  0.37760  0.12440  1.0000 0.0017324018
C   C55       1.0  0.23640  0.01920  0.87300  1.0000 0.6618480186
C   C56       1.0  0.10480  0.02250  0.86280  1.0000 -0.6049034496
N   N1        1.0  0.62820  0.48490  0.39229  1.0000 -0.231615891
N   N2        1.0  0.72850  0.44370  0.43220  1.0000 -0.1809569609
N   N3        1.0  0.77540  0.60960  0.36880  1.0000 -0.3735575576
N   N4        1.0  0.46260  0.58630  0.30250  1.0000 -0.2099551253
N   N5        1.0  0.49730  0.78960  0.21710  1.0000 -0.2099551253
N   N6        1.0  0.56490  0.26470  0.48540  1.0000 -0.2154598136
N   N7        1.0  0.46530  0.30360  0.44320  1.0000 -0.1870936294
N   N8        1.0  0.41290  0.16270  0.51930  1.0000 -0.3767222364
N   N9        1.0  0.72890  0.16600  0.57700  1.0000 -0.1952667385
N   N10       1.0  0.68460  0.99850  0.68110  1.0000 -0.2099551253
N   N11       1.0  0.37180  0.98490  0.10771  1.0000 -0.231615891
N   N12       1.0  0.27150  0.94370  0.06780  1.0000 -0.1809569609
N   N13       1.0  0.22460  0.10960  0.13120  1.0000 -0.3735575576
N   N14       1.0  0.53740  0.08630  0.19750  1.0000 -0.2099551253
N   N15       1.0  0.50270  0.28960  0.28290  1.0000 -0.2099551253
N   N16       1.0  0.43510  0.76470  0.01460  1.0000 -0.2099551253
N   N17       1.0  0.53470  0.80360  0.05680  1.0000 -0.1870936294
N   N18       1.0  0.58710  0.66270  0.98070  1.0000 -0.3767222364
N   N19       1.0  0.27110  0.66600  0.92300  1.0000 -0.1870936294
N   N20       1.0  0.31540  0.49850  0.81890  1.0000 -0.2099551253
N   N21       1.0  0.37180  0.51510  0.60771  1.0000 -0.231615891
N   N22       1.0  0.27150  0.55630  0.56780  1.0000 -0.1809569609
N   N23       1.0  0.22460  0.39040  0.63120  1.0000 -0.3735575576
N   N24       1.0  0.53740  0.41370  0.69750  1.0000 -0.2099551253
N   N25       1.0  0.50270  0.21040  0.78290  1.0000 -0.2099551253
N   N26       1.0  0.43510  0.73530  0.51460  1.0000 -0.2154598136
N   N27       1.0  0.53470  0.69640  0.55680  1.0000 -0.1870936294
N   N28       1.0  0.58710  0.83730  0.48070  1.0000 -0.3767222364
N   N29       1.0  0.27110  0.83400  0.42300  1.0000 -0.1952667385
N   N30       1.0  0.31540  0.00150  0.31890  1.0000 -0.2099551253
N   N31       1.0  0.62820  0.01510  0.89229  1.0000 -0.231615891
N   N32       1.0  0.72850  0.05630  0.93220  1.0000 -0.1809569609
N   N33       1.0  0.77540  0.89040  0.86880  1.0000 -0.3735575576
N   N34       1.0  0.46260  0.91370  0.80250  1.0000 -0.2099551253
N   N35       1.0  0.49730  0.71040  0.71710  1.0000 -0.2099551253
N   N36       1.0  0.56490  0.23530  0.98540  1.0000 -0.2154598136
N   N37       1.0  0.46530  0.19640  0.94320  1.0000 -0.1870936294
N   N38       1.0  0.41290  0.33730  0.01930  1.0000 -0.3767222364
N   N39       1.0  0.72890  0.33400  0.07700  1.0000 -0.1952667385
N   N40       1.0  0.68460  0.50150  0.18110  1.0000 -0.2099551253
O   O1        1.0  0.29070  0.40250  0.33896  1.0000 -0.526356255
O   O2        1.0  0.29200  0.55840  0.41369  1.0000 -0.5746053358
O   O3        1.0  0.70930  0.90250  0.16104  1.0000 -0.526356255
O   O4        1.0  0.70800  0.05840  0.08631  1.0000 -0.5746053358
O   O5        1.0  0.70930  0.59750  0.66104  1.0000 -0.526356255
O   O6        1.0  0.70800  0.44160  0.58631  1.0000 -0.5746053358
O   O7        1.0  0.29070  0.09750  0.83896  1.0000 -0.526356255
O   O8        1.0  0.29200  0.94160  0.91369  1.0000 -0.5746053358
