# DDEC6 charges by PACMAN v1.1 (https://github.com/mtap-research/PACMAN-charge/)
data_2020[Dy][hcb]2[ASR]1
_chemical_formula_sum              "Dy2 H12 C24 O18"
_cell_length_a       6.8418
_cell_length_b       8.4943
_cell_length_c       17.5379
_cell_angle_alpha    92.969
_cell_angle_beta     99.482
_cell_angle_gamma    94.766

_symmetry_space_group_name_H-M    "P 1"
_symmetry_Int_Tables_number       1

loop_
  _symmetry_equiv_pos_as_xyz
  'x, y, z'

loop_
  _atom_site_type_symbol
  _atom_site_label
  _atom_site_symmetry_multiplicity
  _atom_site_fract_x
  _atom_site_fract_y
  _atom_site_fract_z
  _atom_site_occupancy
  _atom_site_charge
Dy  Dy1       1.0  0.61052  0.51197  0.28061  1.0000 1.9915775441
Dy  Dy2       1.0  0.38948  0.48803  0.71939  1.0000 1.9915775441
H   H1        1.0  0.65260  0.12713  0.61851  1.0000 0.1358301424
H   H2        1.0  0.06791  0.95932  0.63244  1.0000 0.1482190647
H   H3        1.0  0.96543  0.59825  0.87667  1.0000 0.1326745235
H   H4        1.0  0.65083  0.34832  0.46704  1.0000 0.3382182799
H   H5        1.0  0.85854  0.64274  0.51824  1.0000 0.3465026402
H   H6        1.0  0.61998  0.68909  0.98105  1.0000 0.3382182799
H   H7        1.0  0.34740  0.87287  0.38149  1.0000 0.1358301424
H   H8        1.0  0.93209  0.04068  0.36756  1.0000 0.1482190647
H   H9        1.0  0.03457  0.40175  0.12333  1.0000 0.1326745235
H   H10       1.0  0.34917  0.65168  0.53296  1.0000 0.3382182799
H   H11       1.0  0.14146  0.35726  0.48176  1.0000 0.3465026402
H   H12       1.0  0.38002  0.31091  0.01895  1.0000 0.3382182799
C   C1        1.0  0.46890  0.16680  0.35900  1.0000 0.6064508938
C   C2        1.0  0.48740  0.08260  0.43260  1.0000 -0.1391900546
C   C3        1.0  0.57930  0.15750  0.50370  1.0000 0.2399009251
C   C4        1.0  0.59070  0.07530  0.57020  1.0000 -0.2029170013
C   C5        1.0  0.81900  0.74470  0.39000  1.0000 0.5921505474
C   C6        1.0  0.91090  0.87560  0.44740  1.0000 -0.1391900546
C   C7        1.0  0.95160  0.85210  0.52660  1.0000 0.2474688672
C   C8        1.0  0.04020  0.97560  0.57870  1.0000 -0.1777064196
C   C9        1.0  0.72680  0.57560  0.10320  1.0000 0.6304531478
C   C10       1.0  0.86710  0.53600  0.04990  1.0000 -0.1523976244
C   C11       1.0  0.84830  0.59520  0.97570  1.0000 0.2603733473
C   C12       1.0  0.97970  0.55850  0.92680  1.0000 -0.1777064196
C   C13       1.0  0.53110  0.83320  0.64100  1.0000 0.6064508938
C   C14       1.0  0.51260  0.91740  0.56740  1.0000 -0.1391900546
C   C15       1.0  0.42070  0.84250  0.49630  1.0000 0.2399009251
C   C16       1.0  0.40930  0.92470  0.42980  1.0000 -0.2029170013
C   C17       1.0  0.18100  0.25530  0.61000  1.0000 0.5921505474
C   C18       1.0  0.08910  0.12440  0.55260  1.0000 -0.1391900546
C   C19       1.0  0.04840  0.14790  0.47340  1.0000 0.2474688672
C   C20       1.0  0.95980  0.02440  0.42130  1.0000 -0.1777064196
C   C21       1.0  0.27320  0.42440  0.89680  1.0000 0.6304531478
C   C22       1.0  0.13290  0.46400  0.95010  1.0000 -0.1523976244
C   C23       1.0  0.15170  0.40480  0.02430  1.0000 0.2603733473
C   C24       1.0  0.02030  0.44150  0.07320  1.0000 -0.1777064196
O   O1        1.0  0.57340  0.29940  0.36128  1.0000 -0.7074035026
O   O2        1.0  0.35730  0.10400  0.30032  1.0000 -0.5075949497
O   O3        1.0  0.65950  0.31230  0.51106  1.0000 -0.4458893008
O   O4        1.0  0.75620  0.61290  0.41423  1.0000 -0.6458541967
O   O5        1.0  0.79700  0.76310  0.31881  1.0000 -0.6070770837
O   O6        1.0  0.90580  0.70930  0.55514  1.0000 -0.4274595446
O   O7        1.0  0.75280  0.52410  0.17005  1.0000 -0.7251384474
O   O8        1.0  0.58870  0.66010  0.07903  1.0000 -0.5253614999
O   O9        1.0  0.70280  0.69020  0.95059  1.0000 -0.4274595446
O   O10       1.0  0.42660  0.70060  0.63872  1.0000 -0.7074035026
O   O11       1.0  0.64270  0.89600  0.69968  1.0000 -0.5075949497
O   O12       1.0  0.34050  0.68770  0.48894  1.0000 -0.4458893008
O   O13       1.0  0.24380  0.38710  0.58577  1.0000 -0.6458541967
O   O14       1.0  0.20300  0.23690  0.68119  1.0000 -0.6070770837
O   O15       1.0  0.09420  0.29070  0.44486  1.0000 -0.4274595446
O   O16       1.0  0.24720  0.47590  0.82995  1.0000 -0.7245235659
O   O17       1.0  0.41130  0.33990  0.92097  1.0000 -0.5253614999
O   O18       1.0  0.29720  0.30980  0.04941  1.0000 -0.4274595446
