# DDEC6 charges by PACMAN v1.1 (https://github.com/mtap-research/PACMAN-charge/)
data_2020[Zn][nan]3[ASR]56
_chemical_formula_sum              "Zn10 H36 C92 O48"
_cell_length_a       19.776
_cell_length_b       19.776
_cell_length_c       19.776
_cell_angle_alpha    122.847
_cell_angle_beta     122.847
_cell_angle_gamma    85.1361

_symmetry_space_group_name_H-M    "P 1"
_symmetry_Int_Tables_number       1

loop_
  _symmetry_equiv_pos_as_xyz
  'x, y, z'

loop_
  _atom_site_type_symbol
  _atom_site_label
  _atom_site_symmetry_multiplicity
  _atom_site_fract_x
  _atom_site_fract_y
  _atom_site_fract_z
  _atom_site_occupancy
  _atom_site_charge
Zn  Zn1       1.0  0.55122  0.55122  0.00000  1.0000 0.9484737455
Zn  Zn2       1.0  0.44878  0.44878  0.00000  1.0000 0.9484737455
Zn  Zn3       1.0  0.42459  0.42459  0.42430  1.0000 0.9484737455
Zn  Zn4       1.0  0.00029  0.00029  0.57570  1.0000 0.9484737455
Zn  Zn5       1.0  0.42459  0.00029  0.00000  1.0000 0.9484737455
Zn  Zn6       1.0  0.00029  0.42459  0.00000  1.0000 0.9484737455
Zn  Zn7       1.0  0.99971  0.57541  0.00000  1.0000 0.9484737455
Zn  Zn8       1.0  0.57541  0.99971  0.00000  1.0000 0.9484737455
Zn  Zn9       1.0  0.99971  0.99971  0.42430  1.0000 0.9484737455
Zn  Zn10      1.0  0.57541  0.57541  0.57570  1.0000 0.9484737455
H   H1        1.0  0.30096  0.52212  0.56774  1.0000 0.1472199444
H   H2        1.0  0.95438  0.73322  0.43226  1.0000 0.1472199444
H   H3        1.0  0.52212  0.95438  0.22116  1.0000 0.1472199444
H   H4        1.0  0.73322  0.30096  0.77884  1.0000 0.1472199444
H   H5        1.0  0.04562  0.47788  0.77884  1.0000 0.1472199444
H   H6        1.0  0.69904  0.26678  0.22116  1.0000 0.1472199444
H   H7        1.0  0.26678  0.04562  0.56774  1.0000 0.1472199444
H   H8        1.0  0.47788  0.69904  0.43226  1.0000 0.1472199444
H   H9        1.0  0.69904  0.47788  0.43226  1.0000 0.1472199444
H   H10       1.0  0.04562  0.26678  0.56774  1.0000 0.1472199444
H   H11       1.0  0.47788  0.04562  0.77884  1.0000 0.1472199444
H   H12       1.0  0.26678  0.69904  0.22116  1.0000 0.1472199444
H   H13       1.0  0.95438  0.52212  0.22116  1.0000 0.1472199444
H   H14       1.0  0.30096  0.73322  0.77884  1.0000 0.1472199444
H   H15       1.0  0.73322  0.95438  0.43226  1.0000 0.1472199444
H   H16       1.0  0.52212  0.30096  0.56774  1.0000 0.1472199444
H   H17       1.0  0.34360  0.56874  0.77486  1.0000 0.1472199444
H   H18       1.0  0.48786  0.73475  0.75311  1.0000 0.1372675544
H   H19       1.0  0.79388  0.56874  0.22514  1.0000 0.1472199444
H   H20       1.0  0.98164  0.73475  0.24689  1.0000 0.1372675544
H   H21       1.0  0.56874  0.79388  0.22514  1.0000 0.1472199444
H   H22       1.0  0.73475  0.98164  0.24689  1.0000 0.1372675544
H   H23       1.0  0.56874  0.34360  0.77486  1.0000 0.1472199444
H   H24       1.0  0.73475  0.48786  0.75311  1.0000 0.1372675544
H   H25       1.0  0.20612  0.43126  0.77486  1.0000 0.1472199444
H   H26       1.0  0.01836  0.26525  0.75311  1.0000 0.1372675544
H   H27       1.0  0.65640  0.43126  0.22514  1.0000 0.1472199444
H   H28       1.0  0.51214  0.26525  0.24689  1.0000 0.1372675544
H   H29       1.0  0.43126  0.20612  0.77486  1.0000 0.1472199444
H   H30       1.0  0.26525  0.01836  0.75311  1.0000 0.1372675544
H   H31       1.0  0.43126  0.65640  0.22514  1.0000 0.1472199444
H   H32       1.0  0.26525  0.51214  0.24689  1.0000 0.1372675544
H   H33       1.0  0.08966  0.50000  0.58966  1.0000 0.1645350664
H   H34       1.0  0.91034  0.50000  0.41034  1.0000 0.1645350664
H   H35       1.0  0.50000  0.91034  0.41034  1.0000 0.1645350664
H   H36       1.0  0.50000  0.08966  0.58966  1.0000 0.1645350664
C   C1        1.0  0.32634  0.57904  0.62090  1.0000 -0.1907450843
C   C2        1.0  0.40126  0.62267  0.65239  1.0000 -0.0164953463
C   C3        1.0  0.43998  0.57708  0.59790  1.0000 0.5994354657
C   C4        1.0  0.95814  0.70544  0.37910  1.0000 -0.1907450843
C   C5        1.0  0.97028  0.74887  0.34761  1.0000 -0.0164953463
C   C6        1.0  0.97918  0.84208  0.40210  1.0000 0.5994354657
C   C7        1.0  0.57904  0.95814  0.25270  1.0000 -0.1907450843
C   C8        1.0  0.62267  0.97028  0.22141  1.0000 -0.0164953463
C   C9        1.0  0.57708  0.97918  0.13710  1.0000 0.5994354657
C   C10       1.0  0.70544  0.32634  0.74730  1.0000 -0.1907450843
C   C11       1.0  0.74887  0.40126  0.77859  1.0000 -0.0164953463
C   C12       1.0  0.84208  0.43998  0.86290  1.0000 0.5994354657
C   C13       1.0  0.04186  0.42096  0.74730  1.0000 -0.1907450843
C   C14       1.0  0.02972  0.37733  0.77859  1.0000 -0.0164953463
C   C15       1.0  0.02082  0.42292  0.86290  1.0000 0.5994354657
C   C16       1.0  0.67366  0.29456  0.25270  1.0000 -0.1907450843
C   C17       1.0  0.59874  0.25113  0.22141  1.0000 -0.0164953463
C   C18       1.0  0.56002  0.15792  0.13710  1.0000 0.5994354657
C   C19       1.0  0.29456  0.04186  0.62090  1.0000 -0.1907450843
C   C20       1.0  0.25113  0.02972  0.65239  1.0000 -0.0164953463
C   C21       1.0  0.15792  0.02082  0.59790  1.0000 0.5994354657
C   C22       1.0  0.42096  0.67366  0.37910  1.0000 -0.1907450843
C   C23       1.0  0.37733  0.59874  0.34761  1.0000 -0.0164953463
C   C24       1.0  0.42292  0.56002  0.40210  1.0000 0.5994354657
C   C25       1.0  0.67366  0.42096  0.37910  1.0000 -0.1907450843
C   C26       1.0  0.59874  0.37733  0.34761  1.0000 -0.0164953463
C   C27       1.0  0.56002  0.42292  0.40210  1.0000 0.5994354657
C   C28       1.0  0.04186  0.29456  0.62090  1.0000 -0.1907450843
C   C29       1.0  0.02972  0.25113  0.65239  1.0000 -0.0164953463
C   C30       1.0  0.02082  0.15792  0.59790  1.0000 0.5994354657
C   C31       1.0  0.42096  0.04186  0.74730  1.0000 -0.1907450843
C   C32       1.0  0.37733  0.02972  0.77859  1.0000 -0.0164953463
C   C33       1.0  0.42292  0.02082  0.86290  1.0000 0.5994354657
C   C34       1.0  0.29456  0.67366  0.25270  1.0000 -0.1907450843
C   C35       1.0  0.25113  0.59874  0.22141  1.0000 -0.0164953463
C   C36       1.0  0.15792  0.56002  0.13710  1.0000 0.5994354657
C   C37       1.0  0.95814  0.57904  0.25270  1.0000 -0.1907450843
C   C38       1.0  0.97028  0.62267  0.22141  1.0000 -0.0164953463
C   C39       1.0  0.97918  0.57708  0.13710  1.0000 0.5994354657
C   C40       1.0  0.32634  0.70544  0.74730  1.0000 -0.1907450843
C   C41       1.0  0.40126  0.74887  0.77859  1.0000 -0.0164953463
C   C42       1.0  0.43998  0.84208  0.86290  1.0000 0.5994354657
C   C43       1.0  0.70544  0.95814  0.37910  1.0000 -0.1907450843
C   C44       1.0  0.74887  0.97028  0.34761  1.0000 -0.0164953463
C   C45       1.0  0.84208  0.97918  0.40210  1.0000 0.5994354657
C   C46       1.0  0.57904  0.32634  0.62090  1.0000 -0.1907450843
C   C47       1.0  0.62267  0.40126  0.65239  1.0000 -0.0164953463
C   C48       1.0  0.57708  0.43998  0.59790  1.0000 0.5994354657
C   C49       1.0  0.29139  0.54109  0.75030  1.0000 -0.2323665802
C   C50       1.0  0.21646  0.54026  0.67620  1.0000 0.2711664198
C   C51       1.0  0.29080  0.62140  0.66940  1.0000 0.2238797511
C   C52       1.0  0.43703  0.70633  0.73070  1.0000 -0.1093121383
C   C53       1.0  0.79079  0.54109  0.24970  1.0000 -0.2323665802
C   C54       1.0  0.86406  0.54026  0.32380  1.0000 0.2711664198
C   C55       1.0  0.95200  0.62140  0.33060  1.0000 0.2238797511
C   C56       1.0  0.97563  0.70633  0.26930  1.0000 -0.1093121383
C   C57       1.0  0.54109  0.79079  0.24970  1.0000 -0.2323665802
C   C58       1.0  0.54026  0.86406  0.32380  1.0000 0.2711664198
C   C59       1.0  0.62140  0.95200  0.33060  1.0000 0.2238797511
C   C60       1.0  0.70633  0.97563  0.26930  1.0000 -0.1093121383
C   C61       1.0  0.54109  0.29139  0.75030  1.0000 -0.2323665802
C   C62       1.0  0.54026  0.21646  0.67620  1.0000 0.2711664198
C   C63       1.0  0.62140  0.29080  0.66940  1.0000 0.2238797511
C   C64       1.0  0.70633  0.43703  0.73070  1.0000 -0.1093121383
C   C65       1.0  0.20921  0.45891  0.75030  1.0000 -0.2323665802
C   C66       1.0  0.13594  0.45974  0.67620  1.0000 0.2711664198
C   C67       1.0  0.04800  0.37860  0.66940  1.0000 0.2238797511
C   C68       1.0  0.02437  0.29367  0.73070  1.0000 -0.1093121383
C   C69       1.0  0.70861  0.45891  0.24970  1.0000 -0.2323665802
C   C70       1.0  0.78354  0.45974  0.32380  1.0000 0.2711664198
C   C71       1.0  0.70920  0.37860  0.33060  1.0000 0.2238797511
C   C72       1.0  0.56297  0.29367  0.26930  1.0000 -0.1093121383
C   C73       1.0  0.45891  0.20921  0.75030  1.0000 -0.2323665802
C   C74       1.0  0.45974  0.13594  0.67620  1.0000 0.2711664198
C   C75       1.0  0.37860  0.04800  0.66940  1.0000 0.2238797511
C   C76       1.0  0.29367  0.02437  0.73070  1.0000 -0.1093121383
C   C77       1.0  0.45891  0.70861  0.24970  1.0000 -0.2323665802
C   C78       1.0  0.45974  0.78354  0.32380  1.0000 0.2711664198
C   C79       1.0  0.37860  0.70920  0.33060  1.0000 0.2238797511
C   C80       1.0  0.29367  0.56297  0.26930  1.0000 -0.1093121383
C   C81       1.0  0.36430  0.50000  0.86430  1.0000 0.591395831
C   C82       1.0  0.28550  0.50000  0.78550  1.0000 0.0060394907
C   C83       1.0  0.13880  0.50000  0.63880  1.0000 -0.304298708
C   C84       1.0  0.63570  0.50000  0.13570  1.0000 0.591395831
C   C85       1.0  0.71450  0.50000  0.21450  1.0000 0.0060394907
C   C86       1.0  0.86120  0.50000  0.36120  1.0000 -0.304298708
C   C87       1.0  0.50000  0.63570  0.13570  1.0000 0.591395831
C   C88       1.0  0.50000  0.71450  0.21450  1.0000 0.0060394907
C   C89       1.0  0.50000  0.86120  0.36120  1.0000 -0.304298708
C   C90       1.0  0.50000  0.36430  0.86430  1.0000 0.591395831
C   C91       1.0  0.50000  0.28550  0.78550  1.0000 0.0060394907
C   C92       1.0  0.50000  0.13880  0.63880  1.0000 -0.304298708
O   O1        1.0  0.39804  0.50317  0.52077  1.0000 -0.5488850937
O   O2        1.0  0.51075  0.61653  0.63428  1.0000 -0.5398236827
O   O3        1.0  0.98240  0.87727  0.47923  1.0000 -0.5488850937
O   O4        1.0  0.98225  0.87647  0.36572  1.0000 -0.5398236827
O   O5        1.0  0.50317  0.98240  0.10513  1.0000 -0.5488850937
O   O6        1.0  0.61653  0.98225  0.10578  1.0000 -0.5398236827
O   O7        1.0  0.87727  0.39804  0.89487  1.0000 -0.5488850937
O   O8        1.0  0.87647  0.51075  0.89422  1.0000 -0.5398236827
O   O9        1.0  0.01760  0.49683  0.89487  1.0000 -0.5488850937
O   O10       1.0  0.01775  0.38347  0.89422  1.0000 -0.5398236827
O   O11       1.0  0.60196  0.12273  0.10513  1.0000 -0.5488850937
O   O12       1.0  0.48925  0.12353  0.10578  1.0000 -0.5398236827
O   O13       1.0  0.12273  0.01760  0.52077  1.0000 -0.5488850937
O   O14       1.0  0.12353  0.01775  0.63428  1.0000 -0.5398236827
O   O15       1.0  0.49683  0.60196  0.47923  1.0000 -0.5488850937
O   O16       1.0  0.38347  0.48925  0.36572  1.0000 -0.5398236827
O   O17       1.0  0.60196  0.49683  0.47923  1.0000 -0.5488850937
O   O18       1.0  0.48925  0.38347  0.36572  1.0000 -0.5398236827
O   O19       1.0  0.01760  0.12273  0.52077  1.0000 -0.5488850937
O   O20       1.0  0.01775  0.12353  0.63428  1.0000 -0.5398236827
O   O21       1.0  0.49683  0.01760  0.89487  1.0000 -0.5488850937
O   O22       1.0  0.38347  0.01775  0.89422  1.0000 -0.5398236827
O   O23       1.0  0.12273  0.60196  0.10513  1.0000 -0.5488850937
O   O24       1.0  0.12353  0.48925  0.10578  1.0000 -0.5398236827
O   O25       1.0  0.98240  0.50317  0.10513  1.0000 -0.5488850937
O   O26       1.0  0.98225  0.61653  0.10578  1.0000 -0.5398236827
O   O27       1.0  0.39804  0.87727  0.89487  1.0000 -0.5488850937
O   O28       1.0  0.51075  0.87647  0.89422  1.0000 -0.5398236827
O   O29       1.0  0.87727  0.98240  0.47923  1.0000 -0.5488850937
O   O30       1.0  0.87647  0.98225  0.36572  1.0000 -0.5398236827
O   O31       1.0  0.50317  0.39804  0.52077  1.0000 -0.5488850937
O   O32       1.0  0.61653  0.51075  0.63428  1.0000 -0.5398236827
O   O33       1.0  0.43245  0.53810  0.89435  1.0000 -0.5398236827
O   O34       1.0  0.21428  0.57947  0.63481  1.0000 -0.2138716967
O   O35       1.0  0.64375  0.53810  0.10565  1.0000 -0.5398236827
O   O36       1.0  0.94466  0.57947  0.36519  1.0000 -0.2138716967
O   O37       1.0  0.53810  0.64375  0.10565  1.0000 -0.5398236827
O   O38       1.0  0.57947  0.94466  0.36519  1.0000 -0.2138716967
O   O39       1.0  0.53810  0.43245  0.89435  1.0000 -0.5398236827
O   O40       1.0  0.57947  0.21428  0.63481  1.0000 -0.2138716967
O   O41       1.0  0.35625  0.46190  0.89435  1.0000 -0.5398236827
O   O42       1.0  0.05534  0.42053  0.63481  1.0000 -0.2138716967
O   O43       1.0  0.56755  0.46190  0.10565  1.0000 -0.5398236827
O   O44       1.0  0.78572  0.42053  0.36519  1.0000 -0.2138716967
O   O45       1.0  0.46190  0.35625  0.89435  1.0000 -0.5398236827
O   O46       1.0  0.42053  0.05534  0.63481  1.0000 -0.2138716967
O   O47       1.0  0.46190  0.56755  0.10565  1.0000 -0.5398236827
O   O48       1.0  0.42053  0.78572  0.36519  1.0000 -0.2138716967
