# DDEC6 charges by PACMAN v1.1 (https://github.com/mtap-research/PACMAN-charge/)
data_2020[La][nan]3[ASR]1
_chemical_formula_sum              "La6 H16 C48 S8 O42"
_cell_length_a       7.1983
_cell_length_b       24.1419
_cell_length_c       11.8444
_cell_angle_alpha    90
_cell_angle_beta     92.53
_cell_angle_gamma    90

_symmetry_space_group_name_H-M    "P 1"
_symmetry_Int_Tables_number       1

loop_
  _symmetry_equiv_pos_as_xyz
  'x, y, z'

loop_
  _atom_site_type_symbol
  _atom_site_label
  _atom_site_symmetry_multiplicity
  _atom_site_fract_x
  _atom_site_fract_y
  _atom_site_fract_z
  _atom_site_occupancy
  _atom_site_charge
La  La1       1.0  0.28690  0.66667  0.57989  1.0000 2.0679188216
La  La2       1.0  0.45589  0.51115  0.75840  1.0000 2.014513179
La  La3       1.0  0.77855  0.38622  0.94559  1.0000 1.9557524168
La  La4       1.0  0.71310  0.16661  0.42011  1.0000 2.0679188216
La  La5       1.0  0.54411  0.01115  0.24160  1.0000 2.0154990398
La  La6       1.0  0.22145  0.88622  0.05441  1.0000 1.9506607496
H   H1        1.0  0.97790  0.34113  0.60377  1.0000 0.1405823721
H   H2        1.0  0.96119  0.31589  0.41931  1.0000 0.1306677305
H   H3        1.0  0.81074  0.47706  0.22190  1.0000 0.1405823721
H   H4        1.0  0.84909  0.59741  0.45308  1.0000 0.1405823721
H   H5        1.0  0.26227  0.55257  0.09935  1.0000 0.1489710444
H   H6        1.0  0.26930  0.57844  0.28936  1.0000 0.1405823721
H   H7        1.0  0.41614  0.41878  0.48320  1.0000 0.1405823721
H   H8        1.0  0.36240  0.29619  0.25467  1.0000 0.1489710444
H   H9        1.0  0.02210  0.84113  0.39623  1.0000 0.1489710444
H   H10       1.0  0.03881  0.81589  0.58069  1.0000 0.1306677305
H   H11       1.0  0.18926  0.97706  0.77810  1.0000 0.1405823721
H   H12       1.0  0.15091  0.09741  0.54692  1.0000 0.1405823721
H   H13       1.0  0.73773  0.05257  0.90065  1.0000 0.1489710444
H   H14       1.0  0.73070  0.07844  0.71064  1.0000 0.1405823721
H   H15       1.0  0.58386  0.91878  0.51680  1.0000 0.1405823721
H   H16       1.0  0.63760  0.79619  0.74533  1.0000 0.1489710444
C   C1        1.0  0.90380  0.42050  0.58440  1.0000 -0.0880953006
C   C2        1.0  0.94310  0.36750  0.54960  1.0000 -0.0658805796
C   C3        1.0  0.93260  0.35230  0.43780  1.0000 -0.0785088955
C   C4        1.0  0.88190  0.38830  0.35210  1.0000 -0.0785088955
C   C5        1.0  0.86280  0.44650  0.38120  1.0000 0.0746764013
C   C6        1.0  0.82800  0.48770  0.29710  1.0000 -0.099297729
C   C7        1.0  0.82110  0.54200  0.32430  1.0000 -0.0658805796
C   C8        1.0  0.85040  0.55980  0.43630  1.0000 -0.099297729
C   C9        1.0  0.88150  0.52130  0.52240  1.0000 -0.1179256185
C   C10       1.0  0.88040  0.46340  0.50010  1.0000 0.0497928674
C   C11       1.0  0.86710  0.42390  0.70390  1.0000 0.6131194078
C   C12       1.0  0.84960  0.36480  0.23770  1.0000 0.5772604191
C   C13       1.0  0.33030  0.47310  0.12230  1.0000 -0.0604734795
C   C14       1.0  0.29200  0.52620  0.15460  1.0000 -0.0604734795
C   C15       1.0  0.29700  0.54210  0.26980  1.0000 -0.0785088955
C   C16       1.0  0.34050  0.50440  0.35170  1.0000 -0.0604734795
C   C17       1.0  0.36270  0.44760  0.32120  1.0000 0.0596900576
C   C18       1.0  0.39780  0.40740  0.40850  1.0000 -0.1089039116
C   C19       1.0  0.40440  0.35140  0.38200  1.0000 -0.0604734795
C   C20       1.0  0.36930  0.33390  0.27080  1.0000 -0.0785088955
C   C21       1.0  0.34470  0.37190  0.18470  1.0000 -0.099297729
C   C22       1.0  0.34930  0.43060  0.20670  1.0000 0.0497928674
C   C23       1.0  0.37160  0.47100  0.99750  1.0000 0.6191727364
C   C24       1.0  0.36450  0.52920  0.47160  1.0000 0.6299094998
C   C25       1.0  0.09620  0.92050  0.41560  1.0000 -0.0880953006
C   C26       1.0  0.05690  0.86750  0.45040  1.0000 -0.0658805796
C   C27       1.0  0.06740  0.85230  0.56220  1.0000 -0.0785088955
C   C28       1.0  0.11810  0.88830  0.64790  1.0000 -0.0785088955
C   C29       1.0  0.13720  0.94650  0.61880  1.0000 0.0756378763
C   C30       1.0  0.17200  0.98770  0.70290  1.0000 -0.099297729
C   C31       1.0  0.17890  0.04200  0.67570  1.0000 -0.0658805796
C   C32       1.0  0.14960  0.05980  0.56370  1.0000 -0.099297729
C   C33       1.0  0.11850  0.02130  0.47760  1.0000 -0.1179256185
C   C34       1.0  0.11960  0.96340  0.49990  1.0000 0.0497928674
C   C35       1.0  0.13290  0.92390  0.29610  1.0000 0.6131194078
C   C36       1.0  0.15040  0.86480  0.76230  1.0000 0.5772604191
C   C37       1.0  0.66970  0.97310  0.87770  1.0000 -0.0604734795
C   C38       1.0  0.70800  0.02620  0.84540  1.0000 -0.0604734795
C   C39       1.0  0.70300  0.04210  0.73020  1.0000 -0.0785088955
C   C40       1.0  0.65950  0.00440  0.64830  1.0000 -0.0604734795
C   C41       1.0  0.63730  0.94760  0.67880  1.0000 0.0596900576
C   C42       1.0  0.60220  0.90740  0.59150  1.0000 -0.1089039116
C   C43       1.0  0.59560  0.85140  0.61800  1.0000 -0.0604734795
C   C44       1.0  0.63070  0.83390  0.72920  1.0000 -0.0785088955
C   C45       1.0  0.65530  0.87190  0.81530  1.0000 -0.099297729
C   C46       1.0  0.65070  0.93060  0.79330  1.0000 0.0497928674
C   C47       1.0  0.62840  0.97100  0.00250  1.0000 0.6191727364
C   C48       1.0  0.63550  0.02920  0.52840  1.0000 0.6299094998
S   S1        1.0  0.94180  0.55156  0.65540  1.0000 1.2519149625
S   S2        1.0  0.79480  0.59387  0.21870  1.0000 1.1522342407
S   S3        1.0  0.44600  0.30136  0.48800  1.0000 1.1806511127
S   S4        1.0  0.29330  0.34203  0.04850  1.0000 1.2267718756
S   S5        1.0  0.05820  0.05156  0.34460  1.0000 1.2519149625
S   S6        1.0  0.20520  0.09387  0.78130  1.0000 1.1522342407
S   S7        1.0  0.55400  0.80136  0.51200  1.0000 1.1806511127
S   S8        1.0  0.70670  0.84203  0.95150  1.0000 1.2267718756
O   O1        1.0  0.71060  0.44210  0.73680  1.0000 -0.7044781006
O   O2        1.0  0.97560  0.39940  0.77620  1.0000 -0.5722027974
O   O3        1.0  0.80660  0.39490  0.15520  1.0000 -0.6145458973
O   O4        1.0  0.85600  0.31290  0.22720  1.0000 -0.5270739949
O   O5        1.0  0.77090  0.55540  0.71860  1.0000 -0.6191368854
O   O6        1.0  0.08540  0.51680  0.70990  1.0000 -0.6005557335
O   O7        1.0  0.00500  0.60710  0.63030  1.0000 -0.6386049694
O   O8        1.0  0.95660  0.63060  0.23490  1.0000 -0.5722027974
O   O9        1.0  0.62590  0.62380  0.23910  1.0000 -0.5549447692
O   O10       1.0  0.79010  0.56580  0.11240  1.0000 -0.5615545517
O   O11       1.0  0.42900  0.50090  0.55210  1.0000 -0.5893334455
O   O12       1.0  0.31230  0.57890  0.48100  1.0000 -0.6274470842
O   O13       1.0  0.53060  0.45570  0.96990  1.0000 -0.6597044027
O   O14       1.0  0.25730  0.49200  0.92620  1.0000 -0.5722027974
O   O15       1.0  0.49540  0.33120  0.59070  1.0000 -0.5615545517
O   O16       1.0  0.27540  0.26910  0.49420  1.0000 -0.5893334455
O   O17       1.0  0.60120  0.26800  0.45060  1.0000 -0.7181567705
O   O18       1.0  0.46290  0.34520  0.98720  1.0000 -0.6597044027
O   O19       1.0  0.14280  0.37480  0.99580  1.0000 -0.6386049694
O   O20       1.0  0.24090  0.28510  0.06680  1.0000 -0.5270739949
O   O21       1.0  0.38390  0.60260  0.71970  1.0000 -1.2478826201
O   O22       1.0  0.28940  0.94210  0.26320  1.0000 -0.705492214
O   O23       1.0  0.02440  0.89940  0.22380  1.0000 -0.5722027974
O   O24       1.0  0.19340  0.89490  0.84480  1.0000 -0.6145458973
O   O25       1.0  0.14400  0.81290  0.77280  1.0000 -0.5270739949
O   O26       1.0  0.22910  0.05540  0.28140  1.0000 -0.6191368854
O   O27       1.0  0.91460  0.01680  0.29010  1.0000 -0.6005557335
O   O28       1.0  0.99500  0.10710  0.36970  1.0000 -0.6386049694
O   O29       1.0  0.04340  0.13060  0.76510  1.0000 -0.5722027974
O   O30       1.0  0.37410  0.12380  0.76090  1.0000 -0.5549447692
O   O31       1.0  0.20990  0.06580  0.88760  1.0000 -0.5615545517
O   O32       1.0  0.57100  0.00090  0.44790  1.0000 -0.5893334455
O   O33       1.0  0.68770  0.07890  0.51900  1.0000 -0.6274470842
O   O34       1.0  0.46940  0.95570  0.03010  1.0000 -0.6597044027
O   O35       1.0  0.74270  0.99200  0.07380  1.0000 -0.5722027974
O   O36       1.0  0.50460  0.83120  0.40930  1.0000 -0.5615545517
O   O37       1.0  0.72460  0.76910  0.50580  1.0000 -0.5893334455
O   O38       1.0  0.39880  0.76800  0.54940  1.0000 -0.7181567705
O   O39       1.0  0.53710  0.84520  0.01280  1.0000 -0.6597044027
O   O40       1.0  0.85720  0.87480  0.00420  1.0000 -0.6386049694
O   O41       1.0  0.75910  0.78510  0.93320  1.0000 -0.5270739949
O   O42       1.0  0.61610  0.10260  0.28030  1.0000 -1.2478826201
