# DDEC6 charges by PACMAN v1.1 (https://github.com/mtap-research/PACMAN-charge/)
data_2020[Cu][bcg]3[ASR]1
_chemical_formula_sum              "Cu6 H32 C64 O32"
_cell_length_a       17.3072
_cell_length_b       17.3072
_cell_length_c       18.4274
_cell_angle_alpha    88.6356
_cell_angle_beta     91.3644
_cell_angle_gamma    147.552

_symmetry_space_group_name_H-M    "P 1"
_symmetry_Int_Tables_number       1

loop_
  _symmetry_equiv_pos_as_xyz
  'x, y, z'

loop_
  _atom_site_type_symbol
  _atom_site_label
  _atom_site_symmetry_multiplicity
  _atom_site_fract_x
  _atom_site_fract_y
  _atom_site_fract_z
  _atom_site_occupancy
  _atom_site_charge
Cu  Cu1       1.0  0.55416  0.85948  0.50927  1.0000 0.9106722544
Cu  Cu2       1.0  0.85948  0.55416  0.99073  1.0000 0.9106722544
Cu  Cu3       1.0  0.44584  0.14052  0.49073  1.0000 0.9106722544
Cu  Cu4       1.0  0.14052  0.44584  0.00927  1.0000 0.9106722544
Cu  Cu5       1.0  0.50000  0.00000  0.50000  1.0000 0.9892176609
Cu  Cu6       1.0  0.00000  0.50000  0.00000  1.0000 0.9892176609
H   H1        1.0  0.74117  0.23759  0.32901  1.0000 0.1321495369
H   H2        1.0  0.85150  0.35106  0.21652  1.0000 0.1321495369
H   H3        1.0  0.90478  0.17032  0.19659  1.0000 0.1321495369
H   H4        1.0  0.78801  0.04781  0.30474  1.0000 0.136496223
H   H5        1.0  0.64376  0.69402  0.56912  1.0000 0.1321495369
H   H6        1.0  0.36799  0.44809  0.41097  1.0000 0.1321495369
H   H7        1.0  0.18739  0.67849  0.42045  1.0000 0.1321495369
H   H8        1.0  0.04094  0.47136  0.60976  1.0000 0.1240889648
H   H9        1.0  0.23759  0.74117  0.17099  1.0000 0.1321495369
H   H10       1.0  0.35106  0.85150  0.28348  1.0000 0.1321495369
H   H11       1.0  0.17032  0.90478  0.30341  1.0000 0.1321495369
H   H12       1.0  0.04781  0.78801  0.19526  1.0000 0.136496223
H   H13       1.0  0.69402  0.64376  0.93088  1.0000 0.1321495369
H   H14       1.0  0.44809  0.36799  0.08903  1.0000 0.1321495369
H   H15       1.0  0.67849  0.18739  0.07955  1.0000 0.1321495369
H   H16       1.0  0.47136  0.04094  0.89024  1.0000 0.1240889648
H   H17       1.0  0.25883  0.76241  0.67099  1.0000 0.1321495369
H   H18       1.0  0.14850  0.64894  0.78348  1.0000 0.1321495369
H   H19       1.0  0.09522  0.82968  0.80341  1.0000 0.1321495369
H   H20       1.0  0.21199  0.95219  0.69526  1.0000 0.136496223
H   H21       1.0  0.35624  0.30598  0.43088  1.0000 0.1321495369
H   H22       1.0  0.63201  0.55191  0.58903  1.0000 0.1321495369
H   H23       1.0  0.81261  0.32151  0.57955  1.0000 0.1321495369
H   H24       1.0  0.95906  0.52864  0.39024  1.0000 0.1240889648
H   H25       1.0  0.76241  0.25883  0.82901  1.0000 0.1321495369
H   H26       1.0  0.64894  0.14850  0.71652  1.0000 0.1321495369
H   H27       1.0  0.82968  0.09522  0.69659  1.0000 0.1321495369
H   H28       1.0  0.95219  0.21199  0.80474  1.0000 0.136496223
H   H29       1.0  0.30598  0.35624  0.06912  1.0000 0.1321495369
H   H30       1.0  0.55191  0.63201  0.91097  1.0000 0.1321495369
H   H31       1.0  0.32151  0.81261  0.92045  1.0000 0.1321495369
H   H32       1.0  0.52864  0.95906  0.10976  1.0000 0.1240889648
C   C1        1.0  0.68990  0.06350  0.40170  1.0000 0.5977477253
C   C2        1.0  0.75920  0.13560  0.32950  1.0000 -0.0005447103
C   C3        1.0  0.77380  0.22360  0.30260  1.0000 -0.0901873439
C   C4        1.0  0.83960  0.29080  0.23450  1.0000 -0.0901873439
C   C5        1.0  0.88620  0.27040  0.19430  1.0000 -0.023346188
C   C6        1.0  0.86990  0.18210  0.22260  1.0000 -0.0901873439
C   C7        1.0  0.80310  0.11110  0.28840  1.0000 -0.0964386803
C   C8        1.0  0.95710  0.34370  0.12290  1.0000 0.5977477253
C   C9        1.0  0.48680  0.65920  0.48770  1.0000 0.5422657947
C   C10       1.0  0.49250  0.57550  0.49380  1.0000 -0.0059739216
C   C11       1.0  0.58030  0.61170  0.54130  1.0000 -0.082889617
C   C12       1.0  0.42020  0.46980  0.44930  1.0000 -0.0901873439
C   C13       1.0  0.28640  0.68440  0.53760  1.0000 0.5790003161
C   C14       1.0  0.13850  0.59170  0.51820  1.0000 0.0130646611
C   C15       1.0  0.11220  0.60680  0.45280  1.0000 -0.0901873439
C   C16       1.0  0.02490  0.48350  0.56550  1.0000 -0.0964386803
C   C17       1.0  0.06350  0.68990  0.09830  1.0000 0.5977477253
C   C18       1.0  0.13560  0.75920  0.17050  1.0000 -0.0005447103
C   C19       1.0  0.22360  0.77380  0.19740  1.0000 -0.082889617
C   C20       1.0  0.29080  0.83960  0.26550  1.0000 -0.0901873439
C   C21       1.0  0.27040  0.88620  0.30570  1.0000 -0.023346188
C   C22       1.0  0.18210  0.86990  0.27740  1.0000 -0.0901873439
C   C23       1.0  0.11110  0.80310  0.21160  1.0000 -0.0964386803
C   C24       1.0  0.34370  0.95710  0.37710  1.0000 0.5977477253
C   C25       1.0  0.65920  0.48680  0.01230  1.0000 0.5422657947
C   C26       1.0  0.57550  0.49250  0.00620  1.0000 -0.0059739216
C   C27       1.0  0.61170  0.58030  0.95870  1.0000 -0.082889617
C   C28       1.0  0.46980  0.42020  0.05070  1.0000 -0.0901873439
C   C29       1.0  0.68440  0.28640  0.96240  1.0000 0.5790003161
C   C30       1.0  0.59170  0.13850  0.98180  1.0000 0.0130646611
C   C31       1.0  0.60680  0.11220  0.04720  1.0000 -0.0901873439
C   C32       1.0  0.48350  0.02490  0.93450  1.0000 -0.0964386803
C   C33       1.0  0.31010  0.93650  0.59830  1.0000 0.5946486811
C   C34       1.0  0.24080  0.86440  0.67050  1.0000 -0.0005447103
C   C35       1.0  0.22620  0.77640  0.69740  1.0000 -0.082889617
C   C36       1.0  0.16040  0.70920  0.76550  1.0000 -0.0901873439
C   C37       1.0  0.11380  0.72960  0.80570  1.0000 -0.023346188
C   C38       1.0  0.13010  0.81790  0.77740  1.0000 -0.0901873439
C   C39       1.0  0.19690  0.88890  0.71160  1.0000 -0.0964386803
C   C40       1.0  0.04290  0.65630  0.87710  1.0000 0.5977477253
C   C41       1.0  0.51320  0.34080  0.51230  1.0000 0.5422657947
C   C42       1.0  0.50750  0.42450  0.50620  1.0000 -0.0059739216
C   C43       1.0  0.41970  0.38830  0.45870  1.0000 -0.082889617
C   C44       1.0  0.57980  0.53020  0.55070  1.0000 -0.0901873439
C   C45       1.0  0.71360  0.31560  0.46240  1.0000 0.5790003161
C   C46       1.0  0.86150  0.40830  0.48180  1.0000 0.0130646611
C   C47       1.0  0.88780  0.39320  0.54720  1.0000 -0.0901873439
C   C48       1.0  0.97510  0.51650  0.43450  1.0000 -0.0964386803
C   C49       1.0  0.93650  0.31010  0.90170  1.0000 0.5946486811
C   C50       1.0  0.86440  0.24080  0.82950  1.0000 -0.0005447103
C   C51       1.0  0.77640  0.22620  0.80260  1.0000 -0.0901873439
C   C52       1.0  0.70920  0.16040  0.73450  1.0000 -0.0901873439
C   C53       1.0  0.72960  0.11380  0.69430  1.0000 -0.023346188
C   C54       1.0  0.81790  0.13010  0.72260  1.0000 -0.0901873439
C   C55       1.0  0.88890  0.19690  0.78840  1.0000 -0.0964386803
C   C56       1.0  0.65630  0.04290  0.62290  1.0000 0.5977477253
C   C57       1.0  0.34080  0.51320  0.98770  1.0000 0.5422657947
C   C58       1.0  0.42450  0.50750  0.99380  1.0000 -0.0059739216
C   C59       1.0  0.38830  0.41970  0.04130  1.0000 -0.082889617
C   C60       1.0  0.53020  0.57980  0.94930  1.0000 -0.0901873439
C   C61       1.0  0.31560  0.71360  0.03760  1.0000 0.5790003161
C   C62       1.0  0.40830  0.86150  0.01820  1.0000 0.0130646611
C   C63       1.0  0.39320  0.88780  0.95280  1.0000 -0.0901873439
C   C64       1.0  0.51650  0.97510  0.06550  1.0000 -0.0964386803
O   O1        1.0  0.66781  0.10119  0.44030  1.0000 -0.5511710425
O   O2        1.0  0.65940  0.96800  0.41820  1.0000 -0.5181159009
O   O3        1.0  0.95560  0.40960  0.09830  1.0000 -0.5357436915
O   O4        1.0  0.01160  0.33200  0.09290  1.0000 -0.5181159009
O   O5        1.0  0.41060  0.62540  0.43710  1.0000 -0.4379238268
O   O6        1.0  0.55740  0.75180  0.52590  1.0000 -0.3887775992
O   O7        1.0  0.30390  0.65930  0.59060  1.0000 -0.4729695847
O   O8        1.0  0.38913  0.79187  0.49440  1.0000 -0.6113029947
O   O9        1.0  0.10119  0.66781  0.05970  1.0000 -0.5511710425
O   O10       1.0  0.96800  0.65940  0.08180  1.0000 -0.5181159009
O   O11       1.0  0.40960  0.95560  0.40170  1.0000 -0.5357436915
O   O12       1.0  0.33200  0.01160  0.40710  1.0000 -0.5181159009
O   O13       1.0  0.62540  0.41060  0.06290  1.0000 -0.4379238268
O   O14       1.0  0.75180  0.55740  0.97410  1.0000 -0.3887775992
O   O15       1.0  0.65930  0.30390  0.90940  1.0000 -0.4729695847
O   O16       1.0  0.79187  0.38913  0.00560  1.0000 -0.6113029947
O   O17       1.0  0.33219  0.89881  0.55970  1.0000 -0.5511710425
O   O18       1.0  0.34060  0.03200  0.58180  1.0000 -0.5181159009
O   O19       1.0  0.04440  0.59040  0.90170  1.0000 -0.5357436915
O   O20       1.0  0.98840  0.66800  0.90710  1.0000 -0.5181159009
O   O21       1.0  0.58940  0.37460  0.56290  1.0000 -0.4379238268
O   O22       1.0  0.44260  0.24820  0.47410  1.0000 -0.3887775992
O   O23       1.0  0.69610  0.34070  0.40940  1.0000 -0.4729695847
O   O24       1.0  0.61087  0.20813  0.50560  1.0000 -0.6113029947
O   O25       1.0  0.89881  0.33219  0.94030  1.0000 -0.5511710425
O   O26       1.0  0.03200  0.34060  0.91820  1.0000 -0.5181159009
O   O27       1.0  0.59040  0.04440  0.59830  1.0000 -0.5357436915
O   O28       1.0  0.66800  0.98840  0.59290  1.0000 -0.5181159009
O   O29       1.0  0.37460  0.58940  0.93710  1.0000 -0.4379238268
O   O30       1.0  0.24820  0.44260  0.02590  1.0000 -0.3887775992
O   O31       1.0  0.34070  0.69610  0.09060  1.0000 -0.4729695847
O   O32       1.0  0.20813  0.61087  0.99440  1.0000 -0.6113029947
