# DDEC6 charges by PACMAN v1.1 (https://github.com/mtap-research/PACMAN-charge/)
data_2020[Zn][sql]2[ASR]16
_chemical_formula_sum              "Zn2 H22 C44 O8"
_cell_length_a       6.7928
_cell_length_b       15.7784
_cell_length_c       11.1776
_cell_angle_alpha    90
_cell_angle_beta     102.86
_cell_angle_gamma    90

_symmetry_space_group_name_H-M    "P 1"
_symmetry_Int_Tables_number       1

loop_
  _symmetry_equiv_pos_as_xyz
  'x, y, z'

loop_
  _atom_site_type_symbol
  _atom_site_label
  _atom_site_symmetry_multiplicity
  _atom_site_fract_x
  _atom_site_fract_y
  _atom_site_fract_z
  _atom_site_occupancy
  _atom_site_charge
Zn  Zn1       1.0  0.12932  0.50000  0.41094  1.0000 0.9127970396
Zn  Zn2       1.0  0.87068  0.50000  0.58906  1.0000 0.9127970396
H   H1        1.0  0.89556  0.73758  0.22917  1.0000 0.1190436205
H   H2        1.0  0.73255  0.86047  0.15124  1.0000 0.1134418754
H   H3        1.0  0.26855  0.79912  0.30257  1.0000 0.1190436205
H   H4        1.0  0.43789  0.67920  0.38649  1.0000 0.126566319
H   H5        1.0  0.15132  0.79287  0.06983  1.0000 0.1134418754
H   H6        1.0  0.10444  0.73758  0.77083  1.0000 0.1190436205
H   H7        1.0  0.26745  0.86047  0.84876  1.0000 0.1134418754
H   H8        1.0  0.73145  0.79912  0.69743  1.0000 0.1190436205
H   H9        1.0  0.56211  0.67920  0.61351  1.0000 0.126566319
H   H10       1.0  0.84868  0.79287  0.93017  1.0000 0.1134418754
H   H11       1.0  0.10444  0.26242  0.77083  1.0000 0.1190436205
H   H12       1.0  0.26745  0.13953  0.84876  1.0000 0.1134418754
H   H13       1.0  0.73145  0.20088  0.69743  1.0000 0.1190436205
H   H14       1.0  0.56211  0.32080  0.61351  1.0000 0.126566319
H   H15       1.0  0.84868  0.20713  0.93017  1.0000 0.1134418754
H   H16       1.0  0.89556  0.26242  0.22917  1.0000 0.1190436205
H   H17       1.0  0.73255  0.13953  0.15124  1.0000 0.1134418754
H   H18       1.0  0.26855  0.20088  0.30257  1.0000 0.1190436205
H   H19       1.0  0.43789  0.32080  0.38649  1.0000 0.126566319
H   H20       1.0  0.15132  0.20713  0.06983  1.0000 0.1134418754
H   H21       1.0  0.60109  0.00000  0.25562  1.0000 0.126566319
H   H22       1.0  0.39891  0.00000  0.74438  1.0000 0.126566319
C   C1        1.0  0.79700  0.61894  0.37320  1.0000 0.5876973329
C   C2        1.0  0.68460  0.69564  0.31570  1.0000 -0.0327516662
C   C3        1.0  0.77020  0.75040  0.24500  1.0000 -0.0984792279
C   C4        1.0  0.67200  0.82390  0.19760  1.0000 -0.147918904
C   C5        1.0  0.48320  0.84341  0.21890  1.0000 0.0787926523
C   C6        1.0  0.39600  0.78750  0.28890  1.0000 -0.1439635323
C   C7        1.0  0.49630  0.71510  0.33820  1.0000 -0.088663006
C   C8        1.0  0.37940  0.92356  0.16870  1.0000 0.0196390611
C   C9        1.0  0.18770  0.92140  0.08510  1.0000 0.0196390611
C   C10       1.0  0.09080  0.84412  0.04160  1.0000 -0.1576066332
C   C11       1.0  0.20300  0.61894  0.62680  1.0000 0.5876973329
C   C12       1.0  0.31540  0.69564  0.68430  1.0000 -0.0327516662
C   C13       1.0  0.22980  0.75040  0.75500  1.0000 -0.0984792279
C   C14       1.0  0.32800  0.82390  0.80240  1.0000 -0.147918904
C   C15       1.0  0.51680  0.84341  0.78110  1.0000 0.0787926523
C   C16       1.0  0.60400  0.78750  0.71110  1.0000 -0.1439635323
C   C17       1.0  0.50370  0.71510  0.66180  1.0000 -0.088663006
C   C18       1.0  0.62060  0.92356  0.83130  1.0000 0.0196390611
C   C19       1.0  0.81230  0.92140  0.91490  1.0000 0.0196390611
C   C20       1.0  0.90920  0.84412  0.95840  1.0000 -0.1576066332
C   C21       1.0  0.20300  0.38106  0.62680  1.0000 0.5876973329
C   C22       1.0  0.31540  0.30436  0.68430  1.0000 -0.0327516662
C   C23       1.0  0.22980  0.24960  0.75500  1.0000 -0.0984792279
C   C24       1.0  0.32800  0.17610  0.80240  1.0000 -0.147918904
C   C25       1.0  0.51680  0.15659  0.78110  1.0000 0.0787926523
C   C26       1.0  0.60400  0.21250  0.71110  1.0000 -0.1439635323
C   C27       1.0  0.50370  0.28490  0.66180  1.0000 -0.088663006
C   C28       1.0  0.62060  0.07644  0.83130  1.0000 0.0196390611
C   C29       1.0  0.81230  0.07860  0.91490  1.0000 0.0196390611
C   C30       1.0  0.90920  0.15588  0.95840  1.0000 -0.1576066332
C   C31       1.0  0.79700  0.38106  0.37320  1.0000 0.5876973329
C   C32       1.0  0.68460  0.30436  0.31570  1.0000 -0.0327516662
C   C33       1.0  0.77020  0.24960  0.24500  1.0000 -0.0984792279
C   C34       1.0  0.67200  0.17610  0.19760  1.0000 -0.147918904
C   C35       1.0  0.48320  0.15659  0.21890  1.0000 0.0787926523
C   C36       1.0  0.39600  0.21250  0.28890  1.0000 -0.1439635323
C   C37       1.0  0.49630  0.28490  0.33820  1.0000 -0.088663006
C   C38       1.0  0.37940  0.07644  0.16870  1.0000 0.0196390611
C   C39       1.0  0.18770  0.07860  0.08510  1.0000 0.0196390611
C   C40       1.0  0.09080  0.15588  0.04160  1.0000 -0.1576066332
C   C41       1.0  0.47220  0.00000  0.20510  1.0000 -0.1835227998
C   C42       1.0  0.09510  0.00000  0.04370  1.0000 -0.0148688795
C   C43       1.0  0.52780  0.00000  0.79490  1.0000 -0.1835227998
C   C44       1.0  0.90490  0.00000  0.95630  1.0000 -0.0148688795
O   O1        1.0  0.73880  0.58644  0.45960  1.0000 -0.5211652459
O   O2        1.0  0.94370  0.59381  0.33333  1.0000 -0.5272430422
O   O3        1.0  0.26120  0.58644  0.54040  1.0000 -0.5211652459
O   O4        1.0  0.05630  0.59381  0.66667  1.0000 -0.5272430422
O   O5        1.0  0.26120  0.41356  0.54040  1.0000 -0.5211652459
O   O6        1.0  0.05630  0.40619  0.66667  1.0000 -0.5272430422
O   O7        1.0  0.73880  0.41356  0.45960  1.0000 -0.5211652459
O   O8        1.0  0.94370  0.40619  0.33333  1.0000 -0.5272430422
