# DDEC6 charges by PACMAN v1.1 (https://github.com/mtap-research/PACMAN-charge/)
data_2020[Cu][nan]2[ASR]7
_chemical_formula_sum              "Cu4 H68 C88 I4 N12 O4"
_cell_length_a       13.7975
_cell_length_b       13.7975
_cell_length_c       18.18
_cell_angle_alpha    68.2603
_cell_angle_beta     111.74
_cell_angle_gamma    129.138

_symmetry_space_group_name_H-M    "P 1"
_symmetry_Int_Tables_number       1

loop_
  _symmetry_equiv_pos_as_xyz
  'x, y, z'

loop_
  _atom_site_type_symbol
  _atom_site_label
  _atom_site_symmetry_multiplicity
  _atom_site_fract_x
  _atom_site_fract_y
  _atom_site_fract_z
  _atom_site_occupancy
  _atom_site_charge
Cu  Cu1       1.0  0.55337  0.55109  0.56258  1.0000 0.1988760091
Cu  Cu2       1.0  0.55109  0.55337  0.93742  1.0000 0.1988760091
Cu  Cu3       1.0  0.44663  0.44891  0.43742  1.0000 0.1988760091
Cu  Cu4       1.0  0.44891  0.44663  0.06258  1.0000 0.1988760091
H   H1        1.0  0.81407  0.14873  0.60641  1.0000 0.1199753713
H   H2        1.0  0.46806  0.70938  0.44244  1.0000 0.1018022432
H   H3        1.0  0.78389  0.43085  0.44452  1.0000 0.1199753713
H   H4        1.0  0.52559  0.91701  0.41054  1.0000 0.12969345
H   H5        1.0  0.68608  0.75356  0.65606  1.0000 0.110948561
H   H6        1.0  0.51626  0.13750  0.28677  1.0000 0.12969345
H   H7        1.0  0.74999  0.96209  0.63234  1.0000 0.1199753713
H   H8        1.0  0.59788  0.53426  0.21778  1.0000 0.1018022432
H   H9        1.0  0.43854  0.20756  0.16010  1.0000 0.1018022432
H   H10       1.0  0.66964  0.46916  0.34487  1.0000 0.12969345
H   H11       1.0  0.87960  0.52292  0.54572  1.0000 0.110948561
H   H12       1.0  0.98595  0.28979  0.66253  1.0000 0.110948561
H   H13       1.0  0.12682  0.41726  0.75996  1.0000 0.12969345
H   H14       1.0  0.02922  0.65850  0.63852  1.0000 0.1199753713
H   H15       1.0  0.25805  0.78023  0.80244  1.0000 0.1199753713
H   H16       1.0  0.25391  0.80339  0.70863  1.0000 0.1199753713
H   H17       1.0  0.12693  0.73903  0.73927  1.0000 0.110948561
H   H18       1.0  0.14873  0.81407  0.89359  1.0000 0.1199753713
H   H19       1.0  0.70938  0.46806  0.05756  1.0000 0.1018022432
H   H20       1.0  0.43085  0.78389  0.05548  1.0000 0.1199753713
H   H21       1.0  0.91701  0.52559  0.08946  1.0000 0.12969345
H   H22       1.0  0.75356  0.68608  0.84394  1.0000 0.110948561
H   H23       1.0  0.13750  0.51626  0.21323  1.0000 0.12969345
H   H24       1.0  0.96209  0.74999  0.86766  1.0000 0.1199753713
H   H25       1.0  0.53426  0.59788  0.28222  1.0000 0.1018022432
H   H26       1.0  0.20756  0.43854  0.33990  1.0000 0.1018022432
H   H27       1.0  0.46916  0.66964  0.15513  1.0000 0.12969345
H   H28       1.0  0.52292  0.87960  0.95428  1.0000 0.110948561
H   H29       1.0  0.28979  0.98595  0.83747  1.0000 0.110948561
H   H30       1.0  0.41726  0.12682  0.74004  1.0000 0.12969345
H   H31       1.0  0.65850  0.02922  0.86148  1.0000 0.1199753713
H   H32       1.0  0.78023  0.25805  0.69756  1.0000 0.1199753713
H   H33       1.0  0.80339  0.25391  0.79137  1.0000 0.1199753713
H   H34       1.0  0.73903  0.12693  0.76073  1.0000 0.110948561
H   H35       1.0  0.18593  0.85127  0.39359  1.0000 0.1199753713
H   H36       1.0  0.53194  0.29062  0.55756  1.0000 0.1018022432
H   H37       1.0  0.21611  0.56915  0.55548  1.0000 0.1199753713
H   H38       1.0  0.47441  0.08299  0.58946  1.0000 0.12969345
H   H39       1.0  0.31392  0.24644  0.34394  1.0000 0.110948561
H   H40       1.0  0.48374  0.86250  0.71323  1.0000 0.12969345
H   H41       1.0  0.25001  0.03791  0.36766  1.0000 0.1199753713
H   H42       1.0  0.40212  0.46574  0.78222  1.0000 0.1018022432
H   H43       1.0  0.56146  0.79244  0.83990  1.0000 0.1018022432
H   H44       1.0  0.33036  0.53084  0.65513  1.0000 0.12969345
H   H45       1.0  0.12040  0.47708  0.45428  1.0000 0.110948561
H   H46       1.0  0.01405  0.71021  0.33747  1.0000 0.110948561
H   H47       1.0  0.87318  0.58274  0.24004  1.0000 0.12969345
H   H48       1.0  0.97078  0.34150  0.36148  1.0000 0.1199753713
H   H49       1.0  0.74195  0.21977  0.19756  1.0000 0.1199753713
H   H50       1.0  0.74609  0.19661  0.29137  1.0000 0.1199753713
H   H51       1.0  0.87307  0.26097  0.26073  1.0000 0.110948561
H   H52       1.0  0.85127  0.18593  0.10641  1.0000 0.1199753713
H   H53       1.0  0.29062  0.53194  0.94244  1.0000 0.1018022432
H   H54       1.0  0.56915  0.21611  0.94452  1.0000 0.1199753713
H   H55       1.0  0.08299  0.47441  0.91054  1.0000 0.12969345
H   H56       1.0  0.24644  0.31392  0.15606  1.0000 0.110948561
H   H57       1.0  0.86250  0.48374  0.78677  1.0000 0.12969345
H   H58       1.0  0.03791  0.25001  0.13234  1.0000 0.12969345
H   H59       1.0  0.46574  0.40212  0.71778  1.0000 0.1018022432
H   H60       1.0  0.79244  0.56146  0.66010  1.0000 0.1018022432
H   H61       1.0  0.53084  0.33036  0.84487  1.0000 0.12969345
H   H62       1.0  0.47708  0.12040  0.04572  1.0000 0.110948561
H   H63       1.0  0.71021  0.01405  0.16253  1.0000 0.110948561
H   H64       1.0  0.58274  0.87318  0.25996  1.0000 0.12969345
H   H65       1.0  0.34150  0.97078  0.13852  1.0000 0.1199753713
H   H66       1.0  0.21977  0.74195  0.30244  1.0000 0.1199753713
H   H67       1.0  0.19661  0.74609  0.20863  1.0000 0.1199753713
H   H68       1.0  0.26097  0.87307  0.23927  1.0000 0.110948561
C   C1        1.0  0.61140  0.29860  0.33150  1.0000 0.0780286796
C   C2        1.0  0.77940  0.18060  0.55600  1.0000 -0.2640472941
C   C3        1.0  0.52870  0.76310  0.48070  1.0000 0.1018022432
C   C4        1.0  0.76050  0.34590  0.46070  1.0000 -0.222480125
C   C5        1.0  0.81950  0.30910  0.53500  1.0000 0.12969345
C   C6        1.0  0.91810  0.39230  0.59370  1.0000 0.0353046905
C   C7        1.0  0.66740  0.25860  0.41030  1.0000 0.1939676411
C   C8        1.0  0.56090  0.88710  0.46160  1.0000 -0.1795248233
C   C9        1.0  0.65550  0.78870  0.60530  1.0000 0.0519700551
C   C10       1.0  0.53550  0.22070  0.27340  1.0000 -0.1795248233
C   C11       1.0  0.64590  0.96690  0.51850  1.0000 0.0892351706
C   C12       1.0  0.68530  0.10110  0.49940  1.0000 0.219662207
C   C13       1.0  0.69220  0.91280  0.59140  1.0000 -0.1890965879
C   C14       1.0  0.58020  0.45180  0.23160  1.0000 0.0519700551
C   C15       1.0  0.48860  0.26320  0.19760  1.0000 0.0640907668
C   C16       1.0  0.62600  0.41480  0.30710  1.0000 -0.172488182
C   C17       1.0  0.93140  0.50060  0.58860  1.0000 -0.1217781801
C   C18       1.0  0.08920  0.55180  0.70420  1.0000 0.219662207
C   C19       1.0  0.99230  0.36470  0.65710  1.0000 -0.1411094807
C   C20       1.0  0.07790  0.44070  0.71490  1.0000 -0.199026148
C   C21       1.0  0.02020  0.58180  0.64470  1.0000 -0.199026148
C   C22       1.0  0.20620  0.74580  0.75270  1.0000 -0.24492447
C   C23       1.0  0.29860  0.61140  0.16850  1.0000 0.0780286796
C   C24       1.0  0.18060  0.77940  0.94400  1.0000 -0.2640472941
C   C25       1.0  0.76310  0.52870  0.01930  1.0000 0.1018022432
C   C26       1.0  0.34590  0.76050  0.03930  1.0000 -0.222480125
C   C27       1.0  0.30910  0.81950  0.96500  1.0000 0.12969345
C   C28       1.0  0.39230  0.91810  0.90630  1.0000 0.0353046905
C   C29       1.0  0.25860  0.66740  0.08970  1.0000 0.1939676411
C   C30       1.0  0.88710  0.56090  0.03840  1.0000 -0.1795248233
C   C31       1.0  0.78870  0.65550  0.89470  1.0000 0.0519700551
C   C32       1.0  0.22070  0.53550  0.22660  1.0000 -0.1795248233
C   C33       1.0  0.96690  0.64590  0.98150  1.0000 0.0892351706
C   C34       1.0  0.10110  0.68530  0.00060  1.0000 0.219662207
C   C35       1.0  0.91280  0.69220  0.90860  1.0000 -0.1890965879
C   C36       1.0  0.45180  0.58020  0.26840  1.0000 0.0519700551
C   C37       1.0  0.26320  0.48860  0.30240  1.0000 0.0640907668
C   C38       1.0  0.41480  0.62600  0.19290  1.0000 -0.172488182
C   C39       1.0  0.50060  0.93140  0.91140  1.0000 -0.1217781801
C   C40       1.0  0.55180  0.08920  0.79580  1.0000 0.219662207
C   C41       1.0  0.36470  0.99230  0.84290  1.0000 -0.1411094807
C   C42       1.0  0.44070  0.07790  0.78510  1.0000 -0.199026148
C   C43       1.0  0.58180  0.02020  0.85530  1.0000 -0.199026148
C   C44       1.0  0.74580  0.20620  0.74730  1.0000 -0.24492447
C   C45       1.0  0.38860  0.70140  0.66850  1.0000 0.0780286796
C   C46       1.0  0.22060  0.81940  0.44400  1.0000 -0.2640472941
C   C47       1.0  0.47130  0.23690  0.51930  1.0000 0.1018022432
C   C48       1.0  0.23950  0.65410  0.53930  1.0000 -0.222480125
C   C49       1.0  0.18050  0.69090  0.46500  1.0000 0.12969345
C   C50       1.0  0.08190  0.60770  0.40630  1.0000 0.0353046905
C   C51       1.0  0.33260  0.74140  0.58970  1.0000 0.1939676411
C   C52       1.0  0.43910  0.11290  0.53840  1.0000 -0.1795248233
C   C53       1.0  0.34450  0.21130  0.39470  1.0000 0.0519700551
C   C54       1.0  0.46450  0.77930  0.72660  1.0000 -0.1795248233
C   C55       1.0  0.35410  0.03310  0.48150  1.0000 0.0892351706
C   C56       1.0  0.31470  0.89890  0.50060  1.0000 0.219662207
C   C57       1.0  0.30780  0.08720  0.40860  1.0000 -0.1890965879
C   C58       1.0  0.41980  0.54820  0.76840  1.0000 0.0519700551
C   C59       1.0  0.51140  0.73680  0.80240  1.0000 0.0640907668
C   C60       1.0  0.37400  0.58520  0.69290  1.0000 -0.172488182
C   C61       1.0  0.06860  0.49940  0.41140  1.0000 -0.1217781801
C   C62       1.0  0.91080  0.44820  0.29580  1.0000 0.219662207
C   C63       1.0  0.00770  0.63530  0.34290  1.0000 -0.1411094807
C   C64       1.0  0.92210  0.55930  0.28510  1.0000 -0.199026148
C   C65       1.0  0.97980  0.41820  0.35530  1.0000 -0.199026148
C   C66       1.0  0.79380  0.25420  0.24730  1.0000 -0.24492447
C   C67       1.0  0.70140  0.38860  0.83150  1.0000 0.0780286796
C   C68       1.0  0.81940  0.22060  0.05600  1.0000 -0.2640472941
C   C69       1.0  0.23690  0.47130  0.98070  1.0000 0.1018022432
C   C70       1.0  0.65410  0.23950  0.96070  1.0000 -0.222480125
C   C71       1.0  0.69090  0.18050  0.03500  1.0000 0.12969345
C   C72       1.0  0.60770  0.08190  0.09370  1.0000 0.0353046905
C   C73       1.0  0.74140  0.33260  0.91030  1.0000 0.1939676411
C   C74       1.0  0.11290  0.43910  0.96160  1.0000 -0.1795248233
C   C75       1.0  0.21130  0.34450  0.10530  1.0000 0.0519700551
C   C76       1.0  0.77930  0.46450  0.77340  1.0000 -0.1795248233
C   C77       1.0  0.03310  0.35410  0.01850  1.0000 0.0892351706
C   C78       1.0  0.89890  0.31470  0.99940  1.0000 0.219662207
C   C79       1.0  0.08720  0.30780  0.09140  1.0000 -0.1890965879
C   C80       1.0  0.54820  0.41980  0.73160  1.0000 0.0519700551
C   C81       1.0  0.73680  0.51140  0.69760  1.0000 0.0640907668
C   C82       1.0  0.58520  0.37400  0.80710  1.0000 -0.172488182
C   C83       1.0  0.49940  0.06860  0.08860  1.0000 -0.1217781801
C   C84       1.0  0.44820  0.91080  0.20420  1.0000 0.219662207
C   C85       1.0  0.63530  0.00770  0.15710  1.0000 -0.1411094807
C   C86       1.0  0.55930  0.92210  0.21490  1.0000 -0.199026148
C   C87       1.0  0.41820  0.97980  0.14470  1.0000 -0.199026148
C   C88       1.0  0.25420  0.79380  0.25270  1.0000 -0.24492447
I   I1        1.0  0.69917  0.62165  0.46377  1.0000 -0.449308797
I   I2        1.0  0.62165  0.69917  0.03623  1.0000 -0.449308797
I   I3        1.0  0.30083  0.37835  0.53623  1.0000 -0.449308797
I   I4        1.0  0.37835  0.30083  0.96377  1.0000 -0.449308797
N   N1        1.0  0.63220  0.13840  0.42940  1.0000 -0.3181821249
N   N2        1.0  0.57650  0.71730  0.54730  1.0000 -0.172488182
N   N3        1.0  0.50900  0.37980  0.17250  1.0000 -0.199026148
N   N4        1.0  0.13840  0.63220  0.07060  1.0000 -0.3181821249
N   N5        1.0  0.71730  0.57650  0.95270  1.0000 -0.172488182
N   N6        1.0  0.37980  0.50900  0.32750  1.0000 -0.199026148
N   N7        1.0  0.36780  0.86160  0.57060  1.0000 -0.3181821249
N   N8        1.0  0.42350  0.28270  0.45270  1.0000 -0.172488182
N   N9        1.0  0.49100  0.62020  0.82750  1.0000 -0.199026148
N   N10       1.0  0.86160  0.36780  0.92940  1.0000 -0.3181821249
N   N11       1.0  0.28270  0.42350  0.04730  1.0000 -0.172488182
N   N12       1.0  0.62020  0.49100  0.67250  1.0000 -0.199026148
O   O1        1.0  0.17830  0.62130  0.76430  1.0000 -0.172488182
O   O2        1.0  0.62130  0.17830  0.73570  1.0000 -0.172488182
O   O3        1.0  0.82170  0.37870  0.23570  1.0000 -0.172488182
O   O4        1.0  0.37870  0.82170  0.26430  1.0000 -0.172488182
