# DDEC6 charges by PACMAN v1.1 (https://github.com/mtap-research/PACMAN-charge/)
data_2020[Co][nan]2[ASR]8
_chemical_formula_sum              "Co4 H36 C52 N8 O16"
_cell_length_a       11.303
_cell_length_b       7.793
_cell_length_c       15.916
_cell_angle_alpha    90
_cell_angle_beta     105.872
_cell_angle_gamma    90

_symmetry_space_group_name_H-M    "P 1"
_symmetry_Int_Tables_number       1

loop_
  _symmetry_equiv_pos_as_xyz
  'x, y, z'

loop_
  _atom_site_type_symbol
  _atom_site_label
  _atom_site_symmetry_multiplicity
  _atom_site_fract_x
  _atom_site_fract_y
  _atom_site_fract_z
  _atom_site_occupancy
  _atom_site_charge
Co  Co1       1.0  0.20046  0.51184  0.81398  1.0000 0.8072002098
Co  Co2       1.0  0.79954  0.01184  0.68602  1.0000 0.8072002098
Co  Co3       1.0  0.79954  0.48816  0.18602  1.0000 0.8072002098
Co  Co4       1.0  0.20046  0.98816  0.31398  1.0000 0.8072002098
H   H1        1.0  0.00362  0.03316  0.36169  1.0000 0.3131315947
H   H2        1.0  0.99609  0.14915  0.29005  1.0000 0.3131315947
H   H3        1.0  0.19204  0.60964  0.55616  1.0000 0.1196476386
H   H4        1.0  0.09879  0.42284  0.31086  1.0000 0.1404549842
H   H5        1.0  0.07530  0.12085  0.51023  1.0000 0.1404549842
H   H6        1.0  0.35914  0.22787  0.78126  1.0000 0.11230831
H   H7        1.0  0.46283  0.99813  0.85404  1.0000 0.1404549842
H   H8        1.0  0.46299  0.22142  0.07729  1.0000 0.1332479135
H   H9        1.0  0.35774  0.44751  0.00006  1.0000 0.1196476386
H   H10       1.0  0.99638  0.53316  0.13831  1.0000 0.3131315947
H   H11       1.0  0.00391  0.64915  0.20995  1.0000 0.3131315947
H   H12       1.0  0.80796  0.10964  0.94384  1.0000 0.1196476386
H   H13       1.0  0.90121  0.92284  0.18914  1.0000 0.1404549842
H   H14       1.0  0.92470  0.62085  0.98977  1.0000 0.1404549842
H   H15       1.0  0.64086  0.72787  0.71874  1.0000 0.11230831
H   H16       1.0  0.53717  0.49813  0.64596  1.0000 0.1404549842
H   H17       1.0  0.53701  0.72142  0.42271  1.0000 0.1332479135
H   H18       1.0  0.64226  0.94751  0.49994  1.0000 0.1196476386
H   H19       1.0  0.99638  0.96684  0.63831  1.0000 0.3131315947
H   H20       1.0  0.00391  0.85085  0.70995  1.0000 0.3131315947
H   H21       1.0  0.80796  0.39036  0.44384  1.0000 0.1196476386
H   H22       1.0  0.90121  0.57716  0.68914  1.0000 0.1404549842
H   H23       1.0  0.92470  0.87915  0.48977  1.0000 0.1404549842
H   H24       1.0  0.64086  0.77213  0.21874  1.0000 0.11230831
H   H25       1.0  0.53717  0.00187  0.14596  1.0000 0.1404549842
H   H26       1.0  0.53701  0.77858  0.92271  1.0000 0.1332479135
H   H27       1.0  0.64226  0.55249  0.99994  1.0000 0.1196476386
H   H28       1.0  0.00362  0.46684  0.86169  1.0000 0.3131315947
H   H29       1.0  0.99609  0.35085  0.79005  1.0000 0.3131315947
H   H30       1.0  0.19204  0.89036  0.05616  1.0000 0.1196476386
H   H31       1.0  0.09879  0.07716  0.81086  1.0000 0.1404549842
H   H32       1.0  0.07530  0.37915  0.01023  1.0000 0.1404549842
H   H33       1.0  0.35914  0.27213  0.28126  1.0000 0.11230831
H   H34       1.0  0.46283  0.50187  0.35404  1.0000 0.1404549842
H   H35       1.0  0.46299  0.27858  0.57729  1.0000 0.1332479135
H   H36       1.0  0.35774  0.05249  0.50006  1.0000 0.1196476386
C   C1        1.0  0.15070  0.33650  0.64470  1.0000 0.5466259883
C   C2        1.0  0.13680  0.36060  0.54790  1.0000 -0.0105276683
C   C3        1.0  0.16420  0.51980  0.51730  1.0000 -0.1411355495
C   C4        1.0  0.14950  0.54350  0.42760  1.0000 -0.0182798643
C   C5        1.0  0.17690  0.71310  0.39400  1.0000 0.5381539628
C   C6        1.0  0.10810  0.40750  0.37030  1.0000 -0.2029243506
C   C7        1.0  0.08080  0.24990  0.40040  1.0000 0.2644775525
C   C8        1.0  0.09450  0.22610  0.48980  1.0000 -0.2029243506
C   C9        1.0  0.37830  0.22660  0.84190  1.0000 0.0808868647
C   C10       1.0  0.44050  0.08650  0.88590  1.0000 -0.1720705762
C   C11       1.0  0.47010  0.07420  0.97450  1.0000 0.11230831
C   C12       1.0  0.44040  0.21760  0.01660  1.0000 -0.1848461017
C   C13       1.0  0.37760  0.35510  0.96950  1.0000 0.0913426519
C   C14       1.0  0.84930  0.83650  0.85530  1.0000 0.5466259883
C   C15       1.0  0.86320  0.86060  0.95210  1.0000 -0.0105276683
C   C16       1.0  0.83580  0.01980  0.98270  1.0000 -0.1411355495
C   C17       1.0  0.85050  0.04350  0.07240  1.0000 -0.0182798643
C   C18       1.0  0.82310  0.21310  0.10600  1.0000 0.5381539628
C   C19       1.0  0.89190  0.90750  0.12970  1.0000 -0.2029243506
C   C20       1.0  0.91920  0.74990  0.09960  1.0000 0.2644775525
C   C21       1.0  0.90550  0.72610  0.01020  1.0000 -0.2029243506
C   C22       1.0  0.62170  0.72660  0.65810  1.0000 0.0808868647
C   C23       1.0  0.55950  0.58650  0.61410  1.0000 -0.1720705762
C   C24       1.0  0.52990  0.57420  0.52550  1.0000 0.11230831
C   C25       1.0  0.55960  0.71760  0.48340  1.0000 -0.1848461017
C   C26       1.0  0.62240  0.85510  0.53050  1.0000 0.0913426519
C   C27       1.0  0.84930  0.66350  0.35530  1.0000 0.5466259883
C   C28       1.0  0.86320  0.63940  0.45210  1.0000 -0.0105276683
C   C29       1.0  0.83580  0.48020  0.48270  1.0000 -0.1411355495
C   C30       1.0  0.85050  0.45650  0.57240  1.0000 -0.0182798643
C   C31       1.0  0.82310  0.28690  0.60600  1.0000 0.5381539628
C   C32       1.0  0.89190  0.59250  0.62970  1.0000 -0.2029243506
C   C33       1.0  0.91920  0.75010  0.59960  1.0000 0.2644775525
C   C34       1.0  0.90550  0.77390  0.51020  1.0000 -0.2029243506
C   C35       1.0  0.62170  0.77340  0.15810  1.0000 0.0808868647
C   C36       1.0  0.55950  0.91350  0.11410  1.0000 -0.1720705762
C   C37       1.0  0.52990  0.92580  0.02550  1.0000 0.11230831
C   C38       1.0  0.55960  0.78240  0.98340  1.0000 -0.1848461017
C   C39       1.0  0.62240  0.64490  0.03050  1.0000 0.0913426519
C   C40       1.0  0.15070  0.16350  0.14470  1.0000 0.5466259883
C   C41       1.0  0.13680  0.13940  0.04790  1.0000 -0.0105276683
C   C42       1.0  0.16420  0.98020  0.01730  1.0000 -0.1411355495
C   C43       1.0  0.14950  0.95650  0.92760  1.0000 -0.0182798643
C   C44       1.0  0.17690  0.78690  0.89400  1.0000 0.5381539628
C   C45       1.0  0.10810  0.09250  0.87030  1.0000 -0.2029243506
C   C46       1.0  0.08080  0.25010  0.90040  1.0000 0.2644775525
C   C47       1.0  0.09450  0.27390  0.98980  1.0000 -0.2029243506
C   C48       1.0  0.37830  0.27340  0.34190  1.0000 0.0808868647
C   C49       1.0  0.44050  0.41350  0.38590  1.0000 -0.1720705762
C   C50       1.0  0.47010  0.42580  0.47450  1.0000 0.11230831
C   C51       1.0  0.44040  0.28240  0.51660  1.0000 -0.1848461017
C   C52       1.0  0.37760  0.14490  0.46950  1.0000 0.0913426519
N   N1        1.0  0.04550  0.11000  0.33990  1.0000 -0.5934085681
N   N2        1.0  0.34430  0.36110  0.88270  1.0000 -0.2556405499
N   N3        1.0  0.95450  0.61000  0.16010  1.0000 -0.5934085681
N   N4        1.0  0.65570  0.86110  0.61730  1.0000 -0.2556405499
N   N5        1.0  0.95450  0.89000  0.66010  1.0000 -0.5934085681
N   N6        1.0  0.65570  0.63890  0.11730  1.0000 -0.2556405499
N   N7        1.0  0.04550  0.39000  0.83990  1.0000 -0.5934085681
N   N8        1.0  0.34430  0.13890  0.38270  1.0000 -0.2556405499
O   O1        1.0  0.19400  0.46580  0.69220  1.0000 -0.569065018
O   O2        1.0  0.11940  0.19860  0.67020  1.0000 -0.5509755298
O   O3        1.0  0.20940  0.83840  0.44460  1.0000 -0.5427173212
O   O4        1.0  0.16550  0.73420  0.31240  1.0000 -0.5289597347
O   O5        1.0  0.80600  0.96580  0.80780  1.0000 -0.569065018
O   O6        1.0  0.88060  0.69860  0.82980  1.0000 -0.5509755298
O   O7        1.0  0.79060  0.33840  0.05540  1.0000 -0.5427173212
O   O8        1.0  0.83450  0.23420  0.18760  1.0000 -0.5289597347
O   O9        1.0  0.80600  0.53420  0.30780  1.0000 -0.569065018
O   O10       1.0  0.88060  0.80140  0.32980  1.0000 -0.5509755298
O   O11       1.0  0.79060  0.16160  0.55540  1.0000 -0.5427173212
O   O12       1.0  0.83450  0.26580  0.68760  1.0000 -0.5289597347
O   O13       1.0  0.19400  0.03420  0.19220  1.0000 -0.569065018
O   O14       1.0  0.11940  0.30140  0.17020  1.0000 -0.5509755298
O   O15       1.0  0.20940  0.66160  0.94460  1.0000 -0.5427173212
O   O16       1.0  0.16550  0.76580  0.81240  1.0000 -0.5289597347
