# DDEC6 charges by PACMAN v1.1 (https://github.com/mtap-research/PACMAN-charge/)
data_2020[Zn][sql]2[ASR]22
_chemical_formula_sum              "Zn4 H96 C84 N16 O16"
_cell_length_a       9.6488
_cell_length_b       17.7245
_cell_length_c       14.9109
_cell_angle_alpha    90
_cell_angle_beta     96.47
_cell_angle_gamma    90

_symmetry_space_group_name_H-M    "P 1"
_symmetry_Int_Tables_number       1

loop_
  _symmetry_equiv_pos_as_xyz
  'x, y, z'

loop_
  _atom_site_type_symbol
  _atom_site_label
  _atom_site_symmetry_multiplicity
  _atom_site_fract_x
  _atom_site_fract_y
  _atom_site_fract_z
  _atom_site_occupancy
  _atom_site_charge
Zn  Zn1       1.0  0.23267  0.58933  0.23666  1.0000 0.7944233798
Zn  Zn2       1.0  0.23267  0.91067  0.73666  1.0000 0.7944233798
Zn  Zn3       1.0  0.76733  0.08933  0.26334  1.0000 0.7944233798
Zn  Zn4       1.0  0.76733  0.41067  0.76334  1.0000 0.7944233798
H   H1        1.0  0.60060  0.71440  0.15210  1.0000 0.11989786
H   H2        1.0  0.60220  0.73350  0.25690  1.0000 0.131610053
H   H3        1.0  0.77820  0.62740  0.18070  1.0000 0.0897047229
H   H4        1.0  0.76740  0.62990  0.28710  1.0000 0.0897047229
H   H5        1.0  0.84840  0.75510  0.29360  1.0000 0.1123537335
H   H6        1.0  0.85320  0.75560  0.18700  1.0000 0.11989786
H   H7        1.0  0.05180  0.46010  0.24460  1.0000 0.1610095628
H   H8        1.0  0.93210  0.43690  0.16630  1.0000 0.1610095628
H   H9        1.0  0.05230  0.37790  0.20020  1.0000 0.1610095628
H   H10       1.0  0.32760  0.56470  0.03850  1.0000 0.131610053
H   H11       1.0  0.22600  0.46950  0.93060  1.0000 0.139439822
H   H12       1.0  0.95800  0.35790  0.02860  1.0000 0.131610053
H   H13       1.0  0.01480  0.37330  0.93360  1.0000 0.131610053
H   H14       1.0  0.97190  0.22290  0.97380  1.0000 0.131610053
H   H15       1.0  0.10290  0.11250  0.98370  1.0000 0.11989786
H   H16       1.0  0.45080  0.23340  0.06050  1.0000 0.131610053
H   H17       1.0  0.31980  0.34370  0.05190  1.0000 0.11989786
H   H18       1.0  0.47410  0.10390  0.01680  1.0000 0.11989786
H   H19       1.0  0.39060  0.07590  0.09730  1.0000 0.131610053
H   H20       1.0  0.23270  0.95880  0.06770  1.0000 0.139439822
H   H21       1.0  0.16400  0.87870  0.93440  1.0000 0.131610053
H   H22       1.0  0.39220  0.05700  0.77000  1.0000 0.1733033516
H   H23       1.0  0.48560  0.08820  0.85770  1.0000 0.1610095628
H   H24       1.0  0.33500  0.12390  0.82790  1.0000 0.1610095628
H   H25       1.0  0.60060  0.78560  0.65210  1.0000 0.11989786
H   H26       1.0  0.60220  0.76650  0.75690  1.0000 0.131610053
H   H27       1.0  0.77820  0.87260  0.68070  1.0000 0.0897047229
H   H28       1.0  0.76740  0.87010  0.78710  1.0000 0.0897047229
H   H29       1.0  0.84840  0.74490  0.79360  1.0000 0.1123537335
H   H30       1.0  0.85320  0.74440  0.68700  1.0000 0.11989786
H   H31       1.0  0.05180  0.03990  0.74460  1.0000 0.1610095628
H   H32       1.0  0.93210  0.06310  0.66630  1.0000 0.1610095628
H   H33       1.0  0.05230  0.12210  0.70020  1.0000 0.1610095628
H   H34       1.0  0.32760  0.93530  0.53850  1.0000 0.131610053
H   H35       1.0  0.22600  0.03050  0.43060  1.0000 0.139439822
H   H36       1.0  0.95800  0.14210  0.52860  1.0000 0.131610053
H   H37       1.0  0.01480  0.12670  0.43360  1.0000 0.131610053
H   H38       1.0  0.97190  0.27710  0.47380  1.0000 0.131610053
H   H39       1.0  0.10290  0.38750  0.48370  1.0000 0.11989786
H   H40       1.0  0.45080  0.26660  0.56050  1.0000 0.131610053
H   H41       1.0  0.31980  0.15630  0.55190  1.0000 0.11989786
H   H42       1.0  0.47410  0.39610  0.51680  1.0000 0.11989786
H   H43       1.0  0.39060  0.42410  0.59730  1.0000 0.131610053
H   H44       1.0  0.23270  0.54120  0.56770  1.0000 0.139439822
H   H45       1.0  0.16400  0.62130  0.43440  1.0000 0.131610053
H   H46       1.0  0.39220  0.44300  0.27000  1.0000 0.1733033516
H   H47       1.0  0.48560  0.41180  0.35770  1.0000 0.1610095628
H   H48       1.0  0.33500  0.37610  0.32790  1.0000 0.1610095628
H   H49       1.0  0.39940  0.21440  0.34790  1.0000 0.11989786
H   H50       1.0  0.39780  0.23350  0.24310  1.0000 0.131610053
H   H51       1.0  0.22180  0.12740  0.31930  1.0000 0.0897047229
H   H52       1.0  0.23260  0.12990  0.21290  1.0000 0.0897047229
H   H53       1.0  0.15160  0.25510  0.20640  1.0000 0.1123537335
H   H54       1.0  0.14680  0.25560  0.31300  1.0000 0.11989786
H   H55       1.0  0.94820  0.96010  0.25540  1.0000 0.1610095628
H   H56       1.0  0.06790  0.93690  0.33370  1.0000 0.1610095628
H   H57       1.0  0.94770  0.87790  0.29980  1.0000 0.1610095628
H   H58       1.0  0.67240  0.06470  0.46150  1.0000 0.131610053
H   H59       1.0  0.77400  0.96950  0.56940  1.0000 0.139439822
H   H60       1.0  0.04200  0.85790  0.47140  1.0000 0.131610053
H   H61       1.0  0.98520  0.87330  0.56640  1.0000 0.131610053
H   H62       1.0  0.02810  0.72290  0.52620  1.0000 0.131610053
H   H63       1.0  0.89710  0.61250  0.51630  1.0000 0.11989786
H   H64       1.0  0.54920  0.73340  0.43950  1.0000 0.131610053
H   H65       1.0  0.68020  0.84370  0.44810  1.0000 0.11989786
H   H66       1.0  0.52590  0.60390  0.48320  1.0000 0.11989786
H   H67       1.0  0.60940  0.57590  0.40270  1.0000 0.131610053
H   H68       1.0  0.76730  0.45880  0.43230  1.0000 0.139439822
H   H69       1.0  0.83600  0.37870  0.56560  1.0000 0.131610053
H   H70       1.0  0.60780  0.55700  0.73000  1.0000 0.1733033516
H   H71       1.0  0.51440  0.58820  0.64230  1.0000 0.1610095628
H   H72       1.0  0.66500  0.62390  0.67210  1.0000 0.1610095628
H   H73       1.0  0.39940  0.28560  0.84790  1.0000 0.11989786
H   H74       1.0  0.39780  0.26650  0.74310  1.0000 0.131610053
H   H75       1.0  0.22180  0.37260  0.81930  1.0000 0.0897047229
H   H76       1.0  0.23260  0.37010  0.71290  1.0000 0.0897047229
H   H77       1.0  0.15160  0.24490  0.70640  1.0000 0.1123537335
H   H78       1.0  0.14680  0.24440  0.81300  1.0000 0.11989786
H   H79       1.0  0.94820  0.53990  0.75540  1.0000 0.1610095628
H   H80       1.0  0.06790  0.56310  0.83370  1.0000 0.1610095628
H   H81       1.0  0.94770  0.62210  0.79980  1.0000 0.1610095628
H   H82       1.0  0.67240  0.43530  0.96150  1.0000 0.131610053
H   H83       1.0  0.77400  0.53050  0.06940  1.0000 0.139439822
H   H84       1.0  0.04200  0.64210  0.97140  1.0000 0.131610053
H   H85       1.0  0.98520  0.62670  0.06640  1.0000 0.131610053
H   H86       1.0  0.02810  0.77710  0.02620  1.0000 0.131610053
H   H87       1.0  0.89710  0.88750  0.01630  1.0000 0.11989786
H   H88       1.0  0.54920  0.76660  0.93950  1.0000 0.131610053
H   H89       1.0  0.68020  0.65630  0.94810  1.0000 0.11989786
H   H90       1.0  0.52590  0.89610  0.98320  1.0000 0.11989786
H   H91       1.0  0.60940  0.92410  0.90270  1.0000 0.131610053
H   H92       1.0  0.76730  0.04120  0.93230  1.0000 0.139439822
H   H93       1.0  0.83600  0.12130  0.06560  1.0000 0.131610053
H   H94       1.0  0.60780  0.94300  0.23000  1.0000 0.1733033516
H   H95       1.0  0.51440  0.91180  0.14230  1.0000 0.1610095628
H   H96       1.0  0.66500  0.87610  0.17210  1.0000 0.1610095628
C   C1        1.0  0.49780  0.63516  0.22047  1.0000 0.6100770615
C   C2        1.0  0.61260  0.69220  0.21341  1.0000 -0.3377887972
C   C3        1.0  0.75950  0.66064  0.23130  1.0000 -0.0938071154
C   C4        1.0  0.86680  0.72344  0.24156  1.0000 -0.3531559027
C   C5        1.0  0.01760  0.69864  0.25522  1.0000 0.6168314003
C   C6        1.0  0.03110  0.43133  0.18859  1.0000 -0.5288736738
C   C7        1.0  0.11730  0.46018  0.12001  1.0000 0.3348852478
C   C8        1.0  0.26100  0.52752  0.05012  1.0000 -0.0426635097
C   C9        1.0  0.20630  0.47565  0.99115  1.0000 -0.1206633164
C   C10       1.0  0.04360  0.36541  0.99878  1.0000 -0.1698209077
C   C11       1.0  0.13230  0.29486  0.01076  1.0000 0.1037969373
C   C12       1.0  0.06950  0.22533  0.99135  1.0000 -0.1308529712
C   C13       1.0  0.14740  0.15960  0.99732  1.0000 -0.1454580046
C   C14       1.0  0.29050  0.16195  0.02314  1.0000 0.1037969373
C   C15       1.0  0.35320  0.23102  0.04289  1.0000 -0.1397076316
C   C16       1.0  0.27530  0.29680  0.03736  1.0000 -0.1397076316
C   C17       1.0  0.38010  0.09166  0.03323  1.0000 -0.1698209077
C   C18       1.0  0.25180  0.96814  0.00758  1.0000 -0.1308529712
C   C19       1.0  0.21430  0.92473  0.93433  1.0000 -0.0426635097
C   C20       1.0  0.32620  0.02117  0.88750  1.0000 0.3371952497
C   C21       1.0  0.39020  0.07732  0.83099  1.0000 -0.5288736738
C   C22       1.0  0.49780  0.86484  0.72047  1.0000 0.6100770615
C   C23       1.0  0.61260  0.80780  0.71341  1.0000 -0.3377887972
C   C24       1.0  0.75950  0.83936  0.73130  1.0000 -0.0938071154
C   C25       1.0  0.86680  0.77656  0.74156  1.0000 -0.3531559027
C   C26       1.0  0.01760  0.80136  0.75522  1.0000 0.6168314003
C   C27       1.0  0.03110  0.06867  0.68859  1.0000 -0.5288736738
C   C28       1.0  0.11730  0.03982  0.62001  1.0000 0.3348852478
C   C29       1.0  0.26100  0.97248  0.55012  1.0000 -0.0426635097
C   C30       1.0  0.20630  0.02435  0.49115  1.0000 -0.1206633164
C   C31       1.0  0.04360  0.13459  0.49878  1.0000 -0.1698209077
C   C32       1.0  0.13230  0.20514  0.51076  1.0000 0.1037969373
C   C33       1.0  0.06950  0.27467  0.49135  1.0000 -0.1308529712
C   C34       1.0  0.14740  0.34040  0.49732  1.0000 -0.1454580046
C   C35       1.0  0.29050  0.33805  0.52314  1.0000 0.1037969373
C   C36       1.0  0.35320  0.26898  0.54289  1.0000 -0.1397076316
C   C37       1.0  0.27530  0.20320  0.53736  1.0000 -0.1397076316
C   C38       1.0  0.38010  0.40834  0.53323  1.0000 -0.1698209077
C   C39       1.0  0.25180  0.53186  0.50758  1.0000 -0.1206633164
C   C40       1.0  0.21430  0.57527  0.43433  1.0000 -0.0426635097
C   C41       1.0  0.32620  0.47883  0.38750  1.0000 0.3371952497
C   C42       1.0  0.39020  0.42268  0.33099  1.0000 -0.5288736738
C   C43       1.0  0.50220  0.13516  0.27953  1.0000 0.6100770615
C   C44       1.0  0.38740  0.19220  0.28659  1.0000 -0.3377887972
C   C45       1.0  0.24050  0.16064  0.26870  1.0000 -0.0938071154
C   C46       1.0  0.13320  0.22344  0.25844  1.0000 -0.3531559027
C   C47       1.0  0.98240  0.19864  0.24478  1.0000 0.6168314003
C   C48       1.0  0.96890  0.93133  0.31141  1.0000 -0.5288736738
C   C49       1.0  0.88270  0.96018  0.37999  1.0000 0.3348852478
C   C50       1.0  0.73900  0.02752  0.44988  1.0000 -0.0426635097
C   C51       1.0  0.79370  0.97565  0.50885  1.0000 -0.1206633164
C   C52       1.0  0.95640  0.86541  0.50122  1.0000 -0.1698209077
C   C53       1.0  0.86770  0.79486  0.48924  1.0000 0.1037969373
C   C54       1.0  0.93050  0.72533  0.50865  1.0000 -0.1308529712
C   C55       1.0  0.85260  0.65960  0.50268  1.0000 -0.1454580046
C   C56       1.0  0.70950  0.66195  0.47686  1.0000 0.1037969373
C   C57       1.0  0.64680  0.73102  0.45711  1.0000 -0.1397076316
C   C58       1.0  0.72470  0.79680  0.46264  1.0000 -0.1397076316
C   C59       1.0  0.61990  0.59166  0.46677  1.0000 -0.1698209077
C   C60       1.0  0.74820  0.46814  0.49242  1.0000 -0.1206633164
C   C61       1.0  0.78570  0.42473  0.56567  1.0000 -0.0426635097
C   C62       1.0  0.67380  0.52117  0.61250  1.0000 0.3371952497
C   C63       1.0  0.60980  0.57732  0.66901  1.0000 -0.5288736738
C   C64       1.0  0.50220  0.36484  0.77953  1.0000 0.6100770615
C   C65       1.0  0.38740  0.30780  0.78659  1.0000 -0.3377887972
C   C66       1.0  0.24050  0.33936  0.76870  1.0000 -0.0938071154
C   C67       1.0  0.13320  0.27656  0.75844  1.0000 -0.3531559027
C   C68       1.0  0.98240  0.30136  0.74478  1.0000 0.6168314003
C   C69       1.0  0.96890  0.56867  0.81141  1.0000 -0.5288736738
C   C70       1.0  0.88270  0.53982  0.87999  1.0000 0.3371952497
C   C71       1.0  0.73900  0.47248  0.94988  1.0000 -0.0426635097
C   C72       1.0  0.79370  0.52435  0.00885  1.0000 -0.1206633164
C   C73       1.0  0.95640  0.63459  0.00122  1.0000 -0.1698209077
C   C74       1.0  0.86770  0.70514  0.98924  1.0000 0.1037969373
C   C75       1.0  0.93050  0.77467  0.00865  1.0000 -0.1308529712
C   C76       1.0  0.85260  0.84040  0.00268  1.0000 -0.1454580046
C   C77       1.0  0.70950  0.83805  0.97686  1.0000 0.1037969373
C   C78       1.0  0.64680  0.76898  0.95711  1.0000 -0.1397076316
C   C79       1.0  0.72470  0.70320  0.96264  1.0000 -0.1397076316
C   C80       1.0  0.61990  0.90834  0.96677  1.0000 -0.1698209077
C   C81       1.0  0.74820  0.03186  0.99242  1.0000 -0.1206633164
C   C82       1.0  0.78570  0.07527  0.06567  1.0000 -0.0426635097
C   C83       1.0  0.67380  0.97883  0.11250  1.0000 0.3371952497
C   C84       1.0  0.60980  0.92268  0.16901  1.0000 -0.5288736738
N   N1        1.0  0.20437  0.51819  0.13150  1.0000 -0.3652565695
N   N2        1.0  0.11510  0.43270  0.03570  1.0000 -0.0143092117
N   N3        1.0  0.26085  0.95805  0.85923  1.0000 -0.3626718498
N   N4        1.0  0.32320  0.02870  0.97759  1.0000 -0.0143092117
N   N5        1.0  0.20437  0.98181  0.63150  1.0000 -0.3652565695
N   N6        1.0  0.11510  0.06730  0.53570  1.0000 -0.0143092117
N   N7        1.0  0.26085  0.54195  0.35923  1.0000 -0.3626718498
N   N8        1.0  0.32320  0.47130  0.47759  1.0000 -0.0143092117
N   N9        1.0  0.79563  0.01819  0.36850  1.0000 -0.3626718498
N   N10       1.0  0.88490  0.93270  0.46430  1.0000 -0.0143092117
N   N11       1.0  0.73915  0.45805  0.64077  1.0000 -0.3626718498
N   N12       1.0  0.67680  0.52870  0.52241  1.0000 -0.0143092117
N   N13       1.0  0.79563  0.48181  0.86850  1.0000 -0.3652565695
N   N14       1.0  0.88490  0.56730  0.96430  1.0000 -0.0143092117
N   N15       1.0  0.73915  0.04195  0.14077  1.0000 -0.3626718498
N   N16       1.0  0.67680  0.97130  0.02241  1.0000 -0.0143092117
O   O1        1.0  0.37261  0.66221  0.20795  1.0000 -0.5638766952
O   O2        1.0  0.52141  0.56823  0.23858  1.0000 -0.5702719085
O   O3        1.0  0.04370  0.63169  0.23117  1.0000 -0.5702719085
O   O4        1.0  0.10728  0.74431  0.28700  1.0000 -0.5755579688
O   O5        1.0  0.37261  0.83779  0.70795  1.0000 -0.5638766952
O   O6        1.0  0.52141  0.93177  0.73858  1.0000 -0.5702719085
O   O7        1.0  0.04370  0.86831  0.73117  1.0000 -0.5702719085
O   O8        1.0  0.10728  0.75569  0.78700  1.0000 -0.5755579688
O   O9        1.0  0.62739  0.16221  0.29205  1.0000 -0.5638766952
O   O10       1.0  0.47859  0.06823  0.26142  1.0000 -0.5702719085
O   O11       1.0  0.95630  0.13169  0.26883  1.0000 -0.5702719085
O   O12       1.0  0.89272  0.24431  0.21300  1.0000 -0.5755579688
O   O13       1.0  0.62739  0.33779  0.79205  1.0000 -0.5638766952
O   O14       1.0  0.47859  0.43177  0.76142  1.0000 -0.5702719085
O   O15       1.0  0.95630  0.36831  0.76883  1.0000 -0.5702719085
O   O16       1.0  0.89272  0.25569  0.71300  1.0000 -0.5755579688
