# DDEC6 charges by PACMAN v1.1 (https://github.com/mtap-research/PACMAN-charge/)
data_2020[Cu][nan]2[ASR]4
_chemical_formula_sum              "Cu4 H68 C88 I4 N12 O4"
_cell_length_a       13.908
_cell_length_b       13.908
_cell_length_c       17.937
_cell_angle_alpha    68.6105
_cell_angle_beta     111.39
_cell_angle_gamma    129.15

_symmetry_space_group_name_H-M    "P 1"
_symmetry_Int_Tables_number       1

loop_
  _symmetry_equiv_pos_as_xyz
  'x, y, z'

loop_
  _atom_site_type_symbol
  _atom_site_label
  _atom_site_symmetry_multiplicity
  _atom_site_fract_x
  _atom_site_fract_y
  _atom_site_fract_z
  _atom_site_occupancy
  _atom_site_charge
Cu  Cu1       1.0  0.44301  0.44555  0.43875  1.0000 0.1791691494
Cu  Cu2       1.0  0.44555  0.44301  0.06125  1.0000 0.1791691494
Cu  Cu3       1.0  0.55699  0.55445  0.56125  1.0000 0.1791691494
Cu  Cu4       1.0  0.55445  0.55699  0.93875  1.0000 0.1791691494
H   H1        1.0  0.21561  0.57605  0.55481  1.0000 0.1199175203
H   H2        1.0  0.00864  0.71158  0.34272  1.0000 0.1115798068
H   H3        1.0  0.18840  0.85536  0.39637  1.0000 0.1199175203
H   H4        1.0  0.12588  0.48272  0.45351  1.0000 0.1115798068
H   H5        1.0  0.48834  0.86706  0.71495  1.0000 0.1286050751
H   H6        1.0  0.41691  0.47769  0.78175  1.0000 0.1007453047
H   H7        1.0  0.53382  0.28838  0.55945  1.0000 0.1007453047
H   H8        1.0  0.57019  0.79763  0.84288  1.0000 0.1007453047
H   H9        1.0  0.48294  0.08764  0.58679  1.0000 0.1286050751
H   H10       1.0  0.97830  0.35202  0.35852  1.0000 0.1199175203
H   H11       1.0  0.33373  0.53899  0.65272  1.0000 0.1199175203
H   H12       1.0  0.86395  0.58351  0.24693  1.0000 0.1386102301
H   H13       1.0  0.77842  0.22050  0.29859  1.0000 0.1199175203
H   H14       1.0  0.72225  0.22203  0.20313  1.0000 0.1199175203
H   H15       1.0  0.86925  0.28055  0.23624  1.0000 0.1199175203
H   H16       1.0  0.29388  0.23328  0.35473  1.0000 0.1007453047
H   H17       1.0  0.23517  0.03077  0.37607  1.0000 0.1286050751
H   H18       1.0  0.57605  0.21561  0.94519  1.0000 0.1199175203
H   H19       1.0  0.71158  0.00864  0.15728  1.0000 0.1115798068
H   H20       1.0  0.85536  0.18840  0.10363  1.0000 0.1199175203
H   H21       1.0  0.48272  0.12588  0.04649  1.0000 0.1115798068
H   H22       1.0  0.86706  0.48834  0.78505  1.0000 0.1286050751
H   H23       1.0  0.47769  0.41691  0.71825  1.0000 0.1007453047
H   H24       1.0  0.28838  0.53382  0.94055  1.0000 0.1007453047
H   H25       1.0  0.79763  0.57019  0.65712  1.0000 0.1007453047
H   H26       1.0  0.08764  0.48294  0.91321  1.0000 0.1286050751
H   H27       1.0  0.35202  0.97830  0.14148  1.0000 0.1199175203
H   H28       1.0  0.53899  0.33373  0.84728  1.0000 0.1199175203
H   H29       1.0  0.58351  0.86395  0.25307  1.0000 0.1386102301
H   H30       1.0  0.22050  0.77842  0.20141  1.0000 0.1199175203
H   H31       1.0  0.22203  0.72225  0.29687  1.0000 0.1199175203
H   H32       1.0  0.28055  0.86925  0.26376  1.0000 0.1199175203
H   H33       1.0  0.23328  0.29388  0.14527  1.0000 0.1007453047
H   H34       1.0  0.03077  0.23517  0.12393  1.0000 0.1286050751
H   H35       1.0  0.78439  0.42395  0.44519  1.0000 0.1199175203
H   H36       1.0  0.99136  0.28842  0.65728  1.0000 0.1115798068
H   H37       1.0  0.81160  0.14464  0.60363  1.0000 0.1199175203
H   H38       1.0  0.87412  0.51728  0.54649  1.0000 0.1115798068
H   H39       1.0  0.51166  0.13294  0.28505  1.0000 0.1286050751
H   H40       1.0  0.58309  0.52231  0.21825  1.0000 0.1007453047
H   H41       1.0  0.46618  0.71162  0.44055  1.0000 0.1007453047
H   H42       1.0  0.42981  0.20237  0.15712  1.0000 0.1007453047
H   H43       1.0  0.51706  0.91236  0.41321  1.0000 0.1286050751
H   H44       1.0  0.02170  0.64798  0.64148  1.0000 0.1199175203
H   H45       1.0  0.66627  0.46101  0.34728  1.0000 0.1199175203
H   H46       1.0  0.13605  0.41649  0.75307  1.0000 0.1386102301
H   H47       1.0  0.22158  0.77950  0.70141  1.0000 0.1199175203
H   H48       1.0  0.27775  0.77797  0.79687  1.0000 0.1199175203
H   H49       1.0  0.13075  0.71945  0.76376  1.0000 0.1199175203
H   H50       1.0  0.70612  0.76672  0.64527  1.0000 0.1007453047
H   H51       1.0  0.76483  0.96923  0.62393  1.0000 0.1286050751
H   H52       1.0  0.42395  0.78439  0.05481  1.0000 0.1199175203
H   H53       1.0  0.28842  0.99136  0.84272  1.0000 0.1115798068
H   H54       1.0  0.14464  0.81160  0.89637  1.0000 0.1199175203
H   H55       1.0  0.51728  0.87412  0.95351  1.0000 0.1115798068
H   H56       1.0  0.13294  0.51166  0.21495  1.0000 0.1286050751
H   H57       1.0  0.52231  0.58309  0.28175  1.0000 0.1007453047
H   H58       1.0  0.71162  0.46618  0.05945  1.0000 0.1007453047
H   H59       1.0  0.20237  0.42981  0.34288  1.0000 0.1007453047
H   H60       1.0  0.91236  0.51706  0.08679  1.0000 0.1286050751
H   H61       1.0  0.64798  0.02170  0.85852  1.0000 0.1199175203
H   H62       1.0  0.46101  0.66627  0.15272  1.0000 0.1199175203
H   H63       1.0  0.41649  0.13605  0.74693  1.0000 0.1386102301
H   H64       1.0  0.77950  0.22158  0.79859  1.0000 0.1199175203
H   H65       1.0  0.77797  0.27775  0.70313  1.0000 0.1199175203
H   H66       1.0  0.71945  0.13075  0.73624  1.0000 0.1199175203
H   H67       1.0  0.76672  0.70612  0.85473  1.0000 0.1007453047
H   H68       1.0  0.96923  0.76483  0.87607  1.0000 0.1286050751
C   C1        1.0  0.18360  0.69880  0.46540  1.0000 0.1199175203
C   C2        1.0  0.24070  0.66090  0.53910  1.0000 -0.2225048791
C   C3        1.0  0.39570  0.70770  0.67010  1.0000 0.0880526703
C   C4        1.0  0.33480  0.74680  0.59020  1.0000 0.2034265336
C   C5        1.0  0.31430  0.90410  0.50130  1.0000 0.2100026992
C   C6        1.0  0.00380  0.63900  0.34570  1.0000 -0.1392061252
C   C7        1.0  0.22380  0.82460  0.44680  1.0000 -0.2459771659
C   C8        1.0  0.07310  0.50390  0.41150  1.0000 -0.1266667328
C   C9        1.0  0.08480  0.61220  0.40810  1.0000 0.0367863264
C   C10       1.0  0.47070  0.78530  0.72780  1.0000 -0.1727700855
C   C11       1.0  0.35220  0.03480  0.48420  1.0000 0.0848911938
C   C12       1.0  0.43070  0.55770  0.76830  1.0000 0.0681525089
C   C13       1.0  0.47110  0.23450  0.52130  1.0000 0.0640074278
C   C14       1.0  0.51960  0.74360  0.80410  1.0000 0.0681525089
C   C15       1.0  0.44160  0.11480  0.53810  1.0000 -0.1727700855
C   C16       1.0  0.98590  0.42630  0.35500  1.0000 -0.2225048791
C   C17       1.0  0.37970  0.59310  0.69130  1.0000 -0.1838287066
C   C18       1.0  0.91750  0.56310  0.28880  1.0000 -0.209239437
C   C19       1.0  0.90940  0.45800  0.29300  1.0000 0.2332038742
C   C20       1.0  0.79570  0.26850  0.24380  1.0000 -0.2360008943
C   C21       1.0  0.33290  0.20330  0.40330  1.0000 0.0640074278
C   C22       1.0  0.29770  0.08210  0.41550  1.0000 -0.1996074158
C   C23       1.0  0.69880  0.18360  0.03460  1.0000 0.1199175203
C   C24       1.0  0.66090  0.24070  0.96090  1.0000 -0.2225048791
C   C25       1.0  0.70770  0.39570  0.82990  1.0000 0.0880526703
C   C26       1.0  0.74680  0.33480  0.90980  1.0000 0.2034265336
C   C27       1.0  0.90410  0.31430  0.99870  1.0000 0.2100026992
C   C28       1.0  0.63900  0.00380  0.15430  1.0000 -0.1392061252
C   C29       1.0  0.82460  0.22380  0.05320  1.0000 -0.2459771659
C   C30       1.0  0.50390  0.07310  0.08850  1.0000 -0.1266667328
C   C31       1.0  0.61220  0.08480  0.09190  1.0000 0.0367863264
C   C32       1.0  0.78530  0.47070  0.77220  1.0000 -0.1727700855
C   C33       1.0  0.03480  0.35220  0.01580  1.0000 0.0880526703
C   C34       1.0  0.55770  0.43070  0.73170  1.0000 0.0681525089
C   C35       1.0  0.23450  0.47110  0.97870  1.0000 0.0640074278
C   C36       1.0  0.74360  0.51960  0.69590  1.0000 0.0681525089
C   C37       1.0  0.11480  0.44160  0.96190  1.0000 -0.1727700855
C   C38       1.0  0.42630  0.98590  0.14500  1.0000 -0.2225048791
C   C39       1.0  0.59310  0.37970  0.80870  1.0000 -0.1838287066
C   C40       1.0  0.56310  0.91750  0.21120  1.0000 -0.209239437
C   C41       1.0  0.45800  0.90940  0.20700  1.0000 0.2332038742
C   C42       1.0  0.26850  0.79570  0.25620  1.0000 -0.2360008943
C   C43       1.0  0.20330  0.33290  0.09670  1.0000 0.0640074278
C   C44       1.0  0.08210  0.29770  0.08450  1.0000 -0.1996074158
C   C45       1.0  0.81640  0.30120  0.53460  1.0000 0.1199175203
C   C46       1.0  0.75930  0.33910  0.46090  1.0000 -0.2225048791
C   C47       1.0  0.60430  0.29230  0.32990  1.0000 0.0880526703
C   C48       1.0  0.66520  0.25320  0.40980  1.0000 0.2034265336
C   C49       1.0  0.68570  0.09590  0.49870  1.0000 0.2100026992
C   C50       1.0  0.99620  0.36100  0.65430  1.0000 -0.1392061252
C   C51       1.0  0.77620  0.17540  0.55320  1.0000 -0.2459771659
C   C52       1.0  0.92690  0.49610  0.58850  1.0000 -0.1266667328
C   C53       1.0  0.91520  0.38780  0.59190  1.0000 0.0367863264
C   C54       1.0  0.52930  0.21470  0.27220  1.0000 -0.1727700855
C   C55       1.0  0.64780  0.96520  0.51580  1.0000 0.0848911938
C   C56       1.0  0.56930  0.44230  0.23170  1.0000 0.0681525089
C   C57       1.0  0.52890  0.76550  0.47870  1.0000 0.0640074278
C   C58       1.0  0.48040  0.25640  0.19590  1.0000 0.0681525089
C   C59       1.0  0.55840  0.88520  0.46190  1.0000 -0.1727700855
C   C60       1.0  0.01410  0.57370  0.64500  1.0000 -0.2225048791
C   C61       1.0  0.62030  0.40690  0.30870  1.0000 -0.1838287066
C   C62       1.0  0.08250  0.43690  0.71120  1.0000 -0.209239437
C   C63       1.0  0.09060  0.54200  0.70700  1.0000 0.2332038742
C   C64       1.0  0.20430  0.73150  0.75620  1.0000 -0.2360008943
C   C65       1.0  0.66710  0.79670  0.59670  1.0000 0.0640074278
C   C66       1.0  0.70230  0.91790  0.58450  1.0000 -0.1996074158
C   C67       1.0  0.30120  0.81640  0.96540  1.0000 0.1199175203
C   C68       1.0  0.33910  0.75930  0.03910  1.0000 -0.2225048791
C   C69       1.0  0.29230  0.60430  0.17010  1.0000 0.0880526703
C   C70       1.0  0.25320  0.66520  0.09020  1.0000 0.2034265336
C   C71       1.0  0.09590  0.68570  0.00130  1.0000 0.2100026992
C   C72       1.0  0.36100  0.99620  0.84570  1.0000 -0.1392061252
C   C73       1.0  0.17540  0.77620  0.94680  1.0000 -0.2459771659
C   C74       1.0  0.49610  0.92690  0.91150  1.0000 -0.1266667328
C   C75       1.0  0.38780  0.91520  0.90810  1.0000 0.0367863264
C   C76       1.0  0.21470  0.52930  0.22780  1.0000 -0.1727700855
C   C77       1.0  0.96520  0.64780  0.98420  1.0000 0.0848911938
C   C78       1.0  0.44230  0.56930  0.26830  1.0000 0.0681525089
C   C79       1.0  0.76550  0.52890  0.02130  1.0000 0.0640074278
C   C80       1.0  0.25640  0.48040  0.30410  1.0000 0.0681525089
C   C81       1.0  0.88520  0.55840  0.03810  1.0000 -0.1727700855
C   C82       1.0  0.57370  0.01410  0.85500  1.0000 -0.2225048791
C   C83       1.0  0.40690  0.62030  0.19130  1.0000 -0.1838287066
C   C84       1.0  0.43690  0.08250  0.78880  1.0000 -0.209239437
C   C85       1.0  0.54200  0.09060  0.79300  1.0000 0.2332038742
C   C86       1.0  0.73150  0.20430  0.74380  1.0000 -0.2360008943
C   C87       1.0  0.79670  0.66710  0.90330  1.0000 0.0640074278
C   C88       1.0  0.91790  0.70230  0.91550  1.0000 -0.1996074158
I   I1        1.0  0.30770  0.38822  0.54027  1.0000 -0.4440161798
I   I2        1.0  0.38822  0.30770  0.95973  1.0000 -0.4440161798
I   I3        1.0  0.69230  0.61178  0.45973  1.0000 -0.4440161798
I   I4        1.0  0.61178  0.69230  0.04027  1.0000 -0.4440161798
N   N1        1.0  0.41730  0.27930  0.45520  1.0000 -0.1727700855
N   N2        1.0  0.49840  0.62920  0.82530  1.0000 -0.1838287066
N   N3        1.0  0.37050  0.86670  0.57210  1.0000 -0.3288257185
N   N4        1.0  0.27930  0.41730  0.04480  1.0000 -0.1727700855
N   N5        1.0  0.62920  0.49840  0.67470  1.0000 -0.1838287066
N   N6        1.0  0.86670  0.37050  0.92790  1.0000 -0.3288257185
N   N7        1.0  0.58270  0.72070  0.54480  1.0000 -0.1727700855
N   N8        1.0  0.50160  0.37080  0.17470  1.0000 -0.1838287066
N   N9        1.0  0.62950  0.13330  0.42790  1.0000 -0.3288257185
N   N10       1.0  0.72070  0.58270  0.95520  1.0000 -0.1727700855
N   N11       1.0  0.37080  0.50160  0.32530  1.0000 -0.1838287066
N   N12       1.0  0.13330  0.62950  0.07210  1.0000 -0.3288257185
O   O1        1.0  0.82060  0.38720  0.23440  1.0000 -0.1500320423
O   O2        1.0  0.38720  0.82060  0.26560  1.0000 -0.1500320423
O   O3        1.0  0.17940  0.61280  0.76560  1.0000 -0.1500320423
O   O4        1.0  0.61280  0.17940  0.73440  1.0000 -0.1500320423
