# DDEC6 charges by PACMAN v1.1 (https://github.com/mtap-research/PACMAN-charge/)
data_2020[Ce][pcu]3[ASR]1
_chemical_formula_sum              "Ce2 H12 C36 O18"
_cell_length_a       12.4869
_cell_length_b       12.595
_cell_length_c       13.7583
_cell_angle_alpha    112.06
_cell_angle_beta     104.848
_cell_angle_gamma    102.417

_symmetry_space_group_name_H-M    "P 1"
_symmetry_Int_Tables_number       1

loop_
  _symmetry_equiv_pos_as_xyz
  'x, y, z'

loop_
  _atom_site_type_symbol
  _atom_site_label
  _atom_site_symmetry_multiplicity
  _atom_site_fract_x
  _atom_site_fract_y
  _atom_site_fract_z
  _atom_site_occupancy
  _atom_site_charge
Ce  Ce1       1.0  0.18201  0.54227  0.54448  1.0000 2.0225791273
Ce  Ce2       1.0  0.81799  0.45773  0.45552  1.0000 2.0225791273
H   H1        1.0  0.38980  0.25750  0.89910  1.0000 0.1459170927
H   H2        1.0  0.48620  0.26150  0.06870  1.0000 0.1314039149
H   H3        1.0  0.76630  0.44300  0.93920  1.0000 0.1390345928
H   H4        1.0  0.79040  0.45810  0.11690  1.0000 0.1314039149
H   H5        1.0  0.77990  0.87580  0.46420  1.0000 0.1459170927
H   H6        1.0  0.85540  0.74260  0.51340  1.0000 0.1242912945
H   H7        1.0  0.61020  0.74250  0.10090  1.0000 0.1459170927
H   H8        1.0  0.51380  0.73850  0.93130  1.0000 0.1314039149
H   H9        1.0  0.23370  0.55700  0.06080  1.0000 0.1390345928
H   H10       1.0  0.20960  0.54190  0.88310  1.0000 0.1314039149
H   H11       1.0  0.22010  0.12420  0.53580  1.0000 0.1459170927
H   H12       1.0  0.14460  0.25740  0.48660  1.0000 0.1242912945
C   C1        1.0  0.36140  0.55530  0.73480  1.0000 0.5957038936
C   C2        1.0  0.42480  0.55390  0.84150  1.0000 -0.0991244863
C   C3        1.0  0.40610  0.44460  0.84860  1.0000 0.2439603147
C   C4        1.0  0.46210  0.44350  0.95280  1.0000 -0.0024169678
C   C5        1.0  0.44210  0.33270  0.96220  1.0000 -0.1094352193
C   C6        1.0  0.49870  0.33570  0.06300  1.0000 -0.0774563576
C   C7        1.0  0.01940  0.49320  0.71060  1.0000 0.6484498319
C   C8        1.0  0.02960  0.49830  0.82330  1.0000 -0.1094352193
C   C9        1.0  0.93130  0.47650  0.85190  1.0000 0.2526160913
C   C10       1.0  0.94280  0.48500  0.96100  1.0000 0.0026527214
C   C11       1.0  0.84300  0.46340  0.99150  1.0000 -0.0991244863
C   C12       1.0  0.85770  0.47220  0.09700  1.0000 -0.0774563576
C   C13       1.0  0.92560  0.26220  0.42980  1.0000 0.6333211002
C   C14       1.0  0.97120  0.17220  0.45500  1.0000 -0.1094352193
C   C15       1.0  0.89430  0.07210  0.45160  1.0000 0.2526160913
C   C16       1.0  0.93840  0.98950  0.48420  1.0000 0.0026527214
C   C17       1.0  0.86200  0.88900  0.48440  1.0000 -0.0774563576
C   C18       1.0  0.90730  0.81040  0.51390  1.0000 -0.0637741859
C   C19       1.0  0.63860  0.44470  0.26520  1.0000 0.5957038936
C   C20       1.0  0.57520  0.44610  0.15850  1.0000 -0.0991244863
C   C21       1.0  0.59390  0.55540  0.15140  1.0000 0.2439603147
C   C22       1.0  0.53790  0.55650  0.04720  1.0000 -0.0024169678
C   C23       1.0  0.55790  0.66730  0.03780  1.0000 -0.1094352193
C   C24       1.0  0.50130  0.66430  0.93700  1.0000 -0.0774563576
C   C25       1.0  0.98060  0.50680  0.28940  1.0000 0.6484498319
C   C26       1.0  0.97040  0.50170  0.17670  1.0000 -0.1094352193
C   C27       1.0  0.06870  0.52350  0.14810  1.0000 0.2550645408
C   C28       1.0  0.05720  0.51500  0.03900  1.0000 0.0026527214
C   C29       1.0  0.15700  0.53660  0.00850  1.0000 -0.0991244863
C   C30       1.0  0.14230  0.52780  0.90300  1.0000 -0.0774563576
C   C31       1.0  0.07440  0.73780  0.57020  1.0000 0.6333211002
C   C32       1.0  0.02880  0.82780  0.54500  1.0000 -0.1094352193
C   C33       1.0  0.10570  0.92790  0.54840  1.0000 0.2526160913
C   C34       1.0  0.06160  0.01050  0.51580  1.0000 -0.0024169678
C   C35       1.0  0.13800  0.11100  0.51560  1.0000 -0.0774563576
C   C36       1.0  0.09270  0.18960  0.48610  1.0000 -0.0637741859
O   O1        1.0  0.36080  0.65340  0.73250  1.0000 -0.5393119516
O   O2        1.0  0.30520  0.45220  0.64557  1.0000 -0.5573984447
O   O3        1.0  0.33410  0.33530  0.76110  1.0000 -0.3867294255
O   O4        1.0  0.11160  0.52410  0.69286  1.0000 -0.580450243
O   O5        1.0  0.91464  0.45720  0.63824  1.0000 -0.605130023
O   O6        1.0  0.82070  0.44580  0.77960  1.0000 -0.3867294255
O   O7        1.0  0.99550  0.36271  0.44746  1.0000 -0.6911126438
O   O8        1.0  0.81430  0.23960  0.39393  1.0000 -0.5221315982
O   O9        1.0  0.77680  0.04800  0.42120  1.0000 -0.380310184
O   O10       1.0  0.63920  0.34660  0.26750  1.0000 -0.5393119516
O   O11       1.0  0.69480  0.54780  0.35443  1.0000 -0.5573984447
O   O12       1.0  0.66590  0.66470  0.23890  1.0000 -0.380310184
O   O13       1.0  0.88840  0.47590  0.30714  1.0000 -0.580450243
O   O14       1.0  0.08536  0.54280  0.36176  1.0000 -0.605130023
O   O15       1.0  0.17930  0.55420  0.22040  1.0000 -0.3867294255
O   O16       1.0  0.00450  0.63729  0.55254  1.0000 -0.6911126438
O   O17       1.0  0.18570  0.76040  0.60607  1.0000 -0.5221315982
O   O18       1.0  0.22320  0.95200  0.57880  1.0000 -0.380310184
