# DDEC6 charges by PACMAN v1.1 (https://github.com/mtap-research/PACMAN-charge/)
data_2020[Zn][fes]2[ASR]1
_chemical_formula_sum              "Zn4 H24 C48 N8 O16"
_cell_length_a       9.3824
_cell_length_b       14.7232
_cell_length_c       15.8353
_cell_angle_alpha    90
_cell_angle_beta     114.333
_cell_angle_gamma    90

_symmetry_space_group_name_H-M    "P 1"
_symmetry_Int_Tables_number       1

loop_
  _symmetry_equiv_pos_as_xyz
  'x, y, z'

loop_
  _atom_site_type_symbol
  _atom_site_label
  _atom_site_symmetry_multiplicity
  _atom_site_fract_x
  _atom_site_fract_y
  _atom_site_fract_z
  _atom_site_occupancy
  _atom_site_charge
Zn  Zn1       1.0  0.29521  0.39173  0.77711  1.0000 0.7639516544
Zn  Zn2       1.0  0.70479  0.89173  0.72289  1.0000 0.7653376412
Zn  Zn3       1.0  0.70479  0.60827  0.22289  1.0000 0.7639516544
Zn  Zn4       1.0  0.29521  0.10827  0.27711  1.0000 0.7639516544
H   H1        1.0  0.15699  0.68286  0.92774  1.0000 0.1406722412
H   H2        1.0  0.99811  0.81026  0.89329  1.0000 0.116337547
H   H3        1.0  0.81721  0.67202  0.51697  1.0000 0.1406722412
H   H4        1.0  0.95770  0.61606  0.65529  1.0000 0.1406722412
H   H5        1.0  0.45966  0.84246  0.37452  1.0000 0.1406722412
H   H6        1.0  0.48268  0.90385  0.51476  1.0000 0.116337547
H   H7        1.0  0.84301  0.18286  0.57226  1.0000 0.1406722412
H   H8        1.0  0.00189  0.31026  0.60671  1.0000 0.116337547
H   H9        1.0  0.18279  0.17202  0.98303  1.0000 0.1406722412
H   H10       1.0  0.04230  0.11606  0.84471  1.0000 0.1406722412
H   H11       1.0  0.54034  0.34246  0.12548  1.0000 0.1406722412
H   H12       1.0  0.51732  0.40385  0.98524  1.0000 0.116337547
H   H13       1.0  0.84301  0.31714  0.07226  1.0000 0.1406722412
H   H14       1.0  0.00189  0.18974  0.10671  1.0000 0.116337547
H   H15       1.0  0.18279  0.32798  0.48303  1.0000 0.1406722412
H   H16       1.0  0.04230  0.38394  0.34471  1.0000 0.1406722412
H   H17       1.0  0.54034  0.15754  0.62548  1.0000 0.1406722412
H   H18       1.0  0.51732  0.09615  0.48524  1.0000 0.116337547
H   H19       1.0  0.15699  0.81714  0.42774  1.0000 0.1406722412
H   H20       1.0  0.99811  0.68974  0.39329  1.0000 0.116337547
H   H21       1.0  0.81721  0.82798  0.01697  1.0000 0.1406722412
H   H22       1.0  0.95770  0.88394  0.15529  1.0000 0.1406722412
H   H23       1.0  0.45966  0.65754  0.87452  1.0000 0.1406722412
H   H24       1.0  0.48268  0.59615  0.01476  1.0000 0.116337547
C   C1        1.0  0.17040  0.54860  0.81780  1.0000 0.5371601459
C   C2        1.0  0.07410  0.63510  0.79510  1.0000 0.0504638887
C   C3        1.0  0.08490  0.69430  0.86570  1.0000 -0.1550052661
C   C4        1.0  0.87490  0.73220  0.68950  1.0000 0.1740006565
C   C5        1.0  0.98980  0.76990  0.84470  1.0000 0.0907627743
C   C6        1.0  0.63690  0.75090  0.43120  1.0000 0.0504638887
C   C7        1.0  0.74780  0.71970  0.51520  1.0000 -0.1859181869
C   C8        1.0  0.75600  0.75910  0.59690  1.0000 0.1740006565
C   C9        1.0  0.96730  0.65490  0.70520  1.0000 -0.1736356216
C   C10       1.0  0.53690  0.82010  0.43120  1.0000 -0.1410538527
C   C11       1.0  0.55140  0.85630  0.51500  1.0000 0.1004520644
C   C12       1.0  0.62970  0.71290  0.34070  1.0000 0.5371601459
C   C13       1.0  0.82960  0.04860  0.68220  1.0000 0.5371601459
C   C14       1.0  0.92590  0.13510  0.70490  1.0000 0.0504638887
C   C15       1.0  0.91510  0.19430  0.63430  1.0000 -0.1550052661
C   C16       1.0  0.12510  0.23220  0.81050  1.0000 0.1740006565
C   C17       1.0  0.01020  0.26990  0.65530  1.0000 0.0907627743
C   C18       1.0  0.36310  0.25090  0.06880  1.0000 0.0504638887
C   C19       1.0  0.25220  0.21970  0.98480  1.0000 -0.1859181869
C   C20       1.0  0.24400  0.25910  0.90310  1.0000 0.1740006565
C   C21       1.0  0.03270  0.15490  0.79480  1.0000 -0.1736356216
C   C22       1.0  0.46310  0.32010  0.06880  1.0000 -0.1410538527
C   C23       1.0  0.44860  0.35630  0.98500  1.0000 0.1004520644
C   C24       1.0  0.37030  0.21290  0.15930  1.0000 0.5371601459
C   C25       1.0  0.82960  0.45140  0.18220  1.0000 0.5371601459
C   C26       1.0  0.92590  0.36490  0.20490  1.0000 0.0504638887
C   C27       1.0  0.91510  0.30570  0.13430  1.0000 -0.1550052661
C   C28       1.0  0.12510  0.26780  0.31050  1.0000 0.1740006565
C   C29       1.0  0.01020  0.23010  0.15530  1.0000 0.0907627743
C   C30       1.0  0.36310  0.24910  0.56880  1.0000 0.0504638887
C   C31       1.0  0.25220  0.28030  0.48480  1.0000 -0.1859181869
C   C32       1.0  0.24400  0.24090  0.40310  1.0000 0.1740006565
C   C33       1.0  0.03270  0.34510  0.29480  1.0000 -0.1736356216
C   C34       1.0  0.46310  0.17990  0.56880  1.0000 -0.1410538527
C   C35       1.0  0.44860  0.14370  0.48500  1.0000 0.1004520644
C   C36       1.0  0.37030  0.28710  0.65930  1.0000 0.5371601459
C   C37       1.0  0.17040  0.95140  0.31780  1.0000 0.5371601459
C   C38       1.0  0.07410  0.86490  0.29510  1.0000 0.0504638887
C   C39       1.0  0.08490  0.80570  0.36570  1.0000 -0.1546774703
C   C40       1.0  0.87490  0.76780  0.18950  1.0000 0.1740006565
C   C41       1.0  0.98980  0.73010  0.34470  1.0000 0.0907627743
C   C42       1.0  0.63690  0.74910  0.93120  1.0000 0.0504638887
C   C43       1.0  0.74780  0.78030  0.01520  1.0000 -0.1859181869
C   C44       1.0  0.75600  0.74090  0.09690  1.0000 0.1753148538
C   C45       1.0  0.96730  0.84510  0.20520  1.0000 -0.1736356216
C   C46       1.0  0.53690  0.67990  0.93120  1.0000 -0.1410538527
C   C47       1.0  0.55140  0.64370  0.01500  1.0000 0.1004520644
C   C48       1.0  0.62970  0.78710  0.84070  1.0000 0.5371601459
N   N1        1.0  0.88651  0.78851  0.75891  1.0000 -0.2314212128
N   N2        1.0  0.65826  0.82681  0.59606  1.0000 -0.2314212128
N   N3        1.0  0.11349  0.28851  0.74109  1.0000 -0.2314212128
N   N4        1.0  0.34174  0.32681  0.90394  1.0000 -0.2314212128
N   N5        1.0  0.11349  0.21149  0.24109  1.0000 -0.2314212128
N   N6        1.0  0.34174  0.17319  0.40394  1.0000 -0.2314212128
N   N7        1.0  0.88651  0.71149  0.25891  1.0000 -0.2314212128
N   N8        1.0  0.65826  0.67319  0.09606  1.0000 -0.2314212128
O   O1        1.0  0.24166  0.52822  0.89936  1.0000 -0.5374321389
O   O2        1.0  0.16725  0.50348  0.74815  1.0000 -0.5374321389
O   O3        1.0  0.56541  0.75897  0.26951  1.0000 -0.5518955934
O   O4        1.0  0.69256  0.63576  0.34486  1.0000 -0.5309437918
O   O5        1.0  0.75834  0.02822  0.60064  1.0000 -0.5374321389
O   O6        1.0  0.83275  0.00348  0.75185  1.0000 -0.5374321389
O   O7        1.0  0.43459  0.25897  0.23049  1.0000 -0.5518955934
O   O8        1.0  0.30744  0.13576  0.15514  1.0000 -0.5309437918
O   O9        1.0  0.75834  0.47178  0.10064  1.0000 -0.5374321389
O   O10       1.0  0.83275  0.49652  0.25185  1.0000 -0.5374321389
O   O11       1.0  0.43459  0.24103  0.73049  1.0000 -0.5518955934
O   O12       1.0  0.30744  0.36424  0.65514  1.0000 -0.5309437918
O   O13       1.0  0.24166  0.97178  0.39936  1.0000 -0.5309437918
O   O14       1.0  0.16725  0.99652  0.24815  1.0000 -0.5374321389
O   O15       1.0  0.56541  0.74103  0.76951  1.0000 -0.5518955934
O   O16       1.0  0.69256  0.86424  0.84486  1.0000 -0.5309437918
