# DDEC6 charges by PACMAN v1.1 (https://github.com/mtap-research/PACMAN-charge/)
data_2020[Co][nan]3[ASR]22
_chemical_formula_sum              "Co6 H6 C18 N18 Cl6"
_cell_length_a       14.5782
_cell_length_b       14.5782
_cell_length_c       14.5782
_cell_angle_alpha    116.59
_cell_angle_beta     116.59
_cell_angle_gamma    116.59

_symmetry_space_group_name_H-M    "P 1"
_symmetry_Int_Tables_number       1

loop_
  _symmetry_equiv_pos_as_xyz
  'x, y, z'

loop_
  _atom_site_type_symbol
  _atom_site_label
  _atom_site_symmetry_multiplicity
  _atom_site_fract_x
  _atom_site_fract_y
  _atom_site_fract_z
  _atom_site_occupancy
  _atom_site_charge
Co  Co1       1.0  0.28698  0.71302  0.00000  1.0000 0.5975609097
Co  Co2       1.0  0.71302  1.00000  0.28698  1.0000 0.5975609097
Co  Co3       1.0  1.00000  0.28698  0.71302  1.0000 0.5975609097
Co  Co4       1.0  0.71302  0.28698  0.00000  1.0000 0.5975609097
Co  Co5       1.0  0.28698  1.00000  0.71302  1.0000 0.5975609097
Co  Co6       1.0  1.00000  0.71302  0.28698  1.0000 0.5975609097
H   H1        1.0  0.19507  0.19507  0.76832  1.0000 0.1365709965
H   H2        1.0  0.19507  0.76832  0.19507  1.0000 0.1365709965
H   H3        1.0  0.76832  0.19507  0.19507  1.0000 0.1365709965
H   H4        1.0  0.80493  0.23168  0.80493  1.0000 0.1365709965
H   H5        1.0  0.80493  0.80493  0.23168  1.0000 0.1365709965
H   H6        1.0  0.23168  0.80493  0.80493  1.0000 0.1365709965
C   C1        1.0  0.36855  0.46288  0.93771  1.0000 0.1365709965
C   C2        1.0  0.46288  0.93771  0.36855  1.0000 0.1365709965
C   C3        1.0  0.93771  0.36855  0.46288  1.0000 0.1365709965
C   C4        1.0  0.63145  0.06229  0.53712  1.0000 0.1365709965
C   C5        1.0  0.53712  0.63145  0.06229  1.0000 0.1365709965
C   C6        1.0  0.06229  0.53712  0.63145  1.0000 0.1365709965
C   C7        1.0  0.63145  0.53712  0.06229  1.0000 0.1365709965
C   C8        1.0  0.53712  0.06229  0.63145  1.0000 0.1365709965
C   C9        1.0  0.06229  0.63145  0.53712  1.0000 0.1365709965
C   C10       1.0  0.36855  0.93771  0.46288  1.0000 0.1365709965
C   C11       1.0  0.46288  0.36855  0.93771  1.0000 0.1365709965
C   C12       1.0  0.93771  0.46288  0.36855  1.0000 0.1365709965
C   C13       1.0  0.32719  0.32719  0.86975  1.0000 -0.199084239
C   C14       1.0  0.32719  0.86975  0.32719  1.0000 -0.199084239
C   C15       1.0  0.86975  0.32719  0.32719  1.0000 -0.199084239
C   C16       1.0  0.67281  0.13025  0.67281  1.0000 -0.199084239
C   C17       1.0  0.67281  0.67281  0.13025  1.0000 -0.199084239
C   C18       1.0  0.13025  0.67281  0.67281  1.0000 -0.199084239
N   N1        1.0  0.26643  0.46529  0.89684  1.0000 -0.199084239
N   N2        1.0  0.46529  0.89684  0.26643  1.0000 -0.199084239
N   N3        1.0  0.89684  0.26643  0.46529  1.0000 -0.199084239
N   N4        1.0  0.73357  0.10316  0.53471  1.0000 -0.199084239
N   N5        1.0  0.53471  0.73357  0.10316  1.0000 -0.199084239
N   N6        1.0  0.10316  0.53471  0.73357  1.0000 -0.199084239
N   N7        1.0  0.73357  0.53471  0.10316  1.0000 -0.199084239
N   N8        1.0  0.53471  0.10316  0.73357  1.0000 -0.199084239
N   N9        1.0  0.10316  0.73357  0.53471  1.0000 -0.199084239
N   N10       1.0  0.26643  0.89684  0.46529  1.0000 -0.199084239
N   N11       1.0  0.46529  0.26643  0.89684  1.0000 -0.199084239
N   N12       1.0  0.89684  0.46529  0.26643  1.0000 -0.199084239
N   N13       1.0  0.37063  0.62937  0.00000  1.0000 -0.0026430324
N   N14       1.0  0.62937  0.00000  0.37063  1.0000 -0.0026430324
N   N15       1.0  1.00000  0.37063  0.62937  1.0000 -0.0026430324
N   N16       1.0  0.62937  0.37063  0.00000  1.0000 -0.0026430324
N   N17       1.0  0.37063  1.00000  0.62937  1.0000 -0.0026430324
N   N18       1.0  0.00000  0.62937  0.37063  1.0000 -0.0026430324
Cl  Cl1       1.0  0.07765  0.50000  0.92235  1.0000 -0.4088158385
Cl  Cl2       1.0  0.50000  0.92235  0.07765  1.0000 -0.404502772
Cl  Cl3       1.0  0.92235  0.07765  0.50000  1.0000 -0.4088158385
Cl  Cl4       1.0  0.92235  0.50000  0.07765  1.0000 -0.404502772
Cl  Cl5       1.0  0.50000  0.07765  0.92235  1.0000 -0.4088158385
Cl  Cl6       1.0  0.07765  0.92235  0.50000  1.0000 -0.4088158385
