# DDEC6 charges by PACMAN v1.1 (https://github.com/mtap-research/PACMAN-charge/)
data_2020[Co][sql]2[ASR]5
_chemical_formula_sum              "Co2 H22 C44 O8"
_cell_length_a       6.8764
_cell_length_b       15.7869
_cell_length_c       11.1644
_cell_angle_alpha    90
_cell_angle_beta     103.03
_cell_angle_gamma    90

_symmetry_space_group_name_H-M    "P 1"
_symmetry_Int_Tables_number       1

loop_
  _symmetry_equiv_pos_as_xyz
  'x, y, z'

loop_
  _atom_site_type_symbol
  _atom_site_label
  _atom_site_symmetry_multiplicity
  _atom_site_fract_x
  _atom_site_fract_y
  _atom_site_fract_z
  _atom_site_occupancy
  _atom_site_charge
Co  Co1       1.0  0.88145  0.50000  0.58892  1.0000 0.9327690634
Co  Co2       1.0  0.11855  0.50000  0.41108  1.0000 0.9327690634
H   H1        1.0  0.55811  0.32052  0.61228  1.0000 0.1285587085
H   H2        1.0  0.72801  0.20179  0.69660  1.0000 0.1201625332
H   H3        1.0  0.27351  0.13900  0.84940  1.0000 0.11424756
H   H4        1.0  0.11164  0.26157  0.77281  1.0000 0.1201625332
H   H5        1.0  0.84877  0.20746  0.93070  1.0000 0.11424756
H   H6        1.0  0.44189  0.32052  0.38772  1.0000 0.1285587085
H   H7        1.0  0.27199  0.20179  0.30340  1.0000 0.1201625332
H   H8        1.0  0.72649  0.13900  0.15060  1.0000 0.11424756
H   H9        1.0  0.88836  0.26157  0.22719  1.0000 0.1201625332
H   H10       1.0  0.15123  0.20746  0.06930  1.0000 0.11424756
H   H11       1.0  0.44189  0.67948  0.38772  1.0000 0.1285587085
H   H12       1.0  0.27199  0.79821  0.30340  1.0000 0.1201625332
H   H13       1.0  0.72649  0.86100  0.15060  1.0000 0.11424756
H   H14       1.0  0.88836  0.73843  0.22719  1.0000 0.1201625332
H   H15       1.0  0.15123  0.79254  0.06930  1.0000 0.11424756
H   H16       1.0  0.55811  0.67948  0.61228  1.0000 0.1285587085
H   H17       1.0  0.72801  0.79821  0.69660  1.0000 0.1201625332
H   H18       1.0  0.27351  0.86100  0.84940  1.0000 0.11424756
H   H19       1.0  0.11164  0.73843  0.77281  1.0000 0.1201625332
H   H20       1.0  0.84877  0.79254  0.93070  1.0000 0.11424756
H   H21       1.0  0.40346  0.00000  0.74501  1.0000 0.1285587085
H   H22       1.0  0.59654  0.00000  0.25499  1.0000 0.1285587085
C   C1        1.0  0.20400  0.38050  0.62780  1.0000 0.5917387637
C   C2        1.0  0.31670  0.30360  0.68360  1.0000 -0.0251169284
C   C3        1.0  0.50150  0.28470  0.66110  1.0000 -0.0874859509
C   C4        1.0  0.60230  0.21290  0.71070  1.0000 -0.1441418198
C   C5        1.0  0.51950  0.15630  0.78200  1.0000 0.0782691813
C   C6        1.0  0.33290  0.17570  0.80300  1.0000 -0.1483274517
C   C7        1.0  0.23470  0.24880  0.75580  1.0000 -0.1001571831
C   C8        1.0  0.90920  0.15630  0.95860  1.0000 -0.1579554942
C   C9        1.0  0.81280  0.07858  0.91490  1.0000 0.0222429359
C   C10       1.0  0.62280  0.07660  0.83210  1.0000 0.0222429359
C   C11       1.0  0.79600  0.38050  0.37220  1.0000 0.5917387637
C   C12       1.0  0.68330  0.30360  0.31640  1.0000 -0.0251169284
C   C13       1.0  0.49850  0.28470  0.33890  1.0000 -0.0874859509
C   C14       1.0  0.39770  0.21290  0.28930  1.0000 -0.1441418198
C   C15       1.0  0.48050  0.15630  0.21800  1.0000 0.0782691813
C   C16       1.0  0.66710  0.17570  0.19700  1.0000 -0.1483274517
C   C17       1.0  0.76530  0.24880  0.24420  1.0000 -0.1001571831
C   C18       1.0  0.09080  0.15630  0.04140  1.0000 -0.1579554942
C   C19       1.0  0.18720  0.07858  0.08510  1.0000 0.0222429359
C   C20       1.0  0.37720  0.07660  0.16790  1.0000 0.0222429359
C   C21       1.0  0.79600  0.61950  0.37220  1.0000 0.5917387637
C   C22       1.0  0.68330  0.69640  0.31640  1.0000 -0.0251169284
C   C23       1.0  0.49850  0.71530  0.33890  1.0000 -0.0874859509
C   C24       1.0  0.39770  0.78710  0.28930  1.0000 -0.1441418198
C   C25       1.0  0.48050  0.84370  0.21800  1.0000 0.0782691813
C   C26       1.0  0.66710  0.82430  0.19700  1.0000 -0.1483274517
C   C27       1.0  0.76530  0.75120  0.24420  1.0000 -0.1001571831
C   C28       1.0  0.09080  0.84370  0.04140  1.0000 -0.1579554942
C   C29       1.0  0.18720  0.92142  0.08510  1.0000 0.0222429359
C   C30       1.0  0.37720  0.92340  0.16790  1.0000 0.0222429359
C   C31       1.0  0.20400  0.61950  0.62780  1.0000 0.5917387637
C   C32       1.0  0.31670  0.69640  0.68360  1.0000 -0.0251169284
C   C33       1.0  0.50150  0.71530  0.66110  1.0000 -0.0874859509
C   C34       1.0  0.60230  0.78710  0.71070  1.0000 -0.1441418198
C   C35       1.0  0.51950  0.84370  0.78200  1.0000 0.0782691813
C   C36       1.0  0.33290  0.82430  0.80300  1.0000 -0.1483274517
C   C37       1.0  0.23470  0.75120  0.75580  1.0000 -0.1001571831
C   C38       1.0  0.90920  0.84370  0.95860  1.0000 -0.1579554942
C   C39       1.0  0.81280  0.92142  0.91490  1.0000 0.0222429359
C   C40       1.0  0.62280  0.92340  0.83210  1.0000 0.0222429359
C   C41       1.0  0.53100  0.00000  0.79560  1.0000 -0.1852797535
C   C42       1.0  0.90590  0.00000  0.95680  1.0000 -0.0155114704
C   C43       1.0  0.46900  0.00000  0.20440  1.0000 -0.1852797535
C   C44       1.0  0.09410  0.00000  0.04320  1.0000 -0.0149246906
O   O1        1.0  0.05840  0.40483  0.66750  1.0000 -0.5395514262
O   O2        1.0  0.25950  0.41402  0.53980  1.0000 -0.5395514262
O   O3        1.0  0.94160  0.40483  0.33250  1.0000 -0.5395514262
O   O4        1.0  0.74050  0.41402  0.46020  1.0000 -0.5395514262
O   O5        1.0  0.94160  0.59517  0.33250  1.0000 -0.5395514262
O   O6        1.0  0.74050  0.58598  0.46020  1.0000 -0.5395514262
O   O7        1.0  0.05840  0.59517  0.66750  1.0000 -0.5395514262
O   O8        1.0  0.25950  0.58598  0.53980  1.0000 -0.5395514262
