# DDEC6 charges by PACMAN v1.1 (https://github.com/mtap-research/PACMAN-charge/)
data_2020[Co][dia]3[ASR]1
_chemical_formula_sum              "Co2 H16 C24 N4 O8"
_cell_length_a       6.1722
_cell_length_b       12.6903
_cell_length_c       12.0062
_cell_angle_alpha    90
_cell_angle_beta     120.289
_cell_angle_gamma    90

_symmetry_space_group_name_H-M    "P 1"
_symmetry_Int_Tables_number       1

loop_
  _symmetry_equiv_pos_as_xyz
  'x, y, z'

loop_
  _atom_site_type_symbol
  _atom_site_label
  _atom_site_symmetry_multiplicity
  _atom_site_fract_x
  _atom_site_fract_y
  _atom_site_fract_z
  _atom_site_occupancy
  _atom_site_charge
Co  Co1       1.0  0.49910  0.24668  0.52660  1.0000 0.7587822204
Co  Co2       1.0  0.49910  0.75332  0.02660  1.0000 0.7587822204
H   H1        1.0  0.09290  0.01005  0.14129  1.0000 0.1397378606
H   H2        1.0  0.34866  0.15184  0.26500  1.0000 0.1021385913
H   H3        1.0  0.15098  0.49523  0.66432  1.0000 0.1397378606
H   H4        1.0  0.73464  0.02245  0.34292  1.0000 0.1397378606
H   H5        1.0  0.02151  0.14658  0.47684  1.0000 0.1179227804
H   H6        1.0  0.91095  0.49170  0.87289  1.0000 0.1397378606
H   H7        1.0  0.89171  0.63183  0.99290  1.0000 0.1179227804
H   H8        1.0  0.15073  0.62687  0.80062  1.0000 0.1021385913
H   H9        1.0  0.09290  0.98995  0.64129  1.0000 0.1397378606
H   H10       1.0  0.34866  0.84816  0.76500  1.0000 0.1021385913
H   H11       1.0  0.15098  0.50477  0.16432  1.0000 0.1397378606
H   H12       1.0  0.73464  0.97755  0.84292  1.0000 0.1397378606
H   H13       1.0  0.02151  0.85342  0.97684  1.0000 0.1179227804
H   H14       1.0  0.91095  0.50830  0.37289  1.0000 0.1397378606
H   H15       1.0  0.89171  0.36817  0.49290  1.0000 0.1179227804
H   H16       1.0  0.15073  0.37313  0.30062  1.0000 0.1021385913
C   C1        1.0  0.07280  0.03910  0.20840  1.0000 -0.1315820167
C   C2        1.0  0.23090  0.12110  0.28420  1.0000 0.0419687703
C   C3        1.0  0.30500  0.52100  0.73330  1.0000 -0.1494386519
C   C4        1.0  0.72820  0.90940  0.15340  1.0000 0.5317357158
C   C5        1.0  0.86620  0.04450  0.32900  1.0000 -0.1665979499
C   C6        1.0  0.03440  0.11970  0.40650  1.0000 0.1021385913
C   C7        1.0  0.75380  0.51980  0.85480  1.0000 -0.1494386519
C   C8        1.0  0.73950  0.60360  0.92510  1.0000 0.0720088532
C   C9        1.0  0.30570  0.60260  0.81170  1.0000 0.0720088532
C   C10       1.0  0.89110  0.00070  0.22960  1.0000 0.0419687703
C   C11       1.0  0.52930  0.47850  0.75700  1.0000 0.0419687703
C   C12       1.0  0.53580  0.38410  0.67880  1.0000 0.5317357158
C   C13       1.0  0.07280  0.96090  0.70840  1.0000 -0.1315820167
C   C14       1.0  0.23090  0.87890  0.78420  1.0000 0.0419687703
C   C15       1.0  0.30500  0.47900  0.23330  1.0000 -0.1494386519
C   C16       1.0  0.72820  0.09060  0.65340  1.0000 0.5317357158
C   C17       1.0  0.86620  0.95550  0.82900  1.0000 -0.1665979499
C   C18       1.0  0.03440  0.88030  0.90650  1.0000 0.1021385913
C   C19       1.0  0.75380  0.48020  0.35480  1.0000 -0.1494386519
C   C20       1.0  0.73950  0.39640  0.42510  1.0000 0.0720088532
C   C21       1.0  0.30570  0.39740  0.31170  1.0000 0.0720088532
C   C22       1.0  0.89110  0.99930  0.72960  1.0000 0.0419687703
C   C23       1.0  0.52930  0.52150  0.25700  1.0000 0.0419687703
C   C24       1.0  0.53580  0.61590  0.17880  1.0000 0.5317357158
N   N1        1.0  0.21050  0.15580  0.38790  1.0000 -0.2507474745
N   N2        1.0  0.52010  0.64770  0.90250  1.0000 -0.2560967083
N   N3        1.0  0.21050  0.84420  0.88790  1.0000 -0.2507474745
N   N4        1.0  0.52010  0.35230  0.40250  1.0000 -0.2560967083
O   O1        1.0  0.78060  0.86350  0.07480  1.0000 -0.5376744146
O   O2        1.0  0.32500  0.34830  0.59170  1.0000 -0.5376744146
O   O3        1.0  0.73750  0.35930  0.68770  1.0000 -0.5107935543
O   O4        1.0  0.55060  0.88220  0.16620  1.0000 -0.5033466096
O   O5        1.0  0.78060  0.13650  0.57480  1.0000 -0.5376744146
O   O6        1.0  0.32500  0.65170  0.09170  1.0000 -0.5376744146
O   O7        1.0  0.73750  0.64070  0.18770  1.0000 -0.5107935543
O   O8        1.0  0.55060  0.11780  0.66620  1.0000 -0.5033466096
