# DDEC6 charges by PACMAN v1.1 (https://github.com/mtap-research/PACMAN-charge/)
data_2020[Ni][sql]2[ASR]1
_chemical_formula_sum              "Ni4 H32 C60 O16"
_cell_length_a       11.4236
_cell_length_b       13.1867
_cell_length_c       14.8507
_cell_angle_alpha    90
_cell_angle_beta     90
_cell_angle_gamma    90

_symmetry_space_group_name_H-M    "P 1"
_symmetry_Int_Tables_number       1

loop_
  _symmetry_equiv_pos_as_xyz
  'x, y, z'

loop_
  _atom_site_type_symbol
  _atom_site_label
  _atom_site_symmetry_multiplicity
  _atom_site_fract_x
  _atom_site_fract_y
  _atom_site_fract_z
  _atom_site_occupancy
  _atom_site_charge
Ni  Ni1       1.0  0.00000  0.75000  0.83101  1.0000 0.7942367388
Ni  Ni2       1.0  0.00000  0.75000  0.65693  1.0000 0.8134292854
Ni  Ni3       1.0  0.00000  0.25000  0.16899  1.0000 0.7942367388
Ni  Ni4       1.0  0.00000  0.25000  0.34307  1.0000 0.8134292854
H   H1        1.0  0.82080  0.03860  0.62270  1.0000 0.128266766
H   H2        1.0  0.69390  0.32760  0.86010  1.0000 0.1211594784
H   H3        1.0  0.56890  0.40440  0.62150  1.0000 0.1211594784
H   H4        1.0  0.70900  0.18040  0.62390  1.0000 0.1211594784
H   H5        1.0  0.69250  0.54690  0.62060  1.0000 0.128266766
H   H6        1.0  0.81710  0.46950  0.85830  1.0000 0.128266766
H   H7        1.0  0.71050  0.96660  0.86870  1.0000 0.1211594784
H   H8        1.0  0.58340  0.10790  0.86610  1.0000 0.1211594784
H   H9        1.0  0.17920  0.46140  0.62270  1.0000 0.128266766
H   H10       1.0  0.30610  0.17240  0.86010  1.0000 0.1211594784
H   H11       1.0  0.43110  0.09560  0.62150  1.0000 0.1211594784
H   H12       1.0  0.29100  0.31960  0.62390  1.0000 0.1211594784
H   H13       1.0  0.30750  0.95310  0.62060  1.0000 0.128266766
H   H14       1.0  0.18290  0.03050  0.85830  1.0000 0.128266766
H   H15       1.0  0.28950  0.53340  0.86870  1.0000 0.1211594784
H   H16       1.0  0.41660  0.39210  0.86610  1.0000 0.1211594784
H   H17       1.0  0.17920  0.53860  0.37730  1.0000 0.128266766
H   H18       1.0  0.30610  0.82760  0.13990  1.0000 0.1211594784
H   H19       1.0  0.43110  0.90440  0.37850  1.0000 0.1211594784
H   H20       1.0  0.29100  0.68040  0.37610  1.0000 0.1211594784
H   H21       1.0  0.30750  0.04690  0.37940  1.0000 0.128266766
H   H22       1.0  0.18290  0.96950  0.14170  1.0000 0.128266766
H   H23       1.0  0.28950  0.46660  0.13130  1.0000 0.1211594784
H   H24       1.0  0.41660  0.60790  0.13390  1.0000 0.1211594784
H   H25       1.0  0.82080  0.96140  0.37730  1.0000 0.128266766
H   H26       1.0  0.69390  0.67240  0.13990  1.0000 0.1211594784
H   H27       1.0  0.56890  0.59560  0.37850  1.0000 0.1211594784
H   H28       1.0  0.70900  0.81960  0.37610  1.0000 0.1211594784
H   H29       1.0  0.69250  0.45310  0.37940  1.0000 0.128266766
H   H30       1.0  0.81710  0.53050  0.14170  1.0000 0.128266766
H   H31       1.0  0.71050  0.03340  0.13130  1.0000 0.1211594784
H   H32       1.0  0.58340  0.89210  0.13390  1.0000 0.1211594784
C   C1        1.0  0.55890  0.25010  0.73950  1.0000 -0.0223456224
C   C2        1.0  0.62470  0.34910  0.73970  1.0000 0.0781242071
C   C3        1.0  0.83840  0.61710  0.74700  1.0000 0.5720481096
C   C4        1.0  0.63340  0.15870  0.74210  1.0000 0.0731243459
C   C5        1.0  0.75790  0.52560  0.73920  1.0000 -0.0106853358
C   C6        1.0  0.77500  0.05280  0.67300  1.0000 -0.0817586747
C   C7        1.0  0.85680  0.90070  0.74630  1.0000 0.5720481096
C   C8        1.0  0.69360  0.37070  0.81060  1.0000 -0.1545054125
C   C9        1.0  0.61950  0.41610  0.66940  1.0000 -0.1687138187
C   C10       1.0  0.77850  0.99080  0.74290  1.0000 -0.0323272062
C   C11       1.0  0.70610  0.13670  0.67300  1.0000 -0.1443532663
C   C12       1.0  0.69210  0.50400  0.67040  1.0000 -0.0817586747
C   C13       1.0  0.76550  0.45770  0.81100  1.0000 -0.0879768107
C   C14       1.0  0.70780  0.00930  0.81890  1.0000 -0.0879768107
C   C15       1.0  0.63260  0.09450  0.81770  1.0000 -0.1627833204
C   C16       1.0  0.44110  0.24990  0.73950  1.0000 -0.0223456224
C   C17       1.0  0.37530  0.15090  0.73970  1.0000 0.0781242071
C   C18       1.0  0.16160  0.88290  0.74700  1.0000 0.5720481096
C   C19       1.0  0.36660  0.34130  0.74210  1.0000 0.0731243459
C   C20       1.0  0.24210  0.97440  0.73920  1.0000 -0.0106853358
C   C21       1.0  0.22500  0.44720  0.67300  1.0000 -0.0817586747
C   C22       1.0  0.14320  0.59930  0.74630  1.0000 0.5720481096
C   C23       1.0  0.30640  0.12930  0.81060  1.0000 -0.1545054125
C   C24       1.0  0.38050  0.08390  0.66940  1.0000 -0.1687138187
C   C25       1.0  0.22150  0.50920  0.74290  1.0000 -0.0323272062
C   C26       1.0  0.29390  0.36330  0.67300  1.0000 -0.1443532663
C   C27       1.0  0.30790  0.99600  0.67040  1.0000 -0.0879768107
C   C28       1.0  0.23450  0.04230  0.81100  1.0000 -0.0879768107
C   C29       1.0  0.29220  0.49070  0.81890  1.0000 -0.0879768107
C   C30       1.0  0.36740  0.40550  0.81770  1.0000 -0.1627833204
C   C31       1.0  0.44110  0.75010  0.26050  1.0000 -0.0223456224
C   C32       1.0  0.37530  0.84910  0.26030  1.0000 0.0781242071
C   C33       1.0  0.16160  0.11710  0.25300  1.0000 0.5720481096
C   C34       1.0  0.36660  0.65870  0.25790  1.0000 0.0731243459
C   C35       1.0  0.24210  0.02560  0.26080  1.0000 -0.0106853358
C   C36       1.0  0.22500  0.55280  0.32700  1.0000 -0.0817586747
C   C37       1.0  0.14320  0.40070  0.25370  1.0000 0.5720481096
C   C38       1.0  0.30640  0.87070  0.18940  1.0000 -0.1545054125
C   C39       1.0  0.38050  0.91610  0.33060  1.0000 -0.1687138187
C   C40       1.0  0.22150  0.49080  0.25710  1.0000 -0.0323272062
C   C41       1.0  0.29390  0.63670  0.32700  1.0000 -0.1443532663
C   C42       1.0  0.30790  0.00400  0.32960  1.0000 -0.0817586747
C   C43       1.0  0.23450  0.95770  0.18900  1.0000 -0.0879768107
C   C44       1.0  0.29220  0.50930  0.18110  1.0000 -0.0879768107
C   C45       1.0  0.36740  0.59450  0.18230  1.0000 -0.1627833204
C   C46       1.0  0.55890  0.74990  0.26050  1.0000 -0.0223456224
C   C47       1.0  0.62470  0.65090  0.26030  1.0000 0.0781242071
C   C48       1.0  0.83840  0.38290  0.25300  1.0000 0.5720481096
C   C49       1.0  0.63340  0.84130  0.25790  1.0000 0.0731243459
C   C50       1.0  0.75790  0.47440  0.26080  1.0000 -0.0106853358
C   C51       1.0  0.77500  0.94720  0.32700  1.0000 -0.0817586747
C   C52       1.0  0.85680  0.09930  0.25370  1.0000 0.5720481096
C   C53       1.0  0.69360  0.62930  0.18940  1.0000 -0.1545054125
C   C54       1.0  0.61950  0.58390  0.33060  1.0000 -0.1687138187
C   C55       1.0  0.77850  0.00920  0.25710  1.0000 -0.0323272062
C   C56       1.0  0.70610  0.86330  0.32700  1.0000 -0.1443532663
C   C57       1.0  0.69210  0.49600  0.32960  1.0000 -0.0817586747
C   C58       1.0  0.76550  0.54230  0.18900  1.0000 -0.0879768107
C   C59       1.0  0.70780  0.99070  0.18110  1.0000 -0.0879768107
C   C60       1.0  0.63260  0.90550  0.18230  1.0000 -0.1627833204
O   O1        1.0  0.88910  0.63590  0.81620  1.0000 -0.4684697198
O   O2        1.0  0.90760  0.87690  0.67220  1.0000 -0.5281887558
O   O3        1.0  0.86830  0.85120  0.82050  1.0000 -0.5281887558
O   O4        1.0  0.85610  0.66310  0.67100  1.0000 -0.5281887558
O   O5        1.0  0.11090  0.86410  0.81620  1.0000 -0.4684697198
O   O6        1.0  0.09240  0.62310  0.67220  1.0000 -0.5281887558
O   O7        1.0  0.13170  0.64880  0.82050  1.0000 -0.5281887558
O   O8        1.0  0.14390  0.83690  0.67100  1.0000 -0.5281887558
O   O9        1.0  0.11090  0.13590  0.18380  1.0000 -0.4684697198
O   O10       1.0  0.09240  0.37690  0.32780  1.0000 -0.5281887558
O   O11       1.0  0.13170  0.35120  0.17950  1.0000 -0.5281887558
O   O12       1.0  0.14390  0.16310  0.32900  1.0000 -0.5281887558
O   O13       1.0  0.88910  0.36410  0.18380  1.0000 -0.4684697198
O   O14       1.0  0.90760  0.12310  0.32780  1.0000 -0.5281887558
O   O15       1.0  0.86830  0.14880  0.17950  1.0000 -0.5281887558
O   O16       1.0  0.85610  0.33690  0.32900  1.0000 -0.5281887558
