# DDEC6 charges by PACMAN v1.1 (https://github.com/mtap-research/PACMAN-charge/)
data_2020[Tb][htp]3[ASR]1
_chemical_formula_sum              "Tb4 H40 C56 N4 O28"
_cell_length_a       9.3503
_cell_length_b       12.6819
_cell_length_c       14.4423
_cell_angle_alpha    90
_cell_angle_beta     90
_cell_angle_gamma    90

_symmetry_space_group_name_H-M    "P 1"
_symmetry_Int_Tables_number       1

loop_
  _symmetry_equiv_pos_as_xyz
  'x, y, z'

loop_
  _atom_site_type_symbol
  _atom_site_label
  _atom_site_symmetry_multiplicity
  _atom_site_fract_x
  _atom_site_fract_y
  _atom_site_fract_z
  _atom_site_occupancy
  _atom_site_charge
Tb  Tb1       1.0  0.49096  0.77792  0.54703  1.0000 2.1272307582
Tb  Tb2       1.0  0.00904  0.22208  0.04703  1.0000 2.1272307582
Tb  Tb3       1.0  0.50904  0.27792  0.95297  1.0000 2.1272307582
Tb  Tb4       1.0  0.99096  0.72208  0.45297  1.0000 2.1272307582
H   H1        1.0  0.80280  0.97242  0.22783  1.0000 0.1295376275
H   H2        1.0  0.42194  0.05265  0.11823  1.0000 0.1394904949
H   H3        1.0  0.44475  0.82082  0.30508  1.0000 0.1295376275
H   H4        1.0  0.21008  0.93773  0.14909  1.0000 0.1295376275
H   H5        1.0  0.21814  0.85696  0.23148  1.0000 0.1295376275
H   H6        1.0  0.33302  0.05115  0.37048  1.0000 0.1097580689
H   H7        1.0  0.04518  0.05858  0.43215  1.0000 0.1097580689
H   H8        1.0  0.16895  0.13876  0.45666  1.0000 0.1097580689
H   H9        1.0  0.98892  0.18110  0.32507  1.0000 0.1394904949
H   H10       1.0  0.14676  0.22505  0.32110  1.0000 0.1394904949
H   H11       1.0  0.69720  0.02758  0.72783  1.0000 0.1295376275
H   H12       1.0  0.07806  0.94735  0.61823  1.0000 0.1394904949
H   H13       1.0  0.05525  0.17918  0.80508  1.0000 0.1295376275
H   H14       1.0  0.28992  0.06227  0.64909  1.0000 0.1295376275
H   H15       1.0  0.28186  0.14304  0.73148  1.0000 0.1295376275
H   H16       1.0  0.16698  0.94885  0.87048  1.0000 0.1097580689
H   H17       1.0  0.45482  0.94142  0.93215  1.0000 0.1097580689
H   H18       1.0  0.33105  0.86124  0.95666  1.0000 0.1097580689
H   H19       1.0  0.51108  0.81890  0.82507  1.0000 0.1394904949
H   H20       1.0  0.35324  0.77495  0.82110  1.0000 0.1394904949
H   H21       1.0  0.19720  0.47242  0.27217  1.0000 0.1295376275
H   H22       1.0  0.57806  0.55265  0.38177  1.0000 0.1394904949
H   H23       1.0  0.55525  0.32082  0.19492  1.0000 0.1295376275
H   H24       1.0  0.78992  0.43773  0.35091  1.0000 0.1295376275
H   H25       1.0  0.78186  0.35696  0.26852  1.0000 0.1295376275
H   H26       1.0  0.66698  0.55115  0.12952  1.0000 0.1097580689
H   H27       1.0  0.95482  0.55858  0.06785  1.0000 0.1097580689
H   H28       1.0  0.83105  0.63876  0.04334  1.0000 0.1097580689
H   H29       1.0  0.01108  0.68110  0.17493  1.0000 0.1394904949
H   H30       1.0  0.85324  0.72505  0.17890  1.0000 0.1394904949
H   H31       1.0  0.30280  0.52758  0.77217  1.0000 0.1295376275
H   H32       1.0  0.92194  0.44735  0.88177  1.0000 0.1394904949
H   H33       1.0  0.94475  0.67918  0.69492  1.0000 0.1295376275
H   H34       1.0  0.71008  0.56227  0.85091  1.0000 0.1295376275
H   H35       1.0  0.71814  0.64304  0.76852  1.0000 0.1295376275
H   H36       1.0  0.83302  0.44885  0.62952  1.0000 0.1097580689
H   H37       1.0  0.54518  0.44142  0.56785  1.0000 0.1097580689
H   H38       1.0  0.66895  0.36124  0.54334  1.0000 0.1097580689
H   H39       1.0  0.48892  0.31890  0.67493  1.0000 0.1394904949
H   H40       1.0  0.64676  0.27495  0.67890  1.0000 0.1394904949
C   C1        1.0  0.71460  0.83050  0.35480  1.0000 0.6274518318
C   C2        1.0  0.63720  0.88860  0.27940  1.0000 -0.021633885
C   C3        1.0  0.70440  0.96280  0.22390  1.0000 -0.1196695246
C   C4        1.0  0.62350  0.02310  0.16180  1.0000 -0.021633885
C   C5        1.0  0.69130  0.10780  0.10260  1.0000 0.6480316766
C   C6        1.0  0.47590  0.00980  0.15710  1.0000 -0.1482659928
C   C7        1.0  0.40940  0.93350  0.20960  1.0000 0.0899155535
C   C8        1.0  0.48950  0.87280  0.27010  1.0000 -0.1603139393
C   C9        1.0  0.24740  0.92650  0.21100  1.0000 -0.1482659928
C   C10       1.0  0.23800  0.01850  0.36940  1.0000 -0.0730369292
C   C11       1.0  0.24260  0.91420  0.42060  1.0000 0.6480316766
C   C12       1.0  0.12810  0.09550  0.40800  1.0000 -0.1739068332
C   C13       1.0  0.08920  0.16150  0.32380  1.0000 -0.3253158383
C   C14       1.0  0.11990  0.09230  0.24460  1.0000 0.5065764733
C   C15       1.0  0.78540  0.16950  0.85480  1.0000 0.6274518318
C   C16       1.0  0.86280  0.11140  0.77940  1.0000 -0.021633885
C   C17       1.0  0.79560  0.03720  0.72390  1.0000 -0.1196695246
C   C18       1.0  0.87650  0.97690  0.66180  1.0000 -0.021633885
C   C19       1.0  0.80870  0.89220  0.60260  1.0000 0.6480316766
C   C20       1.0  0.02410  0.99020  0.65710  1.0000 -0.1482659928
C   C21       1.0  0.09060  0.06650  0.70960  1.0000 0.0899155535
C   C22       1.0  0.01050  0.12720  0.77010  1.0000 -0.1603139393
C   C23       1.0  0.25260  0.07350  0.71100  1.0000 -0.1482659928
C   C24       1.0  0.26200  0.98150  0.86940  1.0000 -0.0730369292
C   C25       1.0  0.25740  0.08580  0.92060  1.0000 0.6480316766
C   C26       1.0  0.37190  0.90450  0.90800  1.0000 -0.1750524394
C   C27       1.0  0.41080  0.83850  0.82380  1.0000 -0.3242600712
C   C28       1.0  0.38010  0.90770  0.74460  1.0000 0.5065764733
C   C29       1.0  0.28540  0.33050  0.14520  1.0000 0.6274518318
C   C30       1.0  0.36280  0.38860  0.22060  1.0000 -0.021633885
C   C31       1.0  0.29560  0.46280  0.27610  1.0000 -0.1196695246
C   C32       1.0  0.37650  0.52310  0.33820  1.0000 -0.021633885
C   C33       1.0  0.30870  0.60780  0.39740  1.0000 0.6480316766
C   C34       1.0  0.52410  0.50980  0.34290  1.0000 -0.1482659928
C   C35       1.0  0.59060  0.43350  0.29040  1.0000 0.0899155535
C   C36       1.0  0.51050  0.37280  0.22990  1.0000 -0.1603139393
C   C37       1.0  0.75260  0.42650  0.28900  1.0000 -0.1482659928
C   C38       1.0  0.76200  0.51850  0.13060  1.0000 -0.0730369292
C   C39       1.0  0.75740  0.41420  0.07940  1.0000 0.6480316766
C   C40       1.0  0.87190  0.59550  0.09200  1.0000 -0.1739068332
C   C41       1.0  0.91080  0.66150  0.17620  1.0000 -0.3242600712
C   C42       1.0  0.88010  0.59230  0.25540  1.0000 0.5065764733
C   C43       1.0  0.21460  0.66950  0.64520  1.0000 0.6274518318
C   C44       1.0  0.13720  0.61140  0.72060  1.0000 -0.021633885
C   C45       1.0  0.20440  0.53720  0.77610  1.0000 -0.1196695246
C   C46       1.0  0.12350  0.47690  0.83820  1.0000 -0.021633885
C   C47       1.0  0.19130  0.39220  0.89740  1.0000 0.6480316766
C   C48       1.0  0.97590  0.49020  0.84290  1.0000 -0.1482659928
C   C49       1.0  0.90940  0.56650  0.79040  1.0000 0.0899155535
C   C50       1.0  0.98950  0.62720  0.72990  1.0000 -0.1603139393
C   C51       1.0  0.74740  0.57350  0.78900  1.0000 -0.1482659928
C   C52       1.0  0.73800  0.48150  0.63060  1.0000 -0.0730369292
C   C53       1.0  0.74260  0.58580  0.57940  1.0000 0.6480316766
C   C54       1.0  0.62810  0.40450  0.59200  1.0000 -0.1739068332
C   C55       1.0  0.58920  0.33850  0.67620  1.0000 -0.3242600712
C   C56       1.0  0.61990  0.40770  0.75540  1.0000 0.5065764733
N   N1        1.0  0.19060  0.00600  0.27340  1.0000 -0.1041662596
N   N2        1.0  0.30940  0.99400  0.77340  1.0000 -0.1053907774
N   N3        1.0  0.80940  0.50600  0.22660  1.0000 -0.1053907774
N   N4        1.0  0.69060  0.49400  0.72660  1.0000 -0.1053907774
O   O1        1.0  0.64050  0.79060  0.41780  1.0000 -0.6896163277
O   O2        1.0  0.84830  0.82500  0.35040  1.0000 -0.6591644488
O   O3        1.0  0.82470  0.11580  0.10450  1.0000 -0.6591644488
O   O4        1.0  0.60990  0.16280  0.05460  1.0000 -0.6807615362
O   O5        1.0  0.34830  0.90110  0.47340  1.0000 -0.6807615362
O   O6        1.0  0.14370  0.85250  0.40920  1.0000 -0.6435416691
O   O7        1.0  0.08970  0.10800  0.16280  1.0000 -0.6035021596
O   O8        1.0  0.85950  0.20940  0.91780  1.0000 -0.6896163277
O   O9        1.0  0.65170  0.17500  0.85040  1.0000 -0.6591644488
O   O10       1.0  0.67530  0.88420  0.60450  1.0000 -0.6591644488
O   O11       1.0  0.89010  0.83720  0.55460  1.0000 -0.6807615362
O   O12       1.0  0.15170  0.09890  0.97340  1.0000 -0.6807615362
O   O13       1.0  0.35630  0.14750  0.90920  1.0000 -0.6435416691
O   O14       1.0  0.41030  0.89200  0.66280  1.0000 -0.6035021596
O   O15       1.0  0.35950  0.29060  0.08220  1.0000 -0.6896163277
O   O16       1.0  0.15170  0.32500  0.14960  1.0000 -0.6591644488
O   O17       1.0  0.17530  0.61580  0.39550  1.0000 -0.6591644488
O   O18       1.0  0.39010  0.66280  0.44540  1.0000 -0.6807615362
O   O19       1.0  0.65170  0.40110  0.02660  1.0000 -0.6807615362
O   O20       1.0  0.85630  0.35250  0.09080  1.0000 -0.6435416691
O   O21       1.0  0.91030  0.60800  0.33720  1.0000 -0.6035021596
O   O22       1.0  0.14050  0.70940  0.58220  1.0000 -0.6896163277
O   O23       1.0  0.34830  0.67500  0.64960  1.0000 -0.6591644488
O   O24       1.0  0.32470  0.38420  0.89550  1.0000 -0.6591644488
O   O25       1.0  0.10990  0.33720  0.94540  1.0000 -0.6807615362
O   O26       1.0  0.84830  0.59890  0.52660  1.0000 -0.6807615362
O   O27       1.0  0.64370  0.64750  0.59080  1.0000 -0.6435416691
O   O28       1.0  0.58970  0.39200  0.83720  1.0000 -0.6035021596
