# DDEC6 charges by PACMAN v1.1 (https://github.com/mtap-research/PACMAN-charge/)
data_2020[Cu][sql]2[ASR]17
_chemical_formula_sum              "Cu2 H8 C16 O8"
_cell_length_a       10.1149
_cell_length_b       10.1149
_cell_length_c       6.8289
_cell_angle_alpha    76.6512
_cell_angle_beta     103.349
_cell_angle_gamma    78.6502

_symmetry_space_group_name_H-M    "P 1"
_symmetry_Int_Tables_number       1

loop_
  _symmetry_equiv_pos_as_xyz
  'x, y, z'

loop_
  _atom_site_type_symbol
  _atom_site_label
  _atom_site_symmetry_multiplicity
  _atom_site_fract_x
  _atom_site_fract_y
  _atom_site_fract_z
  _atom_site_occupancy
  _atom_site_charge
Cu  Cu1       1.0  0.43347  0.56653  0.60678  1.0000 0.8149203272
Cu  Cu2       1.0  0.56653  0.43347  0.39322  1.0000 0.8149203272
H   H1        1.0  0.57310  0.00650  0.70270  1.0000 0.1274847077
H   H2        1.0  0.43200  0.20420  0.09090  1.0000 0.1274847077
H   H3        1.0  0.00650  0.57310  0.29730  1.0000 0.1274847077
H   H4        1.0  0.20420  0.43200  0.90910  1.0000 0.1274847077
H   H5        1.0  0.42690  0.99350  0.29730  1.0000 0.1274847077
H   H6        1.0  0.56800  0.79580  0.90910  1.0000 0.1274847077
H   H7        1.0  0.99350  0.42690  0.70270  1.0000 0.1274847077
H   H8        1.0  0.79580  0.56800  0.09090  1.0000 0.1274847077
C   C1        1.0  0.50460  0.26540  0.73530  1.0000 0.5706215115
C   C2        1.0  0.50270  0.12810  0.87200  1.0000 -0.0205127349
C   C3        1.0  0.54340  0.00380  0.82240  1.0000 -0.0990371885
C   C4        1.0  0.45910  0.12210  0.05430  1.0000 -0.0990371885
C   C5        1.0  0.26540  0.50460  0.26470  1.0000 0.5706215115
C   C6        1.0  0.12810  0.50270  0.12800  1.0000 -0.0205127349
C   C7        1.0  0.00380  0.54340  0.17760  1.0000 -0.0990371885
C   C8        1.0  0.12210  0.45910  0.94570  1.0000 -0.0990371885
C   C9        1.0  0.49540  0.73460  0.26470  1.0000 0.5706215115
C   C10       1.0  0.49730  0.87190  0.12800  1.0000 -0.0205127349
C   C11       1.0  0.45660  0.99620  0.17760  1.0000 -0.0990371885
C   C12       1.0  0.54090  0.87790  0.94570  1.0000 -0.0990371885
C   C13       1.0  0.73460  0.49540  0.73530  1.0000 0.5706215115
C   C14       1.0  0.87190  0.49730  0.87200  1.0000 -0.0205127349
C   C15       1.0  0.99620  0.45660  0.82240  1.0000 -0.0990371885
C   C16       1.0  0.87790  0.54090  0.05430  1.0000 -0.0990371885
O   O1        1.0  0.44980  0.37500  0.77450  1.0000 -0.5099927573
O   O2        1.0  0.55850  0.26250  0.58910  1.0000 -0.5044712214
O   O3        1.0  0.37500  0.44980  0.22550  1.0000 -0.5099927573
O   O4        1.0  0.26250  0.55850  0.41090  1.0000 -0.5044712214
O   O5        1.0  0.55020  0.62500  0.22550  1.0000 -0.5099927573
O   O6        1.0  0.44150  0.73750  0.41090  1.0000 -0.5044712214
O   O7        1.0  0.62500  0.55020  0.77450  1.0000 -0.5099927573
O   O8        1.0  0.73750  0.44150  0.58910  1.0000 -0.5044712214
