# DDEC6 charges by PACMAN v1.1 (https://github.com/mtap-research/PACMAN-charge/)
data_2020[Cd][fes]2[ASR]2
_chemical_formula_sum              "Cd8 H88 C136 N24 O32"
_cell_length_a       23.935
_cell_length_b       23.935
_cell_length_c       10.8665
_cell_angle_alpha    90
_cell_angle_beta     90
_cell_angle_gamma    90

_symmetry_space_group_name_H-M    "P 1"
_symmetry_Int_Tables_number       1

loop_
  _symmetry_equiv_pos_as_xyz
  'x, y, z'

loop_
  _atom_site_type_symbol
  _atom_site_label
  _atom_site_symmetry_multiplicity
  _atom_site_fract_x
  _atom_site_fract_y
  _atom_site_fract_z
  _atom_site_occupancy
  _atom_site_charge
Cd  Cd1       1.0  0.15226  0.68226  0.23521  1.0000 0.9191607472
Cd  Cd2       1.0  0.84774  0.31774  0.23521  1.0000 0.9191607472
Cd  Cd3       1.0  0.68226  0.84774  0.76479  1.0000 0.9191607472
Cd  Cd4       1.0  0.31774  0.15226  0.76479  1.0000 0.9191607472
Cd  Cd5       1.0  0.34774  0.18226  0.26479  1.0000 0.9191607472
Cd  Cd6       1.0  0.65226  0.81774  0.26479  1.0000 0.9191607472
Cd  Cd7       1.0  0.81774  0.34774  0.73521  1.0000 0.9191607472
Cd  Cd8       1.0  0.18226  0.65226  0.73521  1.0000 0.9191607472
H   H1        1.0  0.97933  0.26321  0.19688  1.0000 0.1125540238
H   H2        1.0  0.93482  0.34750  0.48066  1.0000 0.129694874
H   H3        1.0  0.02961  0.36997  0.56951  1.0000 0.1125540238
H   H4        1.0  0.02274  0.41120  0.28481  1.0000 0.1125540238
H   H5        1.0  0.05333  0.49504  0.20390  1.0000 0.1125540238
H   H6        1.0  0.15523  0.51675  0.49351  1.0000 0.1196164456
H   H7        1.0  0.12689  0.43133  0.57184  1.0000 0.1196164456
H   H8        1.0  0.14245  0.31862  0.38363  1.0000 0.1125540238
H   H9        1.0  0.21486  0.26372  0.45451  1.0000 0.129694874
H   H10       1.0  0.13908  0.25535  0.78458  1.0000 0.1196164456
H   H11       1.0  0.06957  0.31116  0.71571  1.0000 0.1196164456
H   H12       1.0  0.02067  0.73679  0.19688  1.0000 0.1125540238
H   H13       1.0  0.06518  0.65250  0.48066  1.0000 0.129694874
H   H14       1.0  0.97039  0.63003  0.56951  1.0000 0.1125540238
H   H15       1.0  0.97726  0.58880  0.28481  1.0000 0.1125540238
H   H16       1.0  0.94667  0.50496  0.20390  1.0000 0.1125540238
H   H17       1.0  0.84477  0.48325  0.49351  1.0000 0.1196164456
H   H18       1.0  0.87311  0.56867  0.57184  1.0000 0.1196164456
H   H19       1.0  0.85755  0.68138  0.38363  1.0000 0.1125540238
H   H20       1.0  0.78514  0.73628  0.45451  1.0000 0.129694874
H   H21       1.0  0.86092  0.74465  0.78458  1.0000 0.1196164456
H   H22       1.0  0.93043  0.68884  0.71571  1.0000 0.1196164456
H   H23       1.0  0.26321  0.02067  0.80312  1.0000 0.1125540238
H   H24       1.0  0.34750  0.06518  0.51934  1.0000 0.129694874
H   H25       1.0  0.36997  0.97039  0.43049  1.0000 0.1125540238
H   H26       1.0  0.41120  0.97726  0.71519  1.0000 0.1125540238
H   H27       1.0  0.49504  0.94667  0.79610  1.0000 0.1125540238
H   H28       1.0  0.51675  0.84477  0.50649  1.0000 0.1196164456
H   H29       1.0  0.43133  0.87311  0.42816  1.0000 0.1196164456
H   H30       1.0  0.31862  0.85755  0.61637  1.0000 0.1125540238
H   H31       1.0  0.26372  0.78514  0.54549  1.0000 0.129694874
H   H32       1.0  0.25535  0.86092  0.21542  1.0000 0.1196164456
H   H33       1.0  0.31116  0.93043  0.28429  1.0000 0.1196164456
H   H34       1.0  0.73679  0.97933  0.80312  1.0000 0.1125540238
H   H35       1.0  0.65250  0.93482  0.51934  1.0000 0.129694874
H   H36       1.0  0.63003  0.02961  0.43049  1.0000 0.1125540238
H   H37       1.0  0.58880  0.02274  0.71519  1.0000 0.1125540238
H   H38       1.0  0.50496  0.05333  0.79610  1.0000 0.1125540238
H   H39       1.0  0.48325  0.15523  0.50649  1.0000 0.1196164456
H   H40       1.0  0.56867  0.12689  0.42816  1.0000 0.1196164456
H   H41       1.0  0.68138  0.14245  0.61637  1.0000 0.1125540238
H   H42       1.0  0.73628  0.21486  0.54549  1.0000 0.129694874
H   H43       1.0  0.74465  0.13908  0.21542  1.0000 0.1196164456
H   H44       1.0  0.68884  0.06957  0.28429  1.0000 0.1196164456
H   H45       1.0  0.52067  0.76321  0.30312  1.0000 0.1125540238
H   H46       1.0  0.56518  0.84750  0.01934  1.0000 0.129694874
H   H47       1.0  0.47039  0.86997  0.93049  1.0000 0.1125540238
H   H48       1.0  0.47726  0.91120  0.21519  1.0000 0.1125540238
H   H49       1.0  0.44667  0.99504  0.29610  1.0000 0.1125540238
H   H50       1.0  0.34477  0.01675  0.00649  1.0000 0.1196164456
H   H51       1.0  0.37311  0.93133  0.92816  1.0000 0.1196164456
H   H52       1.0  0.35755  0.81862  0.11637  1.0000 0.1125540238
H   H53       1.0  0.28514  0.76372  0.04549  1.0000 0.129694874
H   H54       1.0  0.36092  0.75535  0.71542  1.0000 0.1196164456
H   H55       1.0  0.43043  0.81116  0.78429  1.0000 0.1196164456
H   H56       1.0  0.47933  0.23679  0.30312  1.0000 0.1125540238
H   H57       1.0  0.43482  0.15250  0.01934  1.0000 0.129694874
H   H58       1.0  0.52961  0.13003  0.93049  1.0000 0.1125540238
H   H59       1.0  0.52274  0.08880  0.21519  1.0000 0.1125540238
H   H60       1.0  0.55333  0.00496  0.29610  1.0000 0.1125540238
H   H61       1.0  0.65523  0.98325  0.00649  1.0000 0.1196164456
H   H62       1.0  0.62689  0.06867  0.92816  1.0000 0.1196164456
H   H63       1.0  0.64245  0.18138  0.11637  1.0000 0.1125540238
H   H64       1.0  0.71486  0.23628  0.04549  1.0000 0.129694874
H   H65       1.0  0.63908  0.24465  0.71542  1.0000 0.1196164456
H   H66       1.0  0.56957  0.18884  0.78429  1.0000 0.1196164456
H   H67       1.0  0.23679  0.52067  0.69688  1.0000 0.1125540238
H   H68       1.0  0.15250  0.56518  0.98066  1.0000 0.129694874
H   H69       1.0  0.13003  0.47039  0.06951  1.0000 0.1125540238
H   H70       1.0  0.08880  0.47726  0.78481  1.0000 0.1125540238
H   H71       1.0  0.00496  0.44667  0.70390  1.0000 0.1125540238
H   H72       1.0  0.98325  0.34477  0.99351  1.0000 0.1196164456
H   H73       1.0  0.06867  0.37311  0.07184  1.0000 0.1196164456
H   H74       1.0  0.18138  0.35755  0.88363  1.0000 0.1125540238
H   H75       1.0  0.23628  0.28514  0.95451  1.0000 0.129694874
H   H76       1.0  0.24465  0.36092  0.28458  1.0000 0.1196164456
H   H77       1.0  0.18884  0.43043  0.21571  1.0000 0.1196164456
H   H78       1.0  0.76321  0.47933  0.69688  1.0000 0.1125540238
H   H79       1.0  0.84750  0.43482  0.98066  1.0000 0.129694874
H   H80       1.0  0.86997  0.52961  0.06951  1.0000 0.1125540238
H   H81       1.0  0.91120  0.52274  0.78481  1.0000 0.1125540238
H   H82       1.0  0.99504  0.55333  0.70390  1.0000 0.1125540238
H   H83       1.0  0.01675  0.65523  0.99351  1.0000 0.1196164456
H   H84       1.0  0.93133  0.62689  0.07184  1.0000 0.1196164456
H   H85       1.0  0.81862  0.64245  0.88363  1.0000 0.1125540238
H   H86       1.0  0.76372  0.71486  0.95451  1.0000 0.129694874
H   H87       1.0  0.75535  0.63908  0.28458  1.0000 0.1196164456
H   H88       1.0  0.81116  0.56957  0.21571  1.0000 0.1196164456
C   C1        1.0  0.98131  0.28470  0.26800  1.0000 0.1479894586
C   C2        1.0  0.95591  0.32974  0.42040  1.0000 0.1196164456
C   C3        1.0  0.05090  0.35867  0.49660  1.0000 -0.0383083511
C   C4        1.0  0.07132  0.41247  0.43720  1.0000 0.0677080124
C   C5        1.0  0.04954  0.43199  0.32660  1.0000 -0.1587523297
C   C6        1.0  0.06790  0.48263  0.27840  1.0000 -0.1089231547
C   C7        1.0  0.10726  0.51500  0.33850  1.0000 -0.0263440299
C   C8        1.0  0.12910  0.49546  0.45100  1.0000 -0.0954058662
C   C9        1.0  0.11160  0.44438  0.49860  1.0000 -0.1587523297
C   C10       1.0  0.12493  0.57080  0.28460  1.0000 0.5302009147
C   C11       1.0  0.09807  0.32134  0.54340  1.0000 0.0647321131
C   C12       1.0  0.14222  0.30600  0.46460  1.0000 -0.1483283292
C   C13       1.0  0.18510  0.27240  0.50620  1.0000 -0.0900885083
C   C14       1.0  0.18380  0.25126  0.62740  1.0000 -0.0055509136
C   C15       1.0  0.13988  0.26780  0.70350  1.0000 -0.0900885083
C   C16       1.0  0.09840  0.30140  0.66260  1.0000 -0.1587523297
C   C17       1.0  0.23040  0.21480  0.67580  1.0000 0.5367908415
C   C18       1.0  0.01869  0.71530  0.26800  1.0000 0.1479894586
C   C19       1.0  0.04409  0.67026  0.42040  1.0000 0.1196164456
C   C20       1.0  0.94910  0.64133  0.49660  1.0000 -0.0383083511
C   C21       1.0  0.92868  0.58753  0.43720  1.0000 0.0677080124
C   C22       1.0  0.95046  0.56801  0.32660  1.0000 -0.1587523297
C   C23       1.0  0.93210  0.51737  0.27840  1.0000 -0.1089231547
C   C24       1.0  0.89274  0.48500  0.33850  1.0000 -0.0263440299
C   C25       1.0  0.87090  0.50454  0.45100  1.0000 -0.0954058662
C   C26       1.0  0.88840  0.55562  0.49860  1.0000 -0.1587523297
C   C27       1.0  0.87507  0.42920  0.28460  1.0000 0.5302009147
C   C28       1.0  0.90193  0.67866  0.54340  1.0000 0.0647321131
C   C29       1.0  0.85778  0.69400  0.46460  1.0000 -0.1483283292
C   C30       1.0  0.81490  0.72760  0.50620  1.0000 -0.0900885083
C   C31       1.0  0.81620  0.74874  0.62740  1.0000 -0.0055509136
C   C32       1.0  0.86012  0.73220  0.70350  1.0000 -0.0900885083
C   C33       1.0  0.90160  0.69860  0.66260  1.0000 -0.1587523297
C   C34       1.0  0.76960  0.78520  0.67580  1.0000 0.5367908415
C   C35       1.0  0.28470  0.01869  0.73200  1.0000 0.1479894586
C   C36       1.0  0.32974  0.04409  0.57960  1.0000 0.1196164456
C   C37       1.0  0.35867  0.94910  0.50340  1.0000 -0.0383083511
C   C38       1.0  0.41247  0.92868  0.56280  1.0000 0.0677080124
C   C39       1.0  0.43199  0.95046  0.67340  1.0000 -0.1587523297
C   C40       1.0  0.48263  0.93210  0.72160  1.0000 -0.1089231547
C   C41       1.0  0.51500  0.89274  0.66150  1.0000 -0.0263440299
C   C42       1.0  0.49546  0.87090  0.54900  1.0000 -0.0954058662
C   C43       1.0  0.44438  0.88840  0.50140  1.0000 -0.1587523297
C   C44       1.0  0.57080  0.87507  0.71540  1.0000 0.5302009147
C   C45       1.0  0.32134  0.90193  0.45660  1.0000 0.0647321131
C   C46       1.0  0.30600  0.85778  0.53540  1.0000 -0.1483283292
C   C47       1.0  0.27240  0.81490  0.49380  1.0000 -0.0900885083
C   C48       1.0  0.25126  0.81620  0.37260  1.0000 -0.0055509136
C   C49       1.0  0.26780  0.86012  0.29650  1.0000 -0.0900885083
C   C50       1.0  0.30140  0.90160  0.33740  1.0000 -0.1587523297
C   C51       1.0  0.21480  0.76960  0.32420  1.0000 0.5367908415
C   C52       1.0  0.71530  0.98131  0.73200  1.0000 0.1479894586
C   C53       1.0  0.67026  0.95591  0.57960  1.0000 0.1196164456
C   C54       1.0  0.64133  0.05090  0.50340  1.0000 -0.0383083511
C   C55       1.0  0.58753  0.07132  0.56280  1.0000 0.0677080124
C   C56       1.0  0.56801  0.04954  0.67340  1.0000 -0.1587523297
C   C57       1.0  0.51737  0.06790  0.72160  1.0000 -0.1089231547
C   C58       1.0  0.48500  0.10726  0.66150  1.0000 -0.0263440299
C   C59       1.0  0.50454  0.12910  0.54900  1.0000 -0.0954058662
C   C60       1.0  0.55562  0.11160  0.50140  1.0000 -0.1587523297
C   C61       1.0  0.42920  0.12493  0.71540  1.0000 0.5302009147
C   C62       1.0  0.67866  0.09807  0.45660  1.0000 0.0647321131
C   C63       1.0  0.69400  0.14222  0.53540  1.0000 -0.1483283292
C   C64       1.0  0.72760  0.18510  0.49380  1.0000 -0.0900885083
C   C65       1.0  0.74874  0.18380  0.37260  1.0000 -0.0055509136
C   C66       1.0  0.73220  0.13988  0.29650  1.0000 -0.0900885083
C   C67       1.0  0.69860  0.09840  0.33740  1.0000 -0.1587523297
C   C68       1.0  0.78520  0.23040  0.32420  1.0000 0.5367908415
C   C69       1.0  0.51869  0.78470  0.23200  1.0000 0.1479894586
C   C70       1.0  0.54409  0.82974  0.07960  1.0000 0.1196164456
C   C71       1.0  0.44910  0.85867  0.00340  1.0000 -0.0383083511
C   C72       1.0  0.42868  0.91247  0.06280  1.0000 0.0677080124
C   C73       1.0  0.45046  0.93199  0.17340  1.0000 -0.1587523297
C   C74       1.0  0.43210  0.98263  0.22160  1.0000 -0.1089231547
C   C75       1.0  0.39274  0.01500  0.16150  1.0000 -0.0263440299
C   C76       1.0  0.37090  0.99546  0.04900  1.0000 -0.0954058662
C   C77       1.0  0.38840  0.94438  0.00140  1.0000 -0.1587523297
C   C78       1.0  0.37507  0.07080  0.21540  1.0000 0.5302009147
C   C79       1.0  0.40193  0.82134  0.95660  1.0000 0.0647321131
C   C80       1.0  0.35778  0.80600  0.03540  1.0000 -0.1483283292
C   C81       1.0  0.31490  0.77240  0.99380  1.0000 -0.0900885083
C   C82       1.0  0.31620  0.75126  0.87260  1.0000 -0.0055509136
C   C83       1.0  0.36012  0.76780  0.79650  1.0000 -0.0900885083
C   C84       1.0  0.40160  0.80140  0.83740  1.0000 -0.1587523297
C   C85       1.0  0.26960  0.71480  0.82420  1.0000 0.5367908415
C   C86       1.0  0.48131  0.21530  0.23200  1.0000 0.1479894586
C   C87       1.0  0.45591  0.17026  0.07960  1.0000 0.1196164456
C   C88       1.0  0.55090  0.14133  0.00340  1.0000 -0.0383083511
C   C89       1.0  0.57132  0.08753  0.06280  1.0000 0.0677080124
C   C90       1.0  0.54954  0.06801  0.17340  1.0000 -0.1587523297
C   C91       1.0  0.56790  0.01737  0.22160  1.0000 -0.1089231547
C   C92       1.0  0.60726  0.98500  0.16150  1.0000 -0.0263440299
C   C93       1.0  0.62910  0.00454  0.04900  1.0000 -0.0954058662
C   C94       1.0  0.61160  0.05562  0.00140  1.0000 -0.1587523297
C   C95       1.0  0.62493  0.92920  0.21540  1.0000 0.5302009147
C   C96       1.0  0.59807  0.17866  0.95660  1.0000 0.0647321131
C   C97       1.0  0.64222  0.19400  0.03540  1.0000 -0.1483283292
C   C98       1.0  0.68510  0.22760  0.99380  1.0000 -0.0900885083
C   C99       1.0  0.68380  0.24874  0.87260  1.0000 -0.0055509136
C   C100      1.0  0.63988  0.23220  0.79650  1.0000 -0.0900885083
C   C101      1.0  0.59840  0.19860  0.83740  1.0000 -0.1587523297
C   C102      1.0  0.73040  0.28520  0.82420  1.0000 0.5367908415
C   C103      1.0  0.21530  0.51869  0.76800  1.0000 0.1479894586
C   C104      1.0  0.17026  0.54409  0.92040  1.0000 0.1196164456
C   C105      1.0  0.14133  0.44910  0.99660  1.0000 -0.0383083511
C   C106      1.0  0.08753  0.42868  0.93720  1.0000 0.0677080124
C   C107      1.0  0.06801  0.45046  0.82660  1.0000 -0.1587523297
C   C108      1.0  0.01737  0.43210  0.77840  1.0000 -0.1089231547
C   C109      1.0  0.98500  0.39274  0.83850  1.0000 -0.0263440299
C   C110      1.0  0.00454  0.37090  0.95100  1.0000 -0.0954058662
C   C111      1.0  0.05562  0.38840  0.99860  1.0000 -0.1587523297
C   C112      1.0  0.92920  0.37507  0.78460  1.0000 0.5302009147
C   C113      1.0  0.17866  0.40193  0.04340  1.0000 0.0677080124
C   C114      1.0  0.19400  0.35778  0.96460  1.0000 -0.1483283292
C   C115      1.0  0.22760  0.31490  0.00620  1.0000 -0.0900885083
C   C116      1.0  0.24874  0.31620  0.12740  1.0000 -0.0055509136
C   C117      1.0  0.23220  0.36012  0.20350  1.0000 -0.0900885083
C   C118      1.0  0.19860  0.40160  0.16260  1.0000 -0.1587523297
C   C119      1.0  0.28520  0.26960  0.17580  1.0000 0.5367908415
C   C120      1.0  0.78470  0.48131  0.76800  1.0000 0.1479894586
C   C121      1.0  0.82974  0.45591  0.92040  1.0000 0.1196164456
C   C122      1.0  0.85867  0.55090  0.99660  1.0000 -0.0383083511
C   C123      1.0  0.91247  0.57132  0.93720  1.0000 0.0677080124
C   C124      1.0  0.93199  0.54954  0.82660  1.0000 -0.1587523297
C   C125      1.0  0.98263  0.56790  0.77840  1.0000 -0.1089231547
C   C126      1.0  0.01500  0.60726  0.83850  1.0000 -0.0263440299
C   C127      1.0  0.99546  0.62910  0.95100  1.0000 -0.0954058662
C   C128      1.0  0.94438  0.61160  0.99860  1.0000 -0.1587523297
C   C129      1.0  0.07080  0.62493  0.78460  1.0000 0.5302009147
C   C130      1.0  0.82134  0.59807  0.04340  1.0000 0.0647321131
C   C131      1.0  0.80600  0.64222  0.96460  1.0000 -0.1483283292
C   C132      1.0  0.77240  0.68510  0.00620  1.0000 -0.0900885083
C   C133      1.0  0.75126  0.68380  0.12740  1.0000 -0.0055509136
C   C134      1.0  0.76780  0.63988  0.20350  1.0000 -0.0900885083
C   C135      1.0  0.80140  0.59840  0.16260  1.0000 -0.1587523297
C   C136      1.0  0.71480  0.73040  0.17580  1.0000 0.5367908415
N   N1        1.0  0.01156  0.32824  0.41760  1.0000 0.129694874
N   N2        1.0  0.02945  0.29942  0.31790  1.0000 -0.2380669701
N   N3        1.0  0.93531  0.30289  0.32700  1.0000 -0.3358681787
N   N4        1.0  0.98844  0.67176  0.41760  1.0000 0.129694874
N   N5        1.0  0.97055  0.70058  0.31790  1.0000 -0.2380669701
N   N6        1.0  0.06469  0.69711  0.32700  1.0000 -0.3358681787
N   N7        1.0  0.32824  0.98844  0.58240  1.0000 0.129694874
N   N8        1.0  0.29942  0.97055  0.68210  1.0000 -0.2380669701
N   N9        1.0  0.30289  0.06469  0.67300  1.0000 -0.3358681787
N   N10       1.0  0.67176  0.01156  0.58240  1.0000 0.129694874
N   N11       1.0  0.70058  0.02945  0.68210  1.0000 -0.2380669701
N   N12       1.0  0.69711  0.93531  0.67300  1.0000 -0.3358681787
N   N13       1.0  0.48844  0.82824  0.08240  1.0000 0.129694874
N   N14       1.0  0.47055  0.79942  0.18210  1.0000 -0.2380669701
N   N15       1.0  0.56469  0.80289  0.17300  1.0000 -0.3358681787
N   N16       1.0  0.51156  0.17176  0.08240  1.0000 0.129694874
N   N17       1.0  0.52945  0.20058  0.18210  1.0000 -0.2380669701
N   N18       1.0  0.43531  0.19711  0.17300  1.0000 -0.3358681787
N   N19       1.0  0.17176  0.48844  0.91760  1.0000 0.129694874
N   N20       1.0  0.20058  0.47055  0.81790  1.0000 -0.2380669701
N   N21       1.0  0.19711  0.56469  0.82700  1.0000 -0.3358681787
N   N22       1.0  0.82824  0.51156  0.91760  1.0000 0.129694874
N   N23       1.0  0.79942  0.52945  0.81790  1.0000 -0.2380669701
N   N24       1.0  0.80289  0.43531  0.82700  1.0000 -0.3358681787
O   O1        1.0  0.15506  0.60265  0.35080  1.0000 -0.5382189404
O   O2        1.0  0.10872  0.58445  0.18180  1.0000 -0.5610608596
O   O3        1.0  0.27088  0.20362  0.60700  1.0000 -0.526162504
O   O4        1.0  0.22701  0.19551  0.78040  1.0000 -0.5382189404
O   O5        1.0  0.84494  0.39735  0.35080  1.0000 -0.5382189404
O   O6        1.0  0.89128  0.41555  0.18180  1.0000 -0.5610608596
O   O7        1.0  0.72912  0.79638  0.60700  1.0000 -0.526162504
O   O8        1.0  0.77299  0.80449  0.78040  1.0000 -0.5382189404
O   O9        1.0  0.60265  0.84494  0.64920  1.0000 -0.5382189404
O   O10       1.0  0.58445  0.89128  0.81820  1.0000 -0.5610608596
O   O11       1.0  0.20362  0.72912  0.39300  1.0000 -0.526162504
O   O12       1.0  0.19551  0.77299  0.21960  1.0000 -0.5382189404
O   O13       1.0  0.39735  0.15506  0.64920  1.0000 -0.5382189404
O   O14       1.0  0.41555  0.10872  0.81820  1.0000 -0.5610608596
O   O15       1.0  0.79638  0.27088  0.39300  1.0000 -0.526162504
O   O16       1.0  0.80449  0.22701  0.21960  1.0000 -0.5382189404
O   O17       1.0  0.34494  0.10265  0.14920  1.0000 -0.5382189404
O   O18       1.0  0.39128  0.08445  0.31820  1.0000 -0.5610608596
O   O19       1.0  0.22912  0.70362  0.89300  1.0000 -0.526162504
O   O20       1.0  0.27299  0.69551  0.71960  1.0000 -0.5382189404
O   O21       1.0  0.65506  0.89735  0.14920  1.0000 -0.5382189404
O   O22       1.0  0.60872  0.91555  0.31820  1.0000 -0.5610608596
O   O23       1.0  0.77088  0.29638  0.89300  1.0000 -0.526162504
O   O24       1.0  0.72701  0.30449  0.71960  1.0000 -0.5382189404
O   O25       1.0  0.89735  0.34494  0.85080  1.0000 -0.5382189404
O   O26       1.0  0.91555  0.39128  0.68180  1.0000 -0.5610608596
O   O27       1.0  0.29638  0.22912  0.10700  1.0000 -0.526162504
O   O28       1.0  0.30449  0.27299  0.28040  1.0000 -0.5382189404
O   O29       1.0  0.10265  0.65506  0.85080  1.0000 -0.5382189404
O   O30       1.0  0.08445  0.60872  0.68180  1.0000 -0.5610608596
O   O31       1.0  0.70362  0.77088  0.10700  1.0000 -0.526162504
O   O32       1.0  0.69551  0.72701  0.28040  1.0000 -0.5382189404
