# DDEC6 charges by PACMAN v1.1 (https://github.com/mtap-research/PACMAN-charge/)
data_2020[Cu][pts]3[ASR]2
_chemical_formula_sum              "Cu4 H52 C84 O22"
_cell_length_a       18.2083
_cell_length_b       18.2083
_cell_length_c       20.156
_cell_angle_alpha    67.2575
_cell_angle_beta     112.742
_cell_angle_gamma    89.7972

_symmetry_space_group_name_H-M    "P 1"
_symmetry_Int_Tables_number       1

loop_
  _symmetry_equiv_pos_as_xyz
  'x, y, z'

loop_
  _atom_site_type_symbol
  _atom_site_label
  _atom_site_symmetry_multiplicity
  _atom_site_fract_x
  _atom_site_fract_y
  _atom_site_fract_z
  _atom_site_occupancy
  _atom_site_charge
Cu  Cu1       1.0  0.02359  0.01135  0.94312  1.0000 0.8540225592
Cu  Cu2       1.0  0.01135  0.02359  0.55688  1.0000 0.8540225592
Cu  Cu3       1.0  0.97641  0.98865  0.05688  1.0000 0.8540225592
Cu  Cu4       1.0  0.98865  0.97641  0.44312  1.0000 0.8540225592
H   H1        1.0  0.08958  0.15554  0.31059  1.0000 0.1295458743
H   H2        1.0  0.09991  0.24665  0.46500  1.0000 0.1295458743
H   H3        1.0  0.98423  0.50159  0.19080  1.0000 0.121234668
H   H4        1.0  0.03559  0.53051  0.14148  1.0000 0.1044732597
H   H5        1.0  0.03294  0.43820  0.18111  1.0000 0.1087936595
H   H6        1.0  0.16021  0.34849  0.40899  1.0000 0.121234668
H   H7        1.0  0.14732  0.76684  0.02708  1.0000 0.1295458743
H   H8        1.0  0.20015  0.63107  0.08687  1.0000 0.121234668
H   H9        1.0  0.15241  0.60513  0.27090  1.0000 0.121234668
H   H10       1.0  0.09497  0.74231  0.20840  1.0000 0.1295458743
H   H11       1.0  0.15733  0.25305  0.25890  1.0000 0.1087936595
H   H12       1.0  0.30169  0.29571  0.31514  1.0000 0.1443208422
H   H13       1.0  0.31135  0.52755  0.19641  1.0000 0.1485597309
H   H14       1.0  0.15553  0.08958  0.18941  1.0000 0.1295458743
H   H15       1.0  0.24665  0.09991  0.03500  1.0000 0.1295458743
H   H16       1.0  0.50159  0.98423  0.30920  1.0000 0.121234668
H   H17       1.0  0.53051  0.03559  0.35852  1.0000 0.1044732597
H   H18       1.0  0.43820  0.03294  0.31889  1.0000 0.1087936595
H   H19       1.0  0.34849  0.16021  0.09101  1.0000 0.121234668
H   H20       1.0  0.76684  0.14732  0.47292  1.0000 0.1295458743
H   H21       1.0  0.63107  0.20015  0.41313  1.0000 0.1087936595
H   H22       1.0  0.60513  0.15241  0.22910  1.0000 0.121234668
H   H23       1.0  0.74231  0.09497  0.29160  1.0000 0.1295458743
H   H24       1.0  0.25305  0.15733  0.24110  1.0000 0.1087936595
H   H25       1.0  0.29571  0.30169  0.18486  1.0000 0.1443208422
H   H26       1.0  0.52755  0.31135  0.30359  1.0000 0.1485597309
H   H27       1.0  0.91043  0.84446  0.68941  1.0000 0.1295458743
H   H28       1.0  0.90009  0.75335  0.53500  1.0000 0.1295458743
H   H29       1.0  0.01577  0.49841  0.80920  1.0000 0.121234668
H   H30       1.0  0.96441  0.46949  0.85852  1.0000 0.1087936595
H   H31       1.0  0.96706  0.56180  0.81889  1.0000 0.1087936595
H   H32       1.0  0.83979  0.65151  0.59101  1.0000 0.121234668
H   H33       1.0  0.85268  0.23316  0.97292  1.0000 0.1295458743
H   H34       1.0  0.79985  0.36893  0.91313  1.0000 0.121234668
H   H35       1.0  0.84759  0.39487  0.72910  1.0000 0.121234668
H   H36       1.0  0.90503  0.25769  0.79160  1.0000 0.1295458743
H   H37       1.0  0.84267  0.74695  0.74110  1.0000 0.1087936595
H   H38       1.0  0.69831  0.70429  0.68486  1.0000 0.1485597309
H   H39       1.0  0.68865  0.47245  0.80359  1.0000 0.1485597309
H   H40       1.0  0.84446  0.91043  0.81059  1.0000 0.1295458743
H   H41       1.0  0.75335  0.90009  0.96500  1.0000 0.1295458743
H   H42       1.0  0.49841  0.01577  0.69080  1.0000 0.121234668
H   H43       1.0  0.46949  0.96441  0.64148  1.0000 0.1087936595
H   H44       1.0  0.56180  0.96706  0.68111  1.0000 0.1087936595
H   H45       1.0  0.65151  0.83979  0.90899  1.0000 0.121234668
H   H46       1.0  0.23316  0.85268  0.52708  1.0000 0.1295458743
H   H47       1.0  0.36893  0.79985  0.58687  1.0000 0.1087936595
H   H48       1.0  0.39487  0.84759  0.77090  1.0000 0.121234668
H   H49       1.0  0.25769  0.90503  0.70840  1.0000 0.1295458743
H   H50       1.0  0.74695  0.84267  0.75890  1.0000 0.1087936595
H   H51       1.0  0.70429  0.69831  0.81514  1.0000 0.1485597309
H   H52       1.0  0.47245  0.68865  0.69641  1.0000 0.1485597309
C   C1        1.0  0.10529  0.19327  0.33151  1.0000 -0.0912674741
C   C2        1.0  0.11060  0.24840  0.42290  1.0000 -0.0912674741
C   C3        1.0  0.11455  0.76835  0.11100  1.0000 -0.0355034094
C   C4        1.0  0.16603  0.31127  0.32768  1.0000 0.0861769881
C   C5        1.0  0.03300  0.48820  0.18680  1.0000 -0.2378098812
C   C6        1.0  0.14750  0.30890  0.39000  1.0000 -0.1491647486
C   C7        1.0  0.14693  0.73447  0.07563  1.0000 -0.0912674741
C   C8        1.0  0.07513  0.85627  0.07033  1.0000 0.5799092617
C   C9        1.0  0.17874  0.65296  0.11169  1.0000 -0.1571885573
C   C10       1.0  0.17944  0.60338  0.18363  1.0000 0.08340871
C   C11       1.0  0.14997  0.63715  0.22101  1.0000 -0.1571885573
C   C12       1.0  0.21445  0.51461  0.22212  1.0000 -0.0170410414
C   C13       1.0  0.11624  0.72006  0.18369  1.0000 -0.0912674741
C   C14       1.0  0.17567  0.45665  0.25841  1.0000 0.1485597309
C   C15       1.0  0.31616  0.40748  0.25344  1.0000 0.2407077256
C   C16       1.0  0.20836  0.37426  0.29225  1.0000 -0.0127993194
C   C17       1.0  0.14490  0.25272  0.29959  1.0000 -0.1740892563
C   C18       1.0  0.27890  0.35034  0.29088  1.0000 -0.2497190233
C   C19       1.0  0.28484  0.48954  0.22005  1.0000 -0.2378098812
C   C20       1.0  0.08902  0.18976  0.39423  1.0000 -0.0338160895
C   C21       1.0  0.05181  0.12167  0.43387  1.0000 0.5735051449
C   C22       1.0  0.19327  0.10529  0.16849  1.0000 -0.0912674741
C   C23       1.0  0.24840  0.11060  0.07710  1.0000 -0.0912674741
C   C24       1.0  0.76835  0.11455  0.38900  1.0000 -0.0355034094
C   C25       1.0  0.31127  0.16603  0.17232  1.0000 0.0861769881
C   C26       1.0  0.48820  0.03300  0.31320  1.0000 -0.2378098812
C   C27       1.0  0.30890  0.14750  0.11000  1.0000 -0.1491647486
C   C28       1.0  0.73447  0.14693  0.42437  1.0000 -0.0912674741
C   C29       1.0  0.85627  0.07513  0.42967  1.0000 0.5799092617
C   C30       1.0  0.65296  0.17874  0.38831  1.0000 -0.1491647486
C   C31       1.0  0.60338  0.17944  0.31637  1.0000 0.08340871
C   C32       1.0  0.63715  0.14997  0.27899  1.0000 -0.1571885573
C   C33       1.0  0.51461  0.21445  0.27788  1.0000 -0.0170410414
C   C34       1.0  0.72006  0.11624  0.31631  1.0000 -0.0912674741
C   C35       1.0  0.45665  0.17567  0.24159  1.0000 0.1485597309
C   C36       1.0  0.40748  0.31616  0.24656  1.0000 0.2407077256
C   C37       1.0  0.37426  0.20836  0.20775  1.0000 -0.0127993194
C   C38       1.0  0.25272  0.14490  0.20041  1.0000 -0.1740892563
C   C39       1.0  0.35034  0.27890  0.20912  1.0000 -0.2497190233
C   C40       1.0  0.48954  0.28484  0.27995  1.0000 -0.2378098812
C   C41       1.0  0.18976  0.08902  0.10577  1.0000 -0.0338160895
C   C42       1.0  0.12167  0.05181  0.06613  1.0000 0.5735051449
C   C43       1.0  0.89471  0.80673  0.66849  1.0000 -0.0912674741
C   C44       1.0  0.88940  0.75160  0.57710  1.0000 -0.0912674741
C   C45       1.0  0.88545  0.23165  0.88900  1.0000 -0.0338160895
C   C46       1.0  0.83397  0.68873  0.67232  1.0000 0.0861769881
C   C47       1.0  0.96700  0.51180  0.81320  1.0000 -0.2378098812
C   C48       1.0  0.85250  0.69110  0.61000  1.0000 -0.1491647486
C   C49       1.0  0.85307  0.26553  0.92437  1.0000 -0.0912674741
C   C50       1.0  0.92487  0.14373  0.92967  1.0000 0.5799092617
C   C51       1.0  0.82126  0.34704  0.88831  1.0000 -0.1571885573
C   C52       1.0  0.82056  0.39662  0.81637  1.0000 0.08340871
C   C53       1.0  0.85003  0.36285  0.77899  1.0000 -0.1571885573
C   C54       1.0  0.78555  0.48539  0.77788  1.0000 -0.0170410414
C   C55       1.0  0.88376  0.27994  0.81631  1.0000 -0.0912674741
C   C56       1.0  0.82433  0.54335  0.74159  1.0000 0.1485597309
C   C57       1.0  0.68384  0.59252  0.74656  1.0000 0.2407077256
C   C58       1.0  0.79164  0.62574  0.70775  1.0000 -0.0127993194
C   C59       1.0  0.85510  0.74728  0.70041  1.0000 -0.1740892563
C   C60       1.0  0.72110  0.64966  0.70912  1.0000 -0.2497190233
C   C61       1.0  0.71516  0.51046  0.77995  1.0000 -0.2378098812
C   C62       1.0  0.91098  0.81024  0.60577  1.0000 -0.0338160895
C   C63       1.0  0.94819  0.87833  0.56613  1.0000 0.5735051449
C   C64       1.0  0.80673  0.89471  0.83151  1.0000 -0.0912674741
C   C65       1.0  0.75160  0.88940  0.92290  1.0000 -0.0912674741
C   C66       1.0  0.23165  0.88545  0.61100  1.0000 -0.0355034094
C   C67       1.0  0.68873  0.83397  0.82768  1.0000 0.0861769881
C   C68       1.0  0.51180  0.96700  0.68680  1.0000 -0.2378098812
C   C69       1.0  0.69110  0.85250  0.89000  1.0000 -0.1491647486
C   C70       1.0  0.26553  0.85307  0.57563  1.0000 -0.0912674741
C   C71       1.0  0.14373  0.92487  0.57033  1.0000 0.5799092617
C   C72       1.0  0.34704  0.82126  0.61169  1.0000 -0.1571885573
C   C73       1.0  0.39662  0.82056  0.68363  1.0000 0.08340871
C   C74       1.0  0.36285  0.85003  0.72101  1.0000 -0.1571885573
C   C75       1.0  0.48539  0.78555  0.72212  1.0000 -0.0170410414
C   C76       1.0  0.27994  0.88376  0.68369  1.0000 -0.0912674741
C   C77       1.0  0.54335  0.82433  0.75841  1.0000 0.1485597309
C   C78       1.0  0.59252  0.68384  0.75344  1.0000 0.2407077256
C   C79       1.0  0.62574  0.79164  0.79225  1.0000 -0.0127993194
C   C80       1.0  0.74728  0.85510  0.79959  1.0000 -0.1740892563
C   C81       1.0  0.64966  0.72110  0.79088  1.0000 -0.2497190233
C   C82       1.0  0.51046  0.71516  0.72005  1.0000 -0.2378098812
C   C83       1.0  0.81024  0.91098  0.89423  1.0000 -0.0338160895
C   C84       1.0  0.87833  0.94819  0.93387  1.0000 0.5735051449
O   O1        1.0  0.04762  0.11626  0.49506  1.0000 -0.4977447871
O   O2        1.0  0.02990  0.07500  0.40018  1.0000 -0.5228373144
O   O3        1.0  0.08003  0.89843  0.00604  1.0000 -0.5228373144
O   O4        1.0  0.10407  0.47917  0.25949  1.0000 -0.1843355282
O   O5        1.0  0.03999  0.87963  0.10339  1.0000 -0.5228373144
O   O6        1.0  0.11626  0.04762  0.00494  1.0000 -0.4977447871
O   O7        1.0  0.07500  0.02990  0.09982  1.0000 -0.5228373144
O   O8        1.0  0.89843  0.08003  0.49396  1.0000 -0.5228373144
O   O9        1.0  0.47917  0.10407  0.24051  1.0000 -0.1850606684
O   O10       1.0  0.87963  0.03999  0.39661  1.0000 -0.5228373144
O   O11       1.0  0.95238  0.88374  0.50494  1.0000 -0.4977447871
O   O12       1.0  0.97010  0.92500  0.59982  1.0000 -0.5228373144
O   O13       1.0  0.91997  0.10157  0.99396  1.0000 -0.5228373144
O   O14       1.0  0.89593  0.52083  0.74051  1.0000 -0.1843355282
O   O15       1.0  0.96001  0.12037  0.89661  1.0000 -0.5228373144
O   O16       1.0  0.88374  0.95238  0.99506  1.0000 -0.4977447871
O   O17       1.0  0.92500  0.97010  0.90018  1.0000 -0.5228373144
O   O18       1.0  0.10157  0.91997  0.50604  1.0000 -0.5228373144
O   O19       1.0  0.52083  0.89593  0.75949  1.0000 -0.1843355282
O   O20       1.0  0.12037  0.96001  0.60339  1.0000 -0.5228373144
O   O21       1.0  0.38904  0.38904  0.25000  1.0000 -0.2137343172
O   O22       1.0  0.61096  0.61096  0.75000  1.0000 -0.2137343172
