# DDEC6 charges by PACMAN v1.1 (https://github.com/mtap-research/PACMAN-charge/)
data_2020[DyCu][nan]3[ASR]2
_chemical_formula_sum              "Dy8 Cu16 H112 C168 I12 N28 O56"
_cell_length_a       9.205
_cell_length_b       22.5567
_cell_length_c       30.9452
_cell_angle_alpha    90
_cell_angle_beta     90
_cell_angle_gamma    90

_symmetry_space_group_name_H-M    "P 1"
_symmetry_Int_Tables_number       1

loop_
  _symmetry_equiv_pos_as_xyz
  'x, y, z'

loop_
  _atom_site_type_symbol
  _atom_site_label
  _atom_site_symmetry_multiplicity
  _atom_site_fract_x
  _atom_site_fract_y
  _atom_site_fract_z
  _atom_site_occupancy
  _atom_site_charge
Dy  Dy1       1.0  0.49367  0.52908  0.47849  1.0000 2.1572862601
Dy  Dy2       1.0  0.96233  0.55917  0.48517  1.0000 2.1572862601
Dy  Dy3       1.0  0.00633  0.47092  0.97849  1.0000 2.1572862601
Dy  Dy4       1.0  0.53767  0.44083  0.98517  1.0000 2.1572862601
Dy  Dy5       1.0  0.50633  0.02908  0.02151  1.0000 2.1572862601
Dy  Dy6       1.0  0.03767  0.05917  0.01483  1.0000 2.1572862601
Dy  Dy7       1.0  0.99367  0.97092  0.52151  1.0000 2.1572862601
Dy  Dy8       1.0  0.46233  0.94083  0.51483  1.0000 2.1572862601
Cu  Cu1       1.0  0.48675  0.63903  0.74816  1.0000 0.1982986069
Cu  Cu2       1.0  0.95399  0.88394  0.77454  1.0000 0.1827769017
Cu  Cu3       1.0  0.28125  0.76590  0.81765  1.0000 0.1916375792
Cu  Cu4       1.0  0.25577  0.71643  0.73916  1.0000 0.1640553659
Cu  Cu5       1.0  0.01325  0.36097  0.24816  1.0000 0.1982986069
Cu  Cu6       1.0  0.54601  0.11606  0.27454  1.0000 0.1827769017
Cu  Cu7       1.0  0.21875  0.23410  0.31765  1.0000 0.1916375792
Cu  Cu8       1.0  0.24423  0.28357  0.23916  1.0000 0.1640553659
Cu  Cu9       1.0  0.51325  0.13903  0.75184  1.0000 0.1982986069
Cu  Cu10      1.0  0.04601  0.38394  0.72546  1.0000 0.1827769017
Cu  Cu11      1.0  0.71875  0.26590  0.68235  1.0000 0.1916375792
Cu  Cu12      1.0  0.74423  0.21643  0.76084  1.0000 0.1640553659
Cu  Cu13      1.0  0.98675  0.86097  0.25184  1.0000 0.1982986069
Cu  Cu14      1.0  0.45399  0.61606  0.22546  1.0000 0.1827769017
Cu  Cu15      1.0  0.78125  0.73410  0.18235  1.0000 0.1916375792
Cu  Cu16      1.0  0.75577  0.78357  0.26084  1.0000 0.1640553659
H   H1        1.0  0.99584  0.82074  0.61976  1.0000 0.1286645716
H   H2        1.0  0.97772  0.96881  0.70299  1.0000 0.0990852548
H   H3        1.0  0.02378  0.76098  0.67977  1.0000 0.0906274851
H   H4        1.0  0.38055  0.60327  0.66203  1.0000 0.0990852548
H   H5        1.0  0.07559  0.85115  0.85804  1.0000 0.0826241819
H   H6        1.0  0.47941  0.81467  0.88729  1.0000 0.0990852548
H   H7        1.0  0.46180  0.58384  0.59256  1.0000 0.1382588631
H   H8        1.0  0.43059  0.81257  0.60243  1.0000 0.1382588631
H   H9        1.0  0.76356  0.66489  0.69506  1.0000 0.0990852548
H   H10       1.0  0.41411  0.54541  0.81431  1.0000 0.0990852548
H   H11       1.0  0.09765  0.66243  0.84514  1.0000 0.0990852548
H   H12       1.0  0.00142  0.99676  0.81761  1.0000 0.0990852548
H   H13       1.0  0.65279  0.83374  0.64628  1.0000 0.1382588631
H   H14       1.0  0.89554  0.57761  0.84506  1.0000 0.1286645716
H   H15       1.0  0.51360  0.49867  0.87343  1.0000 0.1382588631
H   H16       1.0  0.94342  0.04639  0.88091  1.0000 0.1516611835
H   H17       1.0  0.74495  0.86486  0.84833  1.0000 0.0990852548
H   H18       1.0  0.09007  0.59157  0.89845  1.0000 0.1382588631
H   H19       1.0  0.51267  0.62676  0.92357  1.0000 0.1382588631
H   H20       1.0  0.50277  0.70155  0.87262  1.0000 0.0906274851
H   H21       1.0  0.85664  0.64360  0.62766  1.0000 0.1382588631
H   H22       1.0  0.44492  0.75673  0.66499  1.0000 0.0906274851
H   H23       1.0  0.74873  0.82238  0.71497  1.0000 0.0990852548
H   H24       1.0  0.47053  0.87496  0.94764  1.0000 0.1382588631
H   H25       1.0  0.89588  0.98153  0.63231  1.0000 0.1382588631
H   H26       1.0  0.05380  0.91382  0.91741  1.0000 0.1286645716
H   H27       1.0  0.78323  0.62375  0.78731  1.0000 0.1051192692
H   H28       1.0  0.67062  0.91244  0.91109  1.0000 0.1286645716
H   H29       1.0  0.50416  0.17926  0.11976  1.0000 0.1286645716
H   H30       1.0  0.52228  0.03119  0.20299  1.0000 0.0990852548
H   H31       1.0  0.47622  0.23902  0.17977  1.0000 0.0906274851
H   H32       1.0  0.11945  0.39673  0.16203  1.0000 0.0990852548
H   H33       1.0  0.42441  0.14885  0.35804  1.0000 0.0826241819
H   H34       1.0  0.02059  0.18533  0.38729  1.0000 0.0990852548
H   H35       1.0  0.03820  0.41616  0.09256  1.0000 0.1382588631
H   H36       1.0  0.06941  0.18743  0.10243  1.0000 0.1382588631
H   H37       1.0  0.73644  0.33511  0.19506  1.0000 0.0990852548
H   H38       1.0  0.08589  0.45459  0.31431  1.0000 0.0990852548
H   H39       1.0  0.40235  0.33757  0.34514  1.0000 0.0990852548
H   H40       1.0  0.49858  0.00324  0.31761  1.0000 0.0990852548
H   H41       1.0  0.84721  0.16626  0.14628  1.0000 0.1382588631
H   H42       1.0  0.60446  0.42239  0.34506  1.0000 0.1286645716
H   H43       1.0  0.98640  0.50133  0.37343  1.0000 0.1382588631
H   H44       1.0  0.55658  0.95361  0.38091  1.0000 0.1516611835
H   H45       1.0  0.75505  0.13514  0.34833  1.0000 0.0990852548
H   H46       1.0  0.40993  0.40843  0.39845  1.0000 0.1382588631
H   H47       1.0  0.98733  0.37324  0.42357  1.0000 0.1382588631
H   H48       1.0  0.99723  0.29845  0.37262  1.0000 0.0906274851
H   H49       1.0  0.64336  0.35640  0.12766  1.0000 0.1382588631
H   H50       1.0  0.05508  0.24327  0.16499  1.0000 0.0906274851
H   H51       1.0  0.75127  0.17762  0.21497  1.0000 0.0990852548
H   H52       1.0  0.02947  0.12504  0.44764  1.0000 0.1382588631
H   H53       1.0  0.60412  0.01847  0.13231  1.0000 0.1382588631
H   H54       1.0  0.44620  0.08618  0.41741  1.0000 0.1286645716
H   H55       1.0  0.71677  0.37625  0.28731  1.0000 0.1051192692
H   H56       1.0  0.82938  0.08756  0.41109  1.0000 0.1286645716
H   H57       1.0  0.00416  0.32074  0.88024  1.0000 0.1286645716
H   H58       1.0  0.02228  0.46881  0.79701  1.0000 0.0990852548
H   H59       1.0  0.97622  0.26098  0.82023  1.0000 0.0906274851
H   H60       1.0  0.61945  0.10327  0.83797  1.0000 0.0990852548
H   H61       1.0  0.92441  0.35115  0.64196  1.0000 0.0826241819
H   H62       1.0  0.52059  0.31467  0.61271  1.0000 0.0990852548
H   H63       1.0  0.53820  0.08384  0.90744  1.0000 0.1382588631
H   H64       1.0  0.56941  0.31257  0.89757  1.0000 0.1382588631
H   H65       1.0  0.23644  0.16489  0.80494  1.0000 0.0990852548
H   H66       1.0  0.58589  0.04541  0.68569  1.0000 0.0990852548
H   H67       1.0  0.90235  0.16243  0.65486  1.0000 0.0990852548
H   H68       1.0  0.99858  0.49676  0.68239  1.0000 0.0990852548
H   H69       1.0  0.34721  0.33374  0.85372  1.0000 0.1382588631
H   H70       1.0  0.10446  0.07761  0.65494  1.0000 0.1286645716
H   H71       1.0  0.48640  0.99867  0.62657  1.0000 0.1382588631
H   H72       1.0  0.05658  0.54639  0.61909  1.0000 0.1516611835
H   H73       1.0  0.25505  0.36486  0.65167  1.0000 0.0990852548
H   H74       1.0  0.90993  0.09157  0.60155  1.0000 0.1382588631
H   H75       1.0  0.48733  0.12676  0.57643  1.0000 0.1382588631
H   H76       1.0  0.49723  0.20155  0.62738  1.0000 0.0906274851
H   H77       1.0  0.14336  0.14360  0.87234  1.0000 0.1382588631
H   H78       1.0  0.55508  0.25673  0.83501  1.0000 0.0906274851
H   H79       1.0  0.25127  0.32238  0.78503  1.0000 0.0990852548
H   H80       1.0  0.52947  0.37496  0.55236  1.0000 0.1382588631
H   H81       1.0  0.10412  0.48153  0.86769  1.0000 0.1382588631
H   H82       1.0  0.94620  0.41382  0.58259  1.0000 0.1286645716
H   H83       1.0  0.21677  0.12375  0.71269  1.0000 0.1051192692
H   H84       1.0  0.32938  0.41244  0.58891  1.0000 0.1286645716
H   H85       1.0  0.49584  0.67926  0.38024  1.0000 0.1286645716
H   H86       1.0  0.47772  0.53119  0.29701  1.0000 0.0990852548
H   H87       1.0  0.52378  0.73902  0.32023  1.0000 0.0906274851
H   H88       1.0  0.88055  0.89673  0.33797  1.0000 0.0990852548
H   H89       1.0  0.57559  0.64885  0.14196  1.0000 0.0826241819
H   H90       1.0  0.97941  0.68533  0.11271  1.0000 0.0990852548
H   H91       1.0  0.96180  0.91616  0.40744  1.0000 0.1382588631
H   H92       1.0  0.93059  0.68743  0.39757  1.0000 0.1382588631
H   H93       1.0  0.26356  0.83511  0.30494  1.0000 0.0990852548
H   H94       1.0  0.91411  0.95459  0.18569  1.0000 0.0990852548
H   H95       1.0  0.59765  0.83757  0.15486  1.0000 0.0990852548
H   H96       1.0  0.50142  0.50324  0.18239  1.0000 0.0990852548
H   H97       1.0  0.15279  0.66626  0.35372  1.0000 0.1382588631
H   H98       1.0  0.39554  0.92239  0.15494  1.0000 0.1286645716
H   H99       1.0  0.01360  0.00133  0.12657  1.0000 0.1382588631
H   H100      1.0  0.44342  0.45361  0.11909  1.0000 0.1516611835
H   H101      1.0  0.24495  0.63514  0.15167  1.0000 0.0990852548
H   H102      1.0  0.59007  0.90843  0.10155  1.0000 0.1382588631
H   H103      1.0  0.01267  0.87324  0.07643  1.0000 0.1382588631
H   H104      1.0  0.00277  0.79845  0.12738  1.0000 0.0906274851
H   H105      1.0  0.35664  0.85640  0.37234  1.0000 0.1382588631
H   H106      1.0  0.94492  0.74327  0.33501  1.0000 0.0906274851
H   H107      1.0  0.24873  0.67762  0.28503  1.0000 0.0990852548
H   H108      1.0  0.97053  0.62504  0.05236  1.0000 0.1382588631
H   H109      1.0  0.39588  0.51847  0.36769  1.0000 0.1382588631
H   H110      1.0  0.55380  0.58618  0.08259  1.0000 0.1286645716
H   H111      1.0  0.28323  0.87625  0.21269  1.0000 0.1051192692
H   H112      1.0  0.17062  0.58756  0.08891  1.0000 0.1286645716
C   C1        1.0  0.08990  0.80770  0.62820  1.0000 -0.1603395084
C   C2        1.0  0.91280  0.94060  0.69090  1.0000 0.0701858698
C   C3        1.0  0.29760  0.55280  0.95080  1.0000 0.6394660099
C   C4        1.0  0.10830  0.77260  0.66430  1.0000 0.0701858698
C   C5        1.0  0.78120  0.50800  0.90760  1.0000 0.6166197097
C   C6        1.0  0.19910  0.86150  0.56380  1.0000 0.6394660099
C   C7        1.0  0.72260  0.59510  0.55760  1.0000 0.6394660099
C   C8        1.0  0.76290  0.01600  0.94440  1.0000 0.6469936406
C   C9        1.0  0.47880  0.61190  0.65500  1.0000 0.0607593853
C   C10       1.0  0.76480  0.90930  0.63180  1.0000 0.0298850534
C   C11       1.0  0.15740  0.85650  0.87630  1.0000 0.0701858698
C   C12       1.0  0.39170  0.83530  0.89330  1.0000 0.0607593853
C   C13       1.0  0.52670  0.60000  0.61330  1.0000 -0.1408482283
C   C14       1.0  0.25720  0.94750  0.97450  1.0000 0.6394660099
C   C15       1.0  0.34480  0.80350  0.61820  1.0000 -0.1505835626
C   C16       1.0  0.26190  0.90260  0.93770  1.0000 0.0298850534
C   C17       1.0  0.70130  0.64710  0.67430  1.0000 0.0607593853
C   C18       1.0  0.51320  0.55280  0.82100  1.0000 0.0607593853
C   C19       1.0  0.18200  0.65610  0.86220  1.0000 0.0701858698
C   C20       1.0  0.79940  0.98490  0.90280  1.0000 0.0298850534
C   C21       1.0  0.93500  0.97890  0.83720  1.0000 0.0701858698
C   C22       1.0  0.30180  0.60120  0.91650  1.0000 0.0210076381
C   C23       1.0  0.72100  0.86170  0.65710  1.0000 -0.1603395084
C   C24       1.0  0.79510  0.57120  0.83980  1.0000 -0.1603395084
C   C25       1.0  0.71510  0.53460  0.86700  1.0000 0.0210076381
C   C26       1.0  0.57150  0.52460  0.85650  1.0000 -0.1408482283
C   C27       1.0  0.66820  0.61160  0.60230  1.0000 0.0210076381
C   C28       1.0  0.89950  0.00930  0.87460  1.0000 -0.1603395084
C   C29       1.0  0.21200  0.82370  0.60430  1.0000 0.0298850534
C   C30       1.0  0.78490  0.90260  0.85490  1.0000 0.0607593853
C   C31       1.0  0.17710  0.61300  0.89310  1.0000 -0.1505835626
C   C32       1.0  0.42500  0.63430  0.90830  1.0000 -0.1505835626
C   C33       1.0  0.41850  0.67830  0.87770  1.0000 0.0607593853
C   C34       1.0  0.75750  0.63540  0.63380  1.0000 -0.1603395084
C   C35       1.0  0.35200  0.76960  0.65550  1.0000 0.0607593853
C   C36       1.0  0.77790  0.85540  0.69800  1.0000 0.0701858698
C   C37       1.0  0.38830  0.87150  0.92920  1.0000 -0.1603395084
C   C38       1.0  0.86270  0.94880  0.64900  1.0000 -0.1505835626
C   C39       1.0  0.14310  0.89430  0.91160  1.0000 -0.1408482283
C   C40       1.0  0.72730  0.59820  0.80510  1.0000 0.0701858698
C   C41       1.0  0.74030  0.93050  0.89270  1.0000 -0.1603395084
C   C42       1.0  0.70830  0.91660  0.58630  1.0000 0.6278371101
C   C43       1.0  0.41010  0.19230  0.12820  1.0000 -0.1603395084
C   C44       1.0  0.58720  0.05940  0.19090  1.0000 0.0701858698
C   C45       1.0  0.20240  0.44720  0.45080  1.0000 0.6394660099
C   C46       1.0  0.39170  0.22740  0.16430  1.0000 0.0701858698
C   C47       1.0  0.71880  0.49200  0.40760  1.0000 0.6166197097
C   C48       1.0  0.30090  0.13850  0.06380  1.0000 0.6394660099
C   C49       1.0  0.77740  0.40490  0.05760  1.0000 0.6394660099
C   C50       1.0  0.73710  0.98400  0.44440  1.0000 0.6469936406
C   C51       1.0  0.02120  0.38810  0.15500  1.0000 0.0607593853
C   C52       1.0  0.73520  0.09070  0.13180  1.0000 0.0298850534
C   C53       1.0  0.34260  0.14350  0.37630  1.0000 0.0701858698
C   C54       1.0  0.10830  0.16470  0.39330  1.0000 0.0607593853
C   C55       1.0  0.97330  0.40000  0.11330  1.0000 -0.1408482283
C   C56       1.0  0.24280  0.05250  0.47450  1.0000 0.6394660099
C   C57       1.0  0.15520  0.19650  0.11820  1.0000 -0.1505835626
C   C58       1.0  0.23810  0.09740  0.43770  1.0000 0.0298850534
C   C59       1.0  0.79870  0.35290  0.17430  1.0000 0.0607593853
C   C60       1.0  0.98680  0.44720  0.32100  1.0000 0.0607593853
C   C61       1.0  0.31800  0.34390  0.36220  1.0000 0.0701858698
C   C62       1.0  0.70060  0.01510  0.40280  1.0000 0.0298850534
C   C63       1.0  0.56500  0.02110  0.33720  1.0000 0.0701858698
C   C64       1.0  0.19820  0.39880  0.41650  1.0000 0.0210076381
C   C65       1.0  0.77900  0.13830  0.15710  1.0000 -0.1603395084
C   C66       1.0  0.70490  0.42880  0.33980  1.0000 -0.1603395084
C   C67       1.0  0.78490  0.46540  0.36700  1.0000 0.0210076381
C   C68       1.0  0.92850  0.47540  0.35650  1.0000 -0.1408482283
C   C69       1.0  0.83180  0.38840  0.10230  1.0000 0.0210076381
C   C70       1.0  0.60050  0.99070  0.37460  1.0000 -0.1603395084
C   C71       1.0  0.28800  0.17630  0.10430  1.0000 0.0298850534
C   C72       1.0  0.71510  0.09740  0.35490  1.0000 0.0607593853
C   C73       1.0  0.32290  0.38700  0.39310  1.0000 -0.1505835626
C   C74       1.0  0.07500  0.36570  0.40830  1.0000 -0.1505835626
C   C75       1.0  0.08150  0.32170  0.37770  1.0000 0.0607593853
C   C76       1.0  0.74250  0.36460  0.13380  1.0000 -0.1603395084
C   C77       1.0  0.14800  0.23040  0.15550  1.0000 0.0607593853
C   C78       1.0  0.72210  0.14460  0.19800  1.0000 0.0701858698
C   C79       1.0  0.11170  0.12850  0.42920  1.0000 -0.1603395084
C   C80       1.0  0.63730  0.05120  0.14900  1.0000 -0.1505835626
C   C81       1.0  0.35690  0.10570  0.41160  1.0000 -0.1408482283
C   C82       1.0  0.77270  0.40180  0.30510  1.0000 0.0701858698
C   C83       1.0  0.75970  0.06950  0.39270  1.0000 -0.1603395084
C   C84       1.0  0.79170  0.08340  0.08630  1.0000 0.6278371101
C   C85       1.0  0.91010  0.30770  0.87180  1.0000 -0.1603395084
C   C86       1.0  0.08720  0.44060  0.80910  1.0000 0.0701858698
C   C87       1.0  0.70240  0.05280  0.54920  1.0000 0.6394660099
C   C88       1.0  0.89170  0.27260  0.83570  1.0000 0.0701858698
C   C89       1.0  0.21880  0.00800  0.59240  1.0000 0.6166197097
C   C90       1.0  0.80090  0.36150  0.93620  1.0000 0.6394660099
C   C91       1.0  0.27740  0.09510  0.94240  1.0000 0.6394660099
C   C92       1.0  0.23710  0.51600  0.55560  1.0000 0.6469936406
C   C93       1.0  0.52120  0.11190  0.84500  1.0000 0.0607593853
C   C94       1.0  0.23520  0.40930  0.86820  1.0000 0.0298850534
C   C95       1.0  0.84260  0.35650  0.62370  1.0000 0.0701858698
C   C96       1.0  0.60830  0.33530  0.60670  1.0000 0.0607593853
C   C97       1.0  0.47330  0.10000  0.88670  1.0000 -0.1408482283
C   C98       1.0  0.74280  0.44750  0.52550  1.0000 0.6394660099
C   C99       1.0  0.65520  0.30350  0.88180  1.0000 -0.1505835626
C   C100      1.0  0.73810  0.40260  0.56230  1.0000 0.0298850534
C   C101      1.0  0.29870  0.14710  0.82570  1.0000 0.0607593853
C   C102      1.0  0.48680  0.05280  0.67900  1.0000 0.0607593853
C   C103      1.0  0.81800  0.15610  0.63780  1.0000 0.0701858698
C   C104      1.0  0.20060  0.48490  0.59720  1.0000 0.0210076381
C   C105      1.0  0.06500  0.47890  0.66280  1.0000 0.0701858698
C   C106      1.0  0.69820  0.10120  0.58350  1.0000 0.0210076381
C   C107      1.0  0.27900  0.36170  0.84290  1.0000 -0.1603395084
C   C108      1.0  0.20490  0.07120  0.66020  1.0000 -0.1603395084
C   C109      1.0  0.28490  0.03460  0.63300  1.0000 0.0210076381
C   C110      1.0  0.42850  0.02460  0.64350  1.0000 -0.1408482283
C   C111      1.0  0.33180  0.11160  0.89770  1.0000 0.0210076381
C   C112      1.0  0.10050  0.50930  0.62540  1.0000 -0.1603395084
C   C113      1.0  0.78800  0.32370  0.89570  1.0000 0.0298850534
C   C114      1.0  0.21510  0.40260  0.64510  1.0000 0.0607593853
C   C115      1.0  0.82290  0.11300  0.60690  1.0000 -0.1505835626
C   C116      1.0  0.57500  0.13430  0.59170  1.0000 -0.1505835626
C   C117      1.0  0.58150  0.17830  0.62230  1.0000 0.0607593853
C   C118      1.0  0.24250  0.13540  0.86620  1.0000 -0.1603395084
C   C119      1.0  0.64800  0.26960  0.84450  1.0000 0.0607593853
C   C120      1.0  0.22210  0.35540  0.80200  1.0000 0.0701858698
C   C121      1.0  0.61170  0.37150  0.57080  1.0000 -0.1603395084
C   C122      1.0  0.13730  0.44880  0.85100  1.0000 -0.1505835626
C   C123      1.0  0.85690  0.39430  0.58840  1.0000 -0.1408482283
C   C124      1.0  0.27270  0.09820  0.69490  1.0000 0.0701858698
C   C125      1.0  0.25970  0.43050  0.60730  1.0000 -0.1603395084
C   C126      1.0  0.29170  0.41660  0.91370  1.0000 0.6278371101
C   C127      1.0  0.58990  0.69230  0.37180  1.0000 -0.1603395084
C   C128      1.0  0.41280  0.55940  0.30910  1.0000 0.0701858698
C   C129      1.0  0.79760  0.94720  0.04920  1.0000 0.6394660099
C   C130      1.0  0.60830  0.72740  0.33570  1.0000 0.0701858698
C   C131      1.0  0.28120  0.99200  0.09240  1.0000 0.6166197097
C   C132      1.0  0.69910  0.63850  0.43620  1.0000 0.6394660099
C   C133      1.0  0.22260  0.90490  0.44240  1.0000 0.6394660099
C   C134      1.0  0.26290  0.48400  0.05560  1.0000 0.6469936406
C   C135      1.0  0.97880  0.88810  0.34500  1.0000 0.0607593853
C   C136      1.0  0.26480  0.59070  0.36820  1.0000 0.0298850534
C   C137      1.0  0.65740  0.64350  0.12370  1.0000 0.0701858698
C   C138      1.0  0.89170  0.66470  0.10670  1.0000 0.0607593853
C   C139      1.0  0.02670  0.90000  0.38670  1.0000 -0.1408482283
C   C140      1.0  0.75720  0.55250  0.02550  1.0000 0.6394660099
C   C141      1.0  0.84480  0.69650  0.38180  1.0000 -0.1505835626
C   C142      1.0  0.76190  0.59740  0.06230  1.0000 0.0298850534
C   C143      1.0  0.20130  0.85290  0.32570  1.0000 0.0607593853
C   C144      1.0  0.01320  0.94720  0.17900  1.0000 0.0607593853
C   C145      1.0  0.68200  0.84390  0.13780  1.0000 0.0701858698
C   C146      1.0  0.29940  0.51510  0.09720  1.0000 0.0298850534
C   C147      1.0  0.43500  0.52110  0.16280  1.0000 0.0701858698
C   C148      1.0  0.80180  0.89880  0.08350  1.0000 0.0210076381
C   C149      1.0  0.22100  0.63830  0.34290  1.0000 -0.1603395084
C   C150      1.0  0.29510  0.92880  0.16020  1.0000 -0.1603395084
C   C151      1.0  0.21510  0.96540  0.13300  1.0000 0.0210076381
C   C152      1.0  0.07150  0.97540  0.14350  1.0000 -0.1408482283
C   C153      1.0  0.16820  0.88840  0.39770  1.0000 0.0210076381
C   C154      1.0  0.39950  0.49070  0.12540  1.0000 -0.1603395084
C   C155      1.0  0.71200  0.67630  0.39570  1.0000 0.0298850534
C   C156      1.0  0.28490  0.59740  0.14510  1.0000 0.0607593853
C   C157      1.0  0.67710  0.88700  0.10690  1.0000 -0.1505835626
C   C158      1.0  0.92500  0.86570  0.09170  1.0000 -0.1505835626
C   C159      1.0  0.91850  0.82170  0.12230  1.0000 0.0607593853
C   C160      1.0  0.25750  0.86460  0.36620  1.0000 -0.1603395084
C   C161      1.0  0.85200  0.73040  0.34450  1.0000 0.0607593853
C   C162      1.0  0.27790  0.64460  0.30200  1.0000 0.0701858698
C   C163      1.0  0.88830  0.62850  0.07080  1.0000 -0.1603395084
C   C164      1.0  0.36270  0.55120  0.35100  1.0000 -0.1505835626
C   C165      1.0  0.64310  0.60570  0.08840  1.0000 -0.1408482283
C   C166      1.0  0.22730  0.90180  0.19490  1.0000 0.0701858698
C   C167      1.0  0.24030  0.56950  0.10730  1.0000 -0.1603395084
C   C168      1.0  0.20830  0.58340  0.41370  1.0000 0.6278371101
I   I1        1.0  0.20632  0.60357  0.74543  1.0000 -0.4388464058
I   I2        1.0  0.02222  0.76999  0.78159  1.0000 -0.3840222323
I   I3        1.0  0.51581  0.75539  0.77017  1.0000 -0.3918336073
I   I4        1.0  0.29368  0.39643  0.24543  1.0000 -0.4388464058
I   I5        1.0  0.47778  0.23001  0.28159  1.0000 -0.3840222323
I   I6        1.0  0.98419  0.24461  0.27017  1.0000 -0.3918336073
I   I7        1.0  0.79368  0.10357  0.75457  1.0000 -0.4388464058
I   I8        1.0  0.97778  0.26999  0.71841  1.0000 -0.3840222323
I   I9        1.0  0.48419  0.25539  0.72983  1.0000 -0.3918336073
I   I10       1.0  0.70632  0.89643  0.25457  1.0000 -0.4388464058
I   I11       1.0  0.52222  0.73001  0.21841  1.0000 -0.3840222323
I   I12       1.0  0.01581  0.74461  0.22983  1.0000 -0.3918336073
N   N1        1.0  0.29780  0.68990  0.85450  1.0000 -0.181268609
N   N2        1.0  0.87230  0.89390  0.71480  1.0000 -0.1702116758
N   N3        1.0  0.28000  0.82730  0.86660  1.0000 -0.1702116758
N   N4        1.0  0.88080  0.92600  0.82720  1.0000 -0.181268609
N   N5        1.0  0.23610  0.75390  0.67890  1.0000 -0.1702116758
N   N6        1.0  0.56490  0.63510  0.68590  1.0000 -0.181268609
N   N7        1.0  0.58700  0.59020  0.79530  1.0000 -0.1702116758
N   N8        1.0  0.20220  0.31010  0.35450  1.0000 -0.181268609
N   N9        1.0  0.62770  0.10610  0.21480  1.0000 -0.1702116758
N   N10       1.0  0.22000  0.17270  0.36660  1.0000 -0.1702116758
N   N11       1.0  0.61920  0.07400  0.32720  1.0000 -0.181268609
N   N12       1.0  0.26390  0.24610  0.17890  1.0000 -0.1702116758
N   N13       1.0  0.93510  0.36490  0.18590  1.0000 -0.181268609
N   N14       1.0  0.91300  0.40980  0.29530  1.0000 -0.1702116758
N   N15       1.0  0.70220  0.18990  0.64550  1.0000 -0.181268609
N   N16       1.0  0.12770  0.39390  0.78520  1.0000 -0.1702116758
N   N17       1.0  0.72000  0.32730  0.63340  1.0000 -0.1702116758
N   N18       1.0  0.11920  0.42600  0.67280  1.0000 -0.181268609
N   N19       1.0  0.76390  0.25390  0.82110  1.0000 -0.1702116758
N   N20       1.0  0.43510  0.13510  0.81410  1.0000 -0.181268609
N   N21       1.0  0.41300  0.09020  0.70470  1.0000 -0.1702116758
N   N22       1.0  0.79780  0.81010  0.14550  1.0000 -0.181268609
N   N23       1.0  0.37230  0.60610  0.28520  1.0000 -0.1702116758
N   N24       1.0  0.78000  0.67270  0.13340  1.0000 -0.1702116758
N   N25       1.0  0.38080  0.57400  0.17280  1.0000 -0.181268609
N   N26       1.0  0.73610  0.74610  0.32110  1.0000 -0.1702116758
N   N27       1.0  0.06490  0.86490  0.31410  1.0000 -0.181268609
N   N28       1.0  0.08700  0.90980  0.20470  1.0000 -0.1702116758
O   O1        1.0  0.17450  0.54430  0.96711  1.0000 -0.6581250841
O   O2        1.0  0.86490  0.04100  0.96400  1.0000 -0.6782484267
O   O3        1.0  0.07870  0.88600  0.55768  1.0000 -0.649644868
O   O4        1.0  0.14300  0.97720  0.97815  1.0000 -0.6423554385
O   O5        1.0  0.79790  0.92860  0.55688  1.0000 -0.6899649465
O   O6        1.0  0.41450  0.52740  0.95907  1.0000 -0.6343255902
O   O7        1.0  0.37090  0.95280  0.99685  1.0000 -0.6782484267
O   O8        1.0  0.62760  0.57760  0.53057  1.0000 -0.7140215004
O   O9        1.0  0.30930  0.86530  0.54035  1.0000 -0.6581250841
O   O10       1.0  0.63130  0.01630  0.95592  1.0000 -0.6581250841
O   O11       1.0  0.57380  0.91090  0.58111  1.0000 -0.649644868
O   O12       1.0  0.91540  0.51390  0.91319  1.0000 -0.649644868
O   O13       1.0  0.85570  0.59720  0.55068  1.0000 -0.6343255902
O   O14       1.0  0.69880  0.48090  0.93314  1.0000 -0.6782484267
O   O15       1.0  0.32550  0.45570  0.46711  1.0000 -0.6581250841
O   O16       1.0  0.63510  0.95900  0.46400  1.0000 -0.6782484267
O   O17       1.0  0.42130  0.11400  0.05768  1.0000 -0.649644868
O   O18       1.0  0.35700  0.02280  0.47815  1.0000 -0.6423554385
O   O19       1.0  0.70210  0.07140  0.05688  1.0000 -0.6899649465
O   O20       1.0  0.08550  0.47260  0.45907  1.0000 -0.6343255902
O   O21       1.0  0.12910  0.04720  0.49685  1.0000 -0.6782484267
O   O22       1.0  0.87240  0.42240  0.03057  1.0000 -0.7140215004
O   O23       1.0  0.19070  0.13470  0.04035  1.0000 -0.6581250841
O   O24       1.0  0.86870  0.98370  0.45592  1.0000 -0.6581250841
O   O25       1.0  0.92620  0.08910  0.08111  1.0000 -0.649644868
O   O26       1.0  0.58460  0.48610  0.41319  1.0000 -0.649644868
O   O27       1.0  0.64430  0.40280  0.05068  1.0000 -0.6343255902
O   O28       1.0  0.80120  0.51910  0.43314  1.0000 -0.6782484267
O   O29       1.0  0.82550  0.04430  0.53289  1.0000 -0.6581250841
O   O30       1.0  0.13510  0.54100  0.53600  1.0000 -0.6782484267
O   O31       1.0  0.92130  0.38600  0.94232  1.0000 -0.649644868
O   O32       1.0  0.85700  0.47720  0.52185  1.0000 -0.6423554385
O   O33       1.0  0.20210  0.42860  0.94312  1.0000 -0.6899649465
O   O34       1.0  0.58550  0.02740  0.54093  1.0000 -0.6343255902
O   O35       1.0  0.62910  0.45280  0.50315  1.0000 -0.6782484267
O   O36       1.0  0.37240  0.07760  0.96943  1.0000 -0.7140215004
O   O37       1.0  0.69070  0.36530  0.95965  1.0000 -0.6581250841
O   O38       1.0  0.36870  0.51630  0.54408  1.0000 -0.6581250841
O   O39       1.0  0.42620  0.41090  0.91889  1.0000 -0.649644868
O   O40       1.0  0.08460  0.01390  0.58681  1.0000 -0.649644868
O   O41       1.0  0.14430  0.09720  0.94932  1.0000 -0.6343255902
O   O42       1.0  0.30120  0.98090  0.56686  1.0000 -0.6782484267
O   O43       1.0  0.67450  0.95570  0.03289  1.0000 -0.6581250841
O   O44       1.0  0.36490  0.45900  0.03600  1.0000 -0.6782484267
O   O45       1.0  0.57870  0.61400  0.44232  1.0000 -0.649644868
O   O46       1.0  0.64300  0.52280  0.02185  1.0000 -0.6423554385
O   O47       1.0  0.29790  0.57140  0.44312  1.0000 -0.6899649465
O   O48       1.0  0.91450  0.97260  0.04093  1.0000 -0.6343255902
O   O49       1.0  0.87090  0.54720  0.00315  1.0000 -0.6782484267
O   O50       1.0  0.12760  0.92240  0.46943  1.0000 -0.7140215004
O   O51       1.0  0.80930  0.63470  0.45965  1.0000 -0.6581250841
O   O52       1.0  0.13130  0.48370  0.04408  1.0000 -0.6581250841
O   O53       1.0  0.07380  0.58910  0.41889  1.0000 -0.649644868
O   O54       1.0  0.41540  0.98610  0.08681  1.0000 -0.649644868
O   O55       1.0  0.35570  0.90280  0.44932  1.0000 -0.6343255902
O   O56       1.0  0.19880  0.01910  0.06686  1.0000 -0.6782484267
