# DDEC6 charges by PACMAN v1.1 (https://github.com/mtap-research/PACMAN-charge/)
data_2020[Cu][nan]3[ASR]3
_chemical_formula_sum              "Cu16 H48 C48 N32 O32"
_cell_length_a       8.0789
_cell_length_b       17.0871
_cell_length_c       17.6377
_cell_angle_alpha    90
_cell_angle_beta     102.18
_cell_angle_gamma    90

_symmetry_space_group_name_H-M    "P 1"
_symmetry_Int_Tables_number       1

loop_
  _symmetry_equiv_pos_as_xyz
  'x, y, z'

loop_
  _atom_site_type_symbol
  _atom_site_label
  _atom_site_symmetry_multiplicity
  _atom_site_fract_x
  _atom_site_fract_y
  _atom_site_fract_z
  _atom_site_occupancy
  _atom_site_charge
Cu  Cu1       1.0  0.50514  0.79126  0.78419  1.0000 0.600648054
Cu  Cu2       1.0  0.70263  0.89516  0.66810  1.0000 0.7971630778
Cu  Cu3       1.0  0.03555  0.83411  0.47085  1.0000 0.6969158883
Cu  Cu4       1.0  0.91231  0.92410  0.29826  1.0000 0.7444111343
Cu  Cu5       1.0  0.49486  0.29126  0.71581  1.0000 0.600648054
Cu  Cu6       1.0  0.29737  0.39516  0.83190  1.0000 0.7971630778
Cu  Cu7       1.0  0.96445  0.33411  0.02915  1.0000 0.6969158883
Cu  Cu8       1.0  0.08769  0.42410  0.20174  1.0000 0.7444111343
Cu  Cu9       1.0  0.49486  0.20874  0.21581  1.0000 0.600648054
Cu  Cu10      1.0  0.29737  0.10484  0.33190  1.0000 0.7971630778
Cu  Cu11      1.0  0.96445  0.16589  0.52915  1.0000 0.6969158883
Cu  Cu12      1.0  0.08769  0.07590  0.70174  1.0000 0.7444111343
Cu  Cu13      1.0  0.50514  0.70874  0.28419  1.0000 0.600648054
Cu  Cu14      1.0  0.70263  0.60484  0.16810  1.0000 0.7971630778
Cu  Cu15      1.0  0.03555  0.66589  0.97085  1.0000 0.6969158883
Cu  Cu16      1.0  0.91231  0.57590  0.79826  1.0000 0.7444111343
H   H1        1.0  0.74663  0.78564  0.73967  1.0000 0.2462247099
H   H2        1.0  0.80589  0.85767  0.38647  1.0000 0.1926415387
H   H3        1.0  0.94620  0.81577  0.81109  1.0000 0.0900919299
H   H4        1.0  0.78637  0.95093  0.85391  1.0000 0.1485666321
H   H5        1.0  0.97335  0.92792  0.89156  1.0000 0.1485666321
H   H6        1.0  0.42194  0.86286  0.51281  1.0000 0.1205034
H   H7        1.0  0.15203  0.77390  0.64888  1.0000 0.1323582268
H   H8        1.0  0.21941  0.85062  0.22648  1.0000 0.1205034
H   H9        1.0  0.33420  0.73523  0.41917  1.0000 0.1205034
H   H10       1.0  0.80954  0.99976  0.44476  1.0000 0.1083467539
H   H11       1.0  0.57646  0.88474  0.38755  1.0000 0.1323582268
H   H12       1.0  0.52834  0.96404  0.42172  1.0000 0.1323582268
H   H13       1.0  0.25337  0.28564  0.76033  1.0000 0.2462247099
H   H14       1.0  0.19411  0.35767  0.11353  1.0000 0.1926415387
H   H15       1.0  0.05380  0.31577  0.68891  1.0000 0.0900919299
H   H16       1.0  0.21363  0.45093  0.64609  1.0000 0.1485666321
H   H17       1.0  0.02665  0.42792  0.60844  1.0000 0.1485666321
H   H18       1.0  0.57806  0.36286  0.98719  1.0000 0.1205034
H   H19       1.0  0.84797  0.27390  0.85112  1.0000 0.1323582268
H   H20       1.0  0.78059  0.35062  0.27352  1.0000 0.1205034
H   H21       1.0  0.66580  0.23523  0.08083  1.0000 0.1205034
H   H22       1.0  0.19046  0.49976  0.05524  1.0000 0.1083467539
H   H23       1.0  0.42354  0.38474  0.11245  1.0000 0.1323582268
H   H24       1.0  0.47166  0.46404  0.07828  1.0000 0.1323582268
H   H25       1.0  0.25337  0.21436  0.26033  1.0000 0.2462247099
H   H26       1.0  0.19411  0.14233  0.61353  1.0000 0.1926415387
H   H27       1.0  0.05380  0.18423  0.18891  1.0000 0.0900919299
H   H28       1.0  0.21363  0.04907  0.14609  1.0000 0.1485666321
H   H29       1.0  0.02665  0.07208  0.10844  1.0000 0.1485666321
H   H30       1.0  0.57806  0.13714  0.48719  1.0000 0.1205034
H   H31       1.0  0.84797  0.22610  0.35112  1.0000 0.1323582268
H   H32       1.0  0.78059  0.14938  0.77352  1.0000 0.1205034
H   H33       1.0  0.66580  0.26477  0.58083  1.0000 0.1205034
H   H34       1.0  0.19046  0.00024  0.55524  1.0000 0.1083467539
H   H35       1.0  0.42354  0.11526  0.61245  1.0000 0.1323582268
H   H36       1.0  0.47166  0.03596  0.57828  1.0000 0.1323582268
H   H37       1.0  0.74663  0.71436  0.23967  1.0000 0.2462247099
H   H38       1.0  0.80589  0.64233  0.88647  1.0000 0.1926415387
H   H39       1.0  0.94620  0.68423  0.31109  1.0000 0.0900919299
H   H40       1.0  0.78637  0.54907  0.35391  1.0000 0.1485666321
H   H41       1.0  0.97335  0.57208  0.39156  1.0000 0.1485666321
H   H42       1.0  0.42194  0.63714  0.01281  1.0000 0.1205034
H   H43       1.0  0.15203  0.72610  0.14888  1.0000 0.1323582268
H   H44       1.0  0.21941  0.64938  0.72648  1.0000 0.1205034
H   H45       1.0  0.33420  0.76477  0.91917  1.0000 0.1205034
H   H46       1.0  0.80954  0.50024  0.94476  1.0000 0.1083467539
H   H47       1.0  0.57646  0.61526  0.88755  1.0000 0.1323582268
H   H48       1.0  0.52834  0.53596  0.92172  1.0000 0.1323582268
C   C1        1.0  0.80200  0.79780  0.89370  1.0000 0.5533067371
C   C2        1.0  0.84670  0.84070  0.82420  1.0000 0.0436186242
C   C3        1.0  0.88710  0.92550  0.84410  1.0000 -0.3658059601
C   C4        1.0  0.94900  0.97010  0.78090  1.0000 0.6406064565
C   C5        1.0  0.38840  0.84330  0.55640  1.0000 0.158114466
C   C6        1.0  0.24250  0.79490  0.63070  1.0000 0.1700530286
C   C7        1.0  0.21980  0.83190  0.27600  1.0000 0.158114466
C   C8        1.0  0.28230  0.76950  0.38040  1.0000 0.1485666321
C   C9        1.0  0.78890  0.91400  0.52350  1.0000 0.56190955
C   C10       1.0  0.77390  0.94480  0.44190  1.0000 0.0182278684
C   C11       1.0  0.60720  0.93960  0.39450  1.0000 -0.3646394913
C   C12       1.0  0.58610  0.97790  0.31370  1.0000 0.6130677398
C   C13       1.0  0.19800  0.29780  0.60630  1.0000 0.5533067371
C   C14       1.0  0.15330  0.34070  0.67580  1.0000 0.0436186242
C   C15       1.0  0.11290  0.42550  0.65590  1.0000 -0.3658059601
C   C16       1.0  0.05100  0.47010  0.71910  1.0000 0.6406064565
C   C17       1.0  0.61160  0.34330  0.94360  1.0000 0.158114466
C   C18       1.0  0.75750  0.29490  0.86930  1.0000 0.1700530286
C   C19       1.0  0.78020  0.33190  0.22400  1.0000 0.158114466
C   C20       1.0  0.71770  0.26950  0.11960  1.0000 0.1485666321
C   C21       1.0  0.21110  0.41400  0.97650  1.0000 0.56190955
C   C22       1.0  0.22610  0.44480  0.05810  1.0000 0.0182278684
C   C23       1.0  0.39280  0.43960  0.10550  1.0000 -0.3646394913
C   C24       1.0  0.41390  0.47790  0.18630  1.0000 0.6130677398
C   C25       1.0  0.19800  0.20220  0.10630  1.0000 0.5533067371
C   C26       1.0  0.15330  0.15930  0.17580  1.0000 0.0436186242
C   C27       1.0  0.11290  0.07450  0.15590  1.0000 -0.3658059601
C   C28       1.0  0.05100  0.02990  0.21910  1.0000 0.6406064565
C   C29       1.0  0.61160  0.15670  0.44360  1.0000 0.158114466
C   C30       1.0  0.75750  0.20510  0.36930  1.0000 0.1700530286
C   C31       1.0  0.78020  0.16810  0.72400  1.0000 0.158114466
C   C32       1.0  0.71770  0.23050  0.61960  1.0000 0.1485666321
C   C33       1.0  0.21110  0.08600  0.47650  1.0000 0.56190955
C   C34       1.0  0.22610  0.05520  0.55810  1.0000 0.0182278684
C   C35       1.0  0.39280  0.06040  0.60550  1.0000 -0.3646394913
C   C36       1.0  0.41390  0.02210  0.68630  1.0000 0.6130677398
C   C37       1.0  0.80200  0.70220  0.39370  1.0000 0.5533067371
C   C38       1.0  0.84670  0.65930  0.32420  1.0000 0.0436186242
C   C39       1.0  0.88710  0.57450  0.34410  1.0000 -0.3646394913
C   C40       1.0  0.94900  0.52990  0.28090  1.0000 0.6406064565
C   C41       1.0  0.38840  0.65670  0.05640  1.0000 0.158114466
C   C42       1.0  0.24250  0.70510  0.13070  1.0000 0.1700530286
C   C43       1.0  0.21980  0.66810  0.77600  1.0000 0.158114466
C   C44       1.0  0.28230  0.73050  0.88040  1.0000 0.1485666321
C   C45       1.0  0.78890  0.58600  0.02350  1.0000 0.56190955
C   C46       1.0  0.77390  0.55520  0.94190  1.0000 0.0182278684
C   C47       1.0  0.60720  0.56040  0.89450  1.0000 -0.3646394913
C   C48       1.0  0.58610  0.52210  0.81370  1.0000 0.6130677398
N   N1        1.0  0.70870  0.83429  0.76003  1.0000 -0.6192839806
N   N2        1.0  0.39370  0.80840  0.67470  1.0000 -0.2014511689
N   N3        1.0  0.48840  0.84030  0.62660  1.0000 -0.2090378766
N   N4        1.0  0.23560  0.81530  0.55580  1.0000 -0.3151391808
N   N5        1.0  0.15930  0.81670  0.38710  1.0000 -0.2014511689
N   N6        1.0  0.11800  0.85720  0.31890  1.0000 -0.2014511689
N   N7        1.0  0.32550  0.77600  0.31120  1.0000 -0.3265084838
N   N8        1.0  0.88910  0.89920  0.40350  1.0000 -0.6439309333
N   N9        1.0  0.29130  0.33429  0.73997  1.0000 -0.6192839806
N   N10       1.0  0.60630  0.30840  0.82530  1.0000 -0.2014511689
N   N11       1.0  0.51160  0.34030  0.87340  1.0000 -0.2090378766
N   N12       1.0  0.76440  0.31530  0.94420  1.0000 -0.3140485351
N   N13       1.0  0.84070  0.31670  0.11290  1.0000 -0.2014511689
N   N14       1.0  0.88200  0.35720  0.18110  1.0000 -0.2014511689
N   N15       1.0  0.67450  0.27600  0.18880  1.0000 -0.3265084838
N   N16       1.0  0.11090  0.39920  0.09650  1.0000 -0.6439309333
N   N17       1.0  0.29130  0.16571  0.23997  1.0000 -0.6192839806
N   N18       1.0  0.60630  0.19160  0.32530  1.0000 -0.2014511689
N   N19       1.0  0.51160  0.15970  0.37340  1.0000 -0.2090378766
N   N20       1.0  0.76440  0.18470  0.44420  1.0000 -0.3140485351
N   N21       1.0  0.84070  0.18330  0.61290  1.0000 -0.2014511689
N   N22       1.0  0.88200  0.14280  0.68110  1.0000 -0.2014511689
N   N23       1.0  0.67450  0.22400  0.68880  1.0000 -0.3265084838
N   N24       1.0  0.11090  0.10080  0.59650  1.0000 -0.6439309333
N   N25       1.0  0.70870  0.66571  0.26003  1.0000 -0.6192839806
N   N26       1.0  0.39370  0.69160  0.17470  1.0000 -0.2014511689
N   N27       1.0  0.48840  0.65970  0.12660  1.0000 -0.2090378766
N   N28       1.0  0.23560  0.68470  0.05580  1.0000 -0.3140485351
N   N29       1.0  0.15930  0.68330  0.88710  1.0000 -0.2014511689
N   N30       1.0  0.11800  0.64280  0.81890  1.0000 -0.2014511689
N   N31       1.0  0.32550  0.72400  0.81120  1.0000 -0.3265084838
N   N32       1.0  0.88910  0.60080  0.90350  1.0000 -0.6439309333
O   O1        1.0  0.65360  0.77190  0.88541  1.0000 -0.5096794952
O   O2        1.0  0.91510  0.78970  0.95285  1.0000 -0.5475267683
O   O3        1.0  0.91410  0.94690  0.71081  1.0000 -0.5558814321
O   O4        1.0  0.03220  0.03170  0.79860  1.0000 -0.5096794952
O   O5        1.0  0.69370  0.94080  0.56492  1.0000 -0.5181953077
O   O6        1.0  0.89910  0.86330  0.54591  1.0000 -0.4843948548
O   O7        1.0  0.70300  0.98320  0.27810  1.0000 -0.4892490943
O   O8        1.0  0.44340  0.99980  0.28700  1.0000 -0.5361182753
O   O9        1.0  0.34640  0.27190  0.61459  1.0000 -0.5096794952
O   O10       1.0  0.08490  0.28970  0.54715  1.0000 -0.5475267683
O   O11       1.0  0.08590  0.44690  0.78919  1.0000 -0.5558814321
O   O12       1.0  0.96780  0.53170  0.70140  1.0000 -0.5096794952
O   O13       1.0  0.30630  0.44080  0.93508  1.0000 -0.5181953077
O   O14       1.0  0.10090  0.36330  0.95409  1.0000 -0.4843948548
O   O15       1.0  0.29700  0.48320  0.22190  1.0000 -0.4892490943
O   O16       1.0  0.55660  0.49980  0.21300  1.0000 -0.5361182753
O   O17       1.0  0.34640  0.22810  0.11459  1.0000 -0.5096794952
O   O18       1.0  0.08490  0.21030  0.04715  1.0000 -0.5475267683
O   O19       1.0  0.08590  0.05310  0.28919  1.0000 -0.5558814321
O   O20       1.0  0.96780  0.96830  0.20140  1.0000 -0.5096794952
O   O21       1.0  0.30630  0.05920  0.43508  1.0000 -0.5181953077
O   O22       1.0  0.10090  0.13670  0.45409  1.0000 -0.4843948548
O   O23       1.0  0.29700  0.01680  0.72190  1.0000 -0.4892490943
O   O24       1.0  0.55660  0.00020  0.71300  1.0000 -0.5349828069
O   O25       1.0  0.65360  0.72810  0.38541  1.0000 -0.5096794952
O   O26       1.0  0.91510  0.71030  0.45285  1.0000 -0.5475267683
O   O27       1.0  0.91410  0.55310  0.21081  1.0000 -0.5558814321
O   O28       1.0  0.03220  0.46830  0.29860  1.0000 -0.5096794952
O   O29       1.0  0.69370  0.55920  0.06492  1.0000 -0.5181953077
O   O30       1.0  0.89910  0.63670  0.04591  1.0000 -0.4843948548
O   O31       1.0  0.70300  0.51680  0.77810  1.0000 -0.4892490943
O   O32       1.0  0.44340  0.50020  0.78700  1.0000 -0.5349828069
