# DDEC6 charges by PACMAN v1.1 (https://github.com/mtap-research/PACMAN-charge/)
data_2020[Mn][sql]2[ASR]3
_chemical_formula_sum              "Mn4 H128 C140 N24 O8"
_cell_length_a       17.0441
_cell_length_b       17.4092
_cell_length_c       20.7811
_cell_angle_alpha    65.0407
_cell_angle_beta     80.3387
_cell_angle_gamma    67.783

_symmetry_space_group_name_H-M    "P 1"
_symmetry_Int_Tables_number       1

loop_
  _symmetry_equiv_pos_as_xyz
  'x, y, z'

loop_
  _atom_site_type_symbol
  _atom_site_label
  _atom_site_symmetry_multiplicity
  _atom_site_fract_x
  _atom_site_fract_y
  _atom_site_fract_z
  _atom_site_occupancy
  _atom_site_charge
Mn  Mn1       1.0  0.91570  0.29146  0.57834  1.0000 0.6075153548
Mn  Mn2       1.0  0.54454  0.24098  0.89562  1.0000 0.5595164496
Mn  Mn3       1.0  0.08430  0.70854  0.42166  1.0000 0.6075153548
Mn  Mn4       1.0  0.45546  0.75902  0.10438  1.0000 0.5689361292
H   H1        1.0  0.51390  0.31770  0.72840  1.0000 0.100321088
H   H2        1.0  0.50070  0.27410  0.64050  1.0000 0.1283718002
H   H3        1.0  0.53070  0.11800  0.67090  1.0000 0.1088460009
H   H4        1.0  0.56770  0.01820  0.78480  1.0000 0.1180953563
H   H5        1.0  0.62600  0.89180  0.04330  1.0000 0.1180953563
H   H6        1.0  0.60090  0.03460  0.04870  1.0000 0.1180953563
H   H7        1.0  0.56990  0.91620  0.87390  1.0000 0.100321088
H   H8        1.0  0.59050  0.84520  0.95180  1.0000 0.100321088
H   H9        1.0  0.71750  0.89590  0.85410  1.0000 0.1088460009
H   H10       1.0  0.69830  0.80830  0.86960  1.0000 0.1180953563
H   H11       1.0  0.75950  0.83560  0.97510  1.0000 0.0818262571
H   H12       1.0  0.74420  0.74630  0.98790  1.0000 0.0818262571
H   H13       1.0  0.10720  0.60410  0.96240  1.0000 0.1180953563
H   H14       1.0  0.84890  0.70120  0.06430  1.0000 0.1180953563
H   H15       1.0  0.85670  0.58970  0.18020  1.0000 0.0914145342
H   H16       1.0  0.85580  0.68040  0.18080  1.0000 0.0914145342
H   H17       1.0  0.93920  0.60110  0.28090  1.0000 0.1088460009
H   H18       1.0  0.85730  0.57570  0.29710  1.0000 0.1088460009
H   H19       1.0  0.01280  0.46950  0.26720  1.0000 0.1180953563
H   H20       1.0  0.93070  0.44410  0.28620  1.0000 0.1088460009
H   H21       1.0  0.04780  0.50540  0.37540  1.0000 0.1180953563
H   H22       1.0  0.04350  0.42310  0.50670  1.0000 0.1088460009
H   H23       1.0  0.95790  0.31550  0.31890  1.0000 0.1088460009
H   H24       1.0  0.89880  0.21270  0.32490  1.0000 0.1088460009
H   H25       1.0  0.84030  0.13620  0.42770  1.0000 0.1088460009
H   H26       1.0  0.82980  0.17750  0.52240  1.0000 0.0914145342
H   H27       1.0  0.96550  0.77080  0.83760  1.0000 0.100321088
H   H28       1.0  0.10270  0.56060  0.84390  1.0000 0.1180953563
H   H29       1.0  0.24170  0.52940  0.80310  1.0000 0.1088460009
H   H30       1.0  0.31010  0.62370  0.78850  1.0000 0.100321088
H   H31       1.0  0.23670  0.76480  0.78460  1.0000 0.1088460009
H   H32       1.0  0.09620  0.79740  0.82830  1.0000 0.1180953563
H   H33       1.0  0.82350  0.72500  0.70340  1.0000 0.1283718002
H   H34       1.0  0.95840  0.55270  0.91420  1.0000 0.1413027096
H   H35       1.0  0.87610  0.43740  0.86120  1.0000 0.1088460009
H   H36       1.0  0.77320  0.36970  0.92280  1.0000 0.1180953563
H   H37       1.0  0.65390  0.37040  0.97960  1.0000 0.100321088
H   H38       1.0  0.64880  0.56810  0.02410  1.0000 0.100321088
H   H39       1.0  0.59090  0.46110  0.03950  1.0000 0.1088460009
H   H40       1.0  0.78250  0.56830  0.96400  1.0000 0.1180953563
H   H41       1.0  0.79760  0.86930  0.68400  1.0000 0.0914145342
H   H42       1.0  0.87340  0.84580  0.63240  1.0000 0.0914145342
H   H43       1.0  0.83700  0.99600  0.61250  1.0000 0.1088460009
H   H44       1.0  0.92790  0.94300  0.64570  1.0000 0.1088460009
H   H45       1.0  0.78240  0.97350  0.73580  1.0000 0.100321088
H   H46       1.0  0.87660  0.94430  0.75700  1.0000 0.1088460009
H   H47       1.0  0.69900  0.13230  0.70930  1.0000 0.1088460009
H   H48       1.0  0.71840  0.27110  0.65200  1.0000 0.1180953563
H   H49       1.0  0.99960  0.94920  0.72700  1.0000 0.1180953563
H   H50       1.0  0.14960  0.91480  0.70010  1.0000 0.1088460009
H   H51       1.0  0.19640  0.01060  0.60670  1.0000 0.1283718002
H   H52       1.0  0.10870  0.16110  0.56510  1.0000 0.100321088
H   H53       1.0  0.71320  0.69050  0.71480  1.0000 0.0914145342
H   H54       1.0  0.75840  0.63450  0.66810  1.0000 0.0914145342
H   H55       1.0  0.72560  0.46790  0.78130  1.0000 0.1088460009
H   H56       1.0  0.69350  0.48820  0.70750  1.0000 0.1088460009
H   H57       1.0  0.63280  0.63180  0.68290  1.0000 0.100321088
H   H58       1.0  0.62880  0.61900  0.76200  1.0000 0.1088460009
H   H59       1.0  0.49810  0.58670  0.76170  1.0000 0.1180953563
H   H60       1.0  0.42590  0.47300  0.81920  1.0000 0.1180953563
H   H61       1.0  0.77750  0.36370  0.75210  1.0000 0.1180953563
H   H62       1.0  0.89470  0.22870  0.77840  1.0000 0.1088460009
H   H63       1.0  0.87870  0.10990  0.86870  1.0000 0.1180953563
H   H64       1.0  0.73960  0.10210  0.90910  1.0000 0.100321088
H   H65       1.0  0.48610  0.68230  0.27160  1.0000 0.100321088
H   H66       1.0  0.49930  0.72590  0.35950  1.0000 0.1283718002
H   H67       1.0  0.46930  0.88200  0.32910  1.0000 0.1088460009
H   H68       1.0  0.43230  0.98180  0.21520  1.0000 0.1180953563
H   H69       1.0  0.37400  0.10820  0.95670  1.0000 0.1180953563
H   H70       1.0  0.39910  0.96540  0.95130  1.0000 0.1180953563
H   H71       1.0  0.43010  0.08380  0.12610  1.0000 0.100321088
H   H72       1.0  0.40950  0.15480  0.04820  1.0000 0.100321088
H   H73       1.0  0.28250  0.10410  0.14590  1.0000 0.1088460009
H   H74       1.0  0.30170  0.19170  0.13040  1.0000 0.1180953563
H   H75       1.0  0.24050  0.16440  0.02490  1.0000 0.0818262571
H   H76       1.0  0.25580  0.25370  0.01210  1.0000 0.0818262571
H   H77       1.0  0.89280  0.39590  0.03760  1.0000 0.1180953563
H   H78       1.0  0.15110  0.29880  0.93570  1.0000 0.1283718002
H   H79       1.0  0.14330  0.41030  0.81980  1.0000 0.0914145342
H   H80       1.0  0.14420  0.31960  0.81920  1.0000 0.0914145342
H   H81       1.0  0.06080  0.39890  0.71910  1.0000 0.1088460009
H   H82       1.0  0.14270  0.42430  0.70290  1.0000 0.1088460009
H   H83       1.0  0.98720  0.53050  0.73280  1.0000 0.1180953563
H   H84       1.0  0.06930  0.55590  0.71380  1.0000 0.1088460009
H   H85       1.0  0.95220  0.49460  0.62460  1.0000 0.1180953563
H   H86       1.0  0.95650  0.57690  0.49330  1.0000 0.1088460009
H   H87       1.0  0.04210  0.68450  0.68110  1.0000 0.1088460009
H   H88       1.0  0.10120  0.78730  0.67510  1.0000 0.1088460009
H   H89       1.0  0.15970  0.86380  0.57230  1.0000 0.1088460009
H   H90       1.0  0.17020  0.82250  0.47760  1.0000 0.0914145342
H   H91       1.0  0.03450  0.22920  0.16240  1.0000 0.100321088
H   H92       1.0  0.89730  0.43940  0.15610  1.0000 0.1180953563
H   H93       1.0  0.75830  0.47060  0.19690  1.0000 0.1088460009
H   H94       1.0  0.68990  0.37630  0.21150  1.0000 0.100321088
H   H95       1.0  0.76330  0.23520  0.21540  1.0000 0.1088460009
H   H96       1.0  0.90380  0.20260  0.17170  1.0000 0.1180953563
H   H97       1.0  0.17650  0.27500  0.29660  1.0000 0.1283718002
H   H98       1.0  0.04160  0.44730  0.08580  1.0000 0.1283718002
H   H99       1.0  0.12390  0.56260  0.13880  1.0000 0.1088460009
H   H100      1.0  0.22680  0.63030  0.07720  1.0000 0.1180953563
H   H101      1.0  0.34610  0.62960  0.02040  1.0000 0.100321088
H   H102      1.0  0.35120  0.43190  0.97590  1.0000 0.100321088
H   H103      1.0  0.40910  0.53890  0.96050  1.0000 0.1088460009
H   H104      1.0  0.21750  0.43170  0.03600  1.0000 0.1180953563
H   H105      1.0  0.20240  0.13070  0.31600  1.0000 0.0914145342
H   H106      1.0  0.12660  0.15420  0.36760  1.0000 0.0914145342
H   H107      1.0  0.16300  0.00400  0.38750  1.0000 0.1088460009
H   H108      1.0  0.07210  0.05700  0.35430  1.0000 0.1088460009
H   H109      1.0  0.21760  0.02650  0.26420  1.0000 0.100321088
H   H110      1.0  0.12340  0.05570  0.24300  1.0000 0.1088460009
H   H111      1.0  0.30100  0.86770  0.29070  1.0000 0.1180953563
H   H112      1.0  0.28160  0.72890  0.34800  1.0000 0.1180953563
H   H113      1.0  0.00040  0.05080  0.27300  1.0000 0.1180953563
H   H114      1.0  0.85040  0.08520  0.29990  1.0000 0.1088460009
H   H115      1.0  0.80360  0.98940  0.39330  1.0000 0.1283718002
H   H116      1.0  0.89130  0.83890  0.43490  1.0000 0.100321088
H   H117      1.0  0.28680  0.30950  0.28520  1.0000 0.0914145342
H   H118      1.0  0.24160  0.36550  0.33190  1.0000 0.0914145342
H   H119      1.0  0.27440  0.53210  0.21870  1.0000 0.1088460009
H   H120      1.0  0.30650  0.51180  0.29250  1.0000 0.1088460009
H   H121      1.0  0.36720  0.36820  0.31710  1.0000 0.100321088
H   H122      1.0  0.37120  0.38100  0.23800  1.0000 0.1088460009
H   H123      1.0  0.50190  0.41330  0.23830  1.0000 0.1180953563
H   H124      1.0  0.57410  0.52700  0.18080  1.0000 0.1180953563
H   H125      1.0  0.22250  0.63630  0.24790  1.0000 0.1180953563
H   H126      1.0  0.10530  0.77130  0.22160  1.0000 0.1088460009
H   H127      1.0  0.12130  0.89010  0.13130  1.0000 0.1283718002
H   H128      1.0  0.26040  0.89790  0.09090  1.0000 0.100321088
C   C1        1.0  0.52450  0.25690  0.73970  1.0000 0.0429814152
C   C2        1.0  0.51670  0.23170  0.68620  1.0000 -0.1843922686
C   C3        1.0  0.53430  0.13830  0.70470  1.0000 -0.0605618552
C   C4        1.0  0.55650  0.07930  0.77230  1.0000 -0.1981188384
C   C5        1.0  0.56260  0.10790  0.82120  1.0000 0.1180953563
C   C6        1.0  0.58130  0.05250  0.89930  1.0000 0.1413027096
C   C7        1.0  0.61080  0.94770  0.00540  1.0000 -0.1686667931
C   C8        1.0  0.59830  0.02590  0.00800  1.0000 -0.0605618552
C   C9        1.0  0.60760  0.89190  0.91330  1.0000 -0.1343213868
C   C10       1.0  0.69830  0.84890  0.89030  1.0000 -0.2698095021
C   C11       1.0  0.75990  0.79650  0.95270  1.0000 -0.021222553
C   C12       1.0  0.90830  0.71100  0.96930  1.0000 0.1989622089
C   C13       1.0  0.98290  0.68090  0.93910  1.0000 -0.0399601629
C   C14       1.0  0.05510  0.62520  0.98300  1.0000 -0.2201233682
C   C15       1.0  0.05020  0.60110  0.05600  1.0000 -0.021222553
C   C16       1.0  0.96960  0.63120  0.08570  1.0000 0.2133142698
C   C17       1.0  0.90180  0.68310  0.04370  1.0000 -0.3787052534
C   C18       1.0  0.88880  0.61700  0.19280  1.0000 -0.0330880935
C   C19       1.0  0.91000  0.56970  0.27020  1.0000 -0.2390861252
C   C20       1.0  0.96090  0.47590  0.29520  1.0000 -0.1603482123
C   C21       1.0  0.02330  0.46120  0.39980  1.0000 -0.1500999954
C   C22       1.0  0.02160  0.41510  0.47280  1.0000 -0.0689838145
C   C23       1.0  0.95830  0.36800  0.42130  1.0000 0.1413027096
C   C24       1.0  0.92450  0.30850  0.41810  1.0000 0.1283718002
C   C25       1.0  0.93100  0.28800  0.36030  1.0000 -0.1843922686
C   C26       1.0  0.89650  0.22520  0.36480  1.0000 -0.0605618552
C   C27       1.0  0.86000  0.18090  0.42410  1.0000 -0.1686667931
C   C28       1.0  0.85440  0.20770  0.48030  1.0000 0.020088322
C   C29       1.0  0.99150  0.70500  0.85960  1.0000 -0.1099299964
C   C30       1.0  0.08360  0.68380  0.83270  1.0000 0.0818262571
C   C31       1.0  0.12840  0.60370  0.83070  1.0000 -0.1603482123
C   C32       1.0  0.21290  0.58310  0.80930  1.0000 -0.1207977386
C   C33       1.0  0.25200  0.64050  0.79760  1.0000 -0.1207977386
C   C34       1.0  0.20980  0.72250  0.79870  1.0000 -0.1207977386
C   C35       1.0  0.12440  0.74420  0.82120  1.0000 -0.1686667931
C   C36       1.0  0.93960  0.66830  0.83410  1.0000 -0.0074190623
C   C37       1.0  0.89790  0.72120  0.76970  1.0000 0.1882254082
C   C38       1.0  0.85040  0.69050  0.74700  1.0000 -0.3749896985
C   C39       1.0  0.84210  0.60930  0.78810  1.0000 0.1792124558
C   C40       1.0  0.88310  0.55370  0.85270  1.0000 -0.021222553
C   C41       1.0  0.93000  0.58810  0.87130  1.0000 -0.1843922686
C   C42       1.0  0.87520  0.46320  0.89520  1.0000 -0.1035828691
C   C43       1.0  0.78940  0.46960  0.93560  1.0000 0.0914145342
C   C44       1.0  0.74860  0.41130  0.94370  1.0000 -0.1603482123
C   C45       1.0  0.67830  0.41060  0.97840  1.0000 -0.1099299964
C   C46       1.0  0.67650  0.52570  0.00430  1.0000 -0.1500999954
C   C47       1.0  0.63960  0.46480  0.01220  1.0000 -0.1500999954
C   C48       1.0  0.75670  0.52860  0.96640  1.0000 -0.1603482123
C   C49       1.0  0.85640  0.86420  0.67210  1.0000 -0.0330880935
C   C50       1.0  0.86830  0.95040  0.65490  1.0000 -0.250979158
C   C51       1.0  0.83640  0.98160  0.71850  1.0000 -0.1343213868
C   C52       1.0  0.75040  0.14120  0.69290  1.0000 -0.1500999954
C   C53       1.0  0.76200  0.21570  0.66250  1.0000 -0.0399601629
C   C54       1.0  0.88030  0.11960  0.67020  1.0000 0.1676992375
C   C55       1.0  0.97470  0.08180  0.65570  1.0000 0.1499964195
C   C56       1.0  0.02240  0.99140  0.69360  1.0000 -0.2390861252
C   C57       1.0  0.11180  0.97150  0.67440  1.0000 -0.0772891761
C   C58       1.0  0.14130  0.02820  0.62380  1.0000 -0.1603482123
C   C59       1.0  0.08620  0.11730  0.59610  1.0000 0.020088322
C   C60       1.0  0.73350  0.63060  0.71450  1.0000 -0.0399601629
C   C61       1.0  0.67840  0.50360  0.74880  1.0000 -0.1603482123
C   C62       1.0  0.66510  0.59960  0.72640  1.0000 -0.2390861252
C   C63       1.0  0.52380  0.52430  0.78070  1.0000 -0.1035828691
C   C64       1.0  0.48400  0.46050  0.81170  1.0000 -0.0772891761
C   C65       1.0  0.61650  0.38520  0.81240  1.0000 0.1283718002
C   C66       1.0  0.69960  0.30820  0.82180  1.0000 0.1180953563
C   C67       1.0  0.77330  0.30980  0.78650  1.0000 -0.2390861252
C   C68       1.0  0.84300  0.23090  0.80210  1.0000 -0.0605618552
C   C69       1.0  0.83140  0.16130  0.85070  1.0000 -0.1908755453
C   C70       1.0  0.74690  0.15700  0.88080  1.0000 0.0625637147
C   C71       1.0  0.47550  0.74310  0.26030  1.0000 0.0429814152
C   C72       1.0  0.48330  0.76830  0.31380  1.0000 -0.1843922686
C   C73       1.0  0.46570  0.86170  0.29530  1.0000 -0.0605618552
C   C74       1.0  0.44350  0.92070  0.22770  1.0000 -0.1981188384
C   C75       1.0  0.43740  0.89210  0.17880  1.0000 0.1283718002
C   C76       1.0  0.41870  0.94750  0.10070  1.0000 0.1413027096
C   C77       1.0  0.38920  0.05230  0.99460  1.0000 -0.1603482123
C   C78       1.0  0.40170  0.97410  0.99200  1.0000 -0.0605618552
C   C79       1.0  0.39240  0.10810  0.08670  1.0000 -0.1343213868
C   C80       1.0  0.30170  0.15110  0.10970  1.0000 -0.2698095021
C   C81       1.0  0.24010  0.20350  0.04730  1.0000 -0.021222553
C   C82       1.0  0.09170  0.28900  0.03070  1.0000 0.1989622089
C   C83       1.0  0.01710  0.31910  0.06090  1.0000 -0.0399601629
C   C84       1.0  0.94490  0.37480  0.01700  1.0000 -0.2201233682
C   C85       1.0  0.94980  0.39890  0.94400  1.0000 -0.021222553
C   C86       1.0  0.03040  0.36880  0.91430  1.0000 0.2133142698
C   C87       1.0  0.09820  0.31690  0.95630  1.0000 -0.3787052534
C   C88       1.0  0.11120  0.38300  0.80720  1.0000 -0.0330880935
C   C89       1.0  0.09000  0.43030  0.72980  1.0000 -0.2390861252
C   C90       1.0  0.03910  0.52410  0.70480  1.0000 -0.1603482123
C   C91       1.0  0.97670  0.53880  0.60020  1.0000 -0.1500999954
C   C92       1.0  0.97840  0.58490  0.52720  1.0000 -0.0689838145
C   C93       1.0  0.04170  0.63200  0.57870  1.0000 0.1413027096
C   C94       1.0  0.07550  0.69150  0.58190  1.0000 0.1283718002
C   C95       1.0  0.06900  0.71200  0.63970  1.0000 -0.1843922686
C   C96       1.0  0.10350  0.77480  0.63520  1.0000 -0.0605618552
C   C97       1.0  0.14000  0.81910  0.57590  1.0000 -0.1686667931
C   C98       1.0  0.14560  0.79230  0.51970  1.0000 0.020088322
C   C99       1.0  0.00850  0.29500  0.14040  1.0000 -0.1099299964
C   C100      1.0  0.91640  0.31620  0.16730  1.0000 0.0818262571
C   C101      1.0  0.87160  0.39630  0.16930  1.0000 -0.1603482123
C   C102      1.0  0.78710  0.41690  0.19070  1.0000 -0.1207977386
C   C103      1.0  0.74800  0.35950  0.20240  1.0000 -0.1207977386
C   C104      1.0  0.79020  0.27750  0.20130  1.0000 -0.1207977386
C   C105      1.0  0.87560  0.25580  0.17880  1.0000 -0.1686667931
C   C106      1.0  0.06040  0.33170  0.16590  1.0000 -0.0074190623
C   C107      1.0  0.10210  0.27880  0.23030  1.0000 0.1882254082
C   C108      1.0  0.14960  0.30950  0.25300  1.0000 -0.3787052534
C   C109      1.0  0.15790  0.39070  0.21190  1.0000 0.1792124558
C   C110      1.0  0.11690  0.44630  0.14730  1.0000 -0.021222553
C   C111      1.0  0.07000  0.41190  0.12870  1.0000 -0.1908755453
C   C112      1.0  0.12480  0.53680  0.10480  1.0000 -0.1035828691
C   C113      1.0  0.21060  0.53040  0.06440  1.0000 0.0914145342
C   C114      1.0  0.25140  0.58870  0.05630  1.0000 -0.1603482123
C   C115      1.0  0.32170  0.58940  0.02160  1.0000 -0.1099299964
C   C116      1.0  0.32350  0.47430  0.99570  1.0000 -0.1500999954
C   C117      1.0  0.36040  0.53520  0.98780  1.0000 -0.1500999954
C   C118      1.0  0.24330  0.47140  0.03360  1.0000 -0.1603482123
C   C119      1.0  0.14360  0.13580  0.32790  1.0000 -0.0330880935
C   C120      1.0  0.13170  0.04960  0.34510  1.0000 -0.250979158
C   C121      1.0  0.16360  0.01840  0.28150  1.0000 -0.1343213868
C   C122      1.0  0.24960  0.85880  0.30710  1.0000 -0.1500999954
C   C123      1.0  0.23800  0.78430  0.33750  1.0000 -0.0399601629
C   C124      1.0  0.11970  0.88040  0.32980  1.0000 0.1676992375
C   C125      1.0  0.02530  0.91820  0.34430  1.0000 0.1499964195
C   C126      1.0  0.97760  0.00860  0.30640  1.0000 -0.2390861252
C   C127      1.0  0.88820  0.02850  0.32560  1.0000 -0.0772891761
C   C128      1.0  0.85870  0.97180  0.37620  1.0000 -0.1603482123
C   C129      1.0  0.91380  0.88270  0.40390  1.0000 0.020088322
C   C130      1.0  0.26650  0.36940  0.28550  1.0000 -0.0399601629
C   C131      1.0  0.32160  0.49640  0.25120  1.0000 -0.1603482123
C   C132      1.0  0.33490  0.40040  0.27360  1.0000 -0.2390861252
C   C133      1.0  0.47620  0.47570  0.21930  1.0000 -0.1035828691
C   C134      1.0  0.51600  0.53950  0.18830  1.0000 -0.0772891761
C   C135      1.0  0.38350  0.61480  0.18760  1.0000 0.1283718002
C   C136      1.0  0.30040  0.69180  0.17820  1.0000 0.1180953563
C   C137      1.0  0.22670  0.69020  0.21350  1.0000 -0.2390861252
C   C138      1.0  0.15700  0.76910  0.19790  1.0000 -0.0605618552
C   C139      1.0  0.16860  0.83870  0.14930  1.0000 -0.1908755453
C   C140      1.0  0.25310  0.84300  0.11920  1.0000 0.0625637147
N   N1        1.0  0.58100  0.09240  0.94100  1.0000 -0.3220324915
N   N2        1.0  0.54670  0.19750  0.80710  1.0000 -0.2981716794
N   N3        1.0  0.59740  0.96340  0.93620  1.0000 -0.0074190623
N   N4        1.0  0.98390  0.43110  0.37080  1.0000 0.029207661
N   N5        1.0  0.98140  0.35510  0.48550  1.0000 -0.3220324915
N   N6        1.0  0.88200  0.27360  0.47930  1.0000 -0.2762405675
N   N7        1.0  0.82660  0.07730  0.69670  1.0000 0.020088322
N   N8        1.0  0.84160  0.20720  0.64740  1.0000 -0.2939700287
N   N9        1.0  0.00460  0.14380  0.61070  1.0000 -0.2390861252
N   N10       1.0  0.60290  0.47970  0.78380  1.0000 0.029207661
N   N11       1.0  0.54380  0.37690  0.82920  1.0000 -0.2698095021
N   N12       1.0  0.68410  0.23210  0.86620  1.0000 -0.2390861252
N   N13       1.0  0.41900  0.90760  0.05900  1.0000 -0.3220324915
N   N14       1.0  0.45330  0.80250  0.19290  1.0000 -0.2981716794
N   N15       1.0  0.40260  0.03660  0.06380  1.0000 -0.0074190623
N   N16       1.0  0.01610  0.56890  0.62920  1.0000 0.029207661
N   N17       1.0  0.01860  0.64490  0.51450  1.0000 -0.3220324915
N   N18       1.0  0.11800  0.72640  0.52070  1.0000 -0.2762405675
N   N19       1.0  0.17340  0.92270  0.30330  1.0000 0.020088322
N   N20       1.0  0.15840  0.79280  0.35260  1.0000 -0.2939700287
N   N21       1.0  0.99540  0.85620  0.38930  1.0000 -0.2390861252
N   N22       1.0  0.39710  0.52030  0.21620  1.0000 0.029207661
N   N23       1.0  0.45620  0.62310  0.17080  1.0000 -0.2698095021
N   N24       1.0  0.31590  0.76790  0.13380  1.0000 -0.2390861252
O   O1        1.0  0.84150  0.76470  0.92360  1.0000 -0.2201233682
O   O2        1.0  0.96860  0.60650  0.15680  1.0000 -0.1981188384
O   O3        1.0  0.90900  0.80220  0.73110  1.0000 -0.2201233682
O   O4        1.0  0.79620  0.57170  0.76740  1.0000 -0.2597834569
O   O5        1.0  0.15850  0.23530  0.07640  1.0000 -0.2201233682
O   O6        1.0  0.03140  0.39350  0.84320  1.0000 -0.1981188384
O   O7        1.0  0.09100  0.19780  0.26890  1.0000 -0.2201233682
O   O8        1.0  0.20380  0.42830  0.23260  1.0000 -0.2597834569
