# DDEC6 charges by PACMAN v1.1 (https://github.com/mtap-research/PACMAN-charge/)
data_2020[Co][fes]2[ASR]1
_chemical_formula_sum              "Co4 H44 C92 N16 O32"
_cell_length_a       8.614
_cell_length_b       17.187
_cell_length_c       24.854
_cell_angle_alpha    90
_cell_angle_beta     109.488
_cell_angle_gamma    90

_symmetry_space_group_name_H-M    "P 1"
_symmetry_Int_Tables_number       1

loop_
  _symmetry_equiv_pos_as_xyz
  'x, y, z'

loop_
  _atom_site_type_symbol
  _atom_site_label
  _atom_site_symmetry_multiplicity
  _atom_site_fract_x
  _atom_site_fract_y
  _atom_site_fract_z
  _atom_site_occupancy
  _atom_site_charge
Co  Co1       1.0  0.78925  0.76754  0.53325  1.0000 0.8354577513
Co  Co2       1.0  0.21075  0.26754  0.96675  1.0000 0.8354577513
Co  Co3       1.0  0.21075  0.23246  0.46675  1.0000 0.8354577513
Co  Co4       1.0  0.78925  0.73246  0.03325  1.0000 0.8354577513
H   H1        1.0  0.94163  0.77049  0.41146  1.0000 0.3822084011
H   H2        1.0  0.47758  0.10543  0.02544  1.0000 0.3879712314
H   H3        1.0  0.26293  0.80686  0.43145  1.0000 0.1361834646
H   H4        1.0  0.05040  0.84674  0.26456  1.0000 0.1295295751
H   H5        1.0  0.53993  0.84113  0.33174  1.0000 0.1295295751
H   H6        1.0  0.10621  0.92891  0.20308  1.0000 0.1222334296
H   H7        1.0  0.34676  0.90781  0.09062  1.0000 0.1295295751
H   H8        1.0  0.51501  0.79998  0.24128  1.0000 0.1295295751
H   H9        1.0  0.88139  0.94962  0.11546  1.0000 0.1295295751
H   H10       1.0  0.82483  0.13779  0.01494  1.0000 0.1295295751
H   H11       1.0  0.26327  0.02976  0.07446  1.0000 0.1295295751
H   H12       1.0  0.05837  0.27049  0.08854  1.0000 0.3822084011
H   H13       1.0  0.52242  0.60543  0.47456  1.0000 0.3879712314
H   H14       1.0  0.73707  0.30686  0.06855  1.0000 0.1361834646
H   H15       1.0  0.94960  0.34674  0.23544  1.0000 0.1295295751
H   H16       1.0  0.46007  0.34113  0.16826  1.0000 0.1295295751
H   H17       1.0  0.89379  0.42891  0.29692  1.0000 0.1222334296
H   H18       1.0  0.65324  0.40781  0.40938  1.0000 0.1295295751
H   H19       1.0  0.48499  0.29998  0.25872  1.0000 0.1295295751
H   H20       1.0  0.11861  0.44962  0.38454  1.0000 0.1295295751
H   H21       1.0  0.17517  0.63779  0.48506  1.0000 0.1295295751
H   H22       1.0  0.73673  0.52976  0.42554  1.0000 0.1295295751
H   H23       1.0  0.05837  0.22951  0.58854  1.0000 0.3822084011
H   H24       1.0  0.52242  0.89457  0.97456  1.0000 0.3879712314
H   H25       1.0  0.73707  0.19314  0.56855  1.0000 0.1361834646
H   H26       1.0  0.94960  0.15326  0.73544  1.0000 0.1295295751
H   H27       1.0  0.46007  0.15887  0.66826  1.0000 0.1295295751
H   H28       1.0  0.89379  0.07109  0.79692  1.0000 0.1222334296
H   H29       1.0  0.65324  0.09219  0.90938  1.0000 0.1295295751
H   H30       1.0  0.48499  0.20002  0.75872  1.0000 0.1295295751
H   H31       1.0  0.11861  0.05038  0.88454  1.0000 0.1295295751
H   H32       1.0  0.17517  0.86221  0.98506  1.0000 0.1295295751
H   H33       1.0  0.73673  0.97024  0.92554  1.0000 0.1295295751
H   H34       1.0  0.94163  0.72951  0.91146  1.0000 0.3822084011
H   H35       1.0  0.47758  0.39457  0.52544  1.0000 0.3879712314
H   H36       1.0  0.26293  0.69314  0.93145  1.0000 0.1361834646
H   H37       1.0  0.05040  0.65326  0.76456  1.0000 0.1295295751
H   H38       1.0  0.53993  0.65887  0.83174  1.0000 0.1295295751
H   H39       1.0  0.10621  0.57109  0.70308  1.0000 0.1222334296
H   H40       1.0  0.34676  0.59219  0.59062  1.0000 0.1295295751
H   H41       1.0  0.51501  0.70002  0.74128  1.0000 0.1295295751
H   H42       1.0  0.88139  0.55038  0.61546  1.0000 0.1295295751
H   H43       1.0  0.82483  0.36221  0.51494  1.0000 0.1295295751
H   H44       1.0  0.26327  0.47024  0.57446  1.0000 0.1295295751
C   C1        1.0  0.57640  0.81190  0.44050  1.0000 0.5602120251
C   C2        1.0  0.42640  0.82220  0.38940  1.0000 0.0069586846
C   C3        1.0  0.27140  0.81680  0.39580  1.0000 -0.1111709087
C   C4        1.0  0.13130  0.82640  0.34890  1.0000 -0.0299637172
C   C5        1.0  0.14510  0.84070  0.29610  1.0000 -0.1263238027
C   C6        1.0  0.29590  0.84630  0.28940  1.0000 0.0761242152
C   C7        1.0  0.43720  0.83720  0.33620  1.0000 -0.1111709087
C   C8        1.0  0.96420  0.82370  0.35540  1.0000 0.5398647975
C   C9        1.0  0.30810  0.86250  0.23150  1.0000 0.0893323987
C   C10       1.0  0.19300  0.90850  0.19320  1.0000 -0.1654981284
C   C11       1.0  0.20400  0.92490  0.14030  1.0000 0.0893323987
C   C12       1.0  0.33580  0.89570  0.12564  1.0000 -0.1222977486
C   C13       1.0  0.44750  0.84940  0.16340  1.0000 0.0464010208
C   C14       1.0  0.43680  0.83190  0.21620  1.0000 -0.1360050051
C   C15       1.0  0.58200  0.81810  0.14870  1.0000 0.2247708083
C   C16       1.0  0.09160  0.98170  0.10230  1.0000 0.0761242152
C   C17       1.0  0.92600  0.98590  0.09700  1.0000 -0.1222977486
C   C18       1.0  0.82680  0.04410  0.06420  1.0000 -0.0299637172
C   C19       1.0  0.89120  0.09820  0.03600  1.0000 -0.1111709087
C   C20       1.0  0.05570  0.09310  0.03940  1.0000 -0.0299637172
C   C21       1.0  0.15390  0.03390  0.07251  1.0000 -0.1222977486
C   C22       1.0  0.65060  0.04770  0.06060  1.0000 0.5398647975
C   C23       1.0  0.12430  0.15000  0.00990  1.0000 0.5398647975
C   C24       1.0  0.42360  0.31190  0.05950  1.0000 0.5602120251
C   C25       1.0  0.57360  0.32220  0.11060  1.0000 0.0069586846
C   C26       1.0  0.72860  0.31680  0.10420  1.0000 -0.1111709087
C   C27       1.0  0.86870  0.32640  0.15110  1.0000 -0.0299637172
C   C28       1.0  0.85490  0.34070  0.20390  1.0000 -0.1263238027
C   C29       1.0  0.70410  0.34630  0.21060  1.0000 0.0761242152
C   C30       1.0  0.56280  0.33720  0.16380  1.0000 -0.1111709087
C   C31       1.0  0.03580  0.32370  0.14460  1.0000 0.5398647975
C   C32       1.0  0.69190  0.36250  0.26850  1.0000 0.0893323987
C   C33       1.0  0.80700  0.40850  0.30680  1.0000 -0.1654981284
C   C34       1.0  0.79600  0.42490  0.35970  1.0000 0.0893323987
C   C35       1.0  0.66420  0.39570  0.37436  1.0000 -0.1222977486
C   C36       1.0  0.55250  0.34940  0.33660  1.0000 0.0464010208
C   C37       1.0  0.56320  0.33190  0.28380  1.0000 -0.1360050051
C   C38       1.0  0.41800  0.31810  0.35130  1.0000 0.2247708083
C   C39       1.0  0.90840  0.48170  0.39770  1.0000 0.0761242152
C   C40       1.0  0.07400  0.48590  0.40300  1.0000 -0.1222977486
C   C41       1.0  0.17320  0.54410  0.43580  1.0000 -0.0299637172
C   C42       1.0  0.10880  0.59820  0.46400  1.0000 -0.1111709087
C   C43       1.0  0.94430  0.59310  0.46060  1.0000 -0.0299637172
C   C44       1.0  0.84610  0.53390  0.42749  1.0000 -0.1222977486
C   C45       1.0  0.34940  0.54770  0.43940  1.0000 0.5398647975
C   C46       1.0  0.87570  0.65000  0.49010  1.0000 0.5398647975
C   C47       1.0  0.42360  0.18810  0.55950  1.0000 0.5602120251
C   C48       1.0  0.57360  0.17780  0.61060  1.0000 0.0069586846
C   C49       1.0  0.72860  0.18320  0.60420  1.0000 -0.1111709087
C   C50       1.0  0.86870  0.17360  0.65110  1.0000 -0.0299637172
C   C51       1.0  0.85490  0.15930  0.70390  1.0000 -0.1263238027
C   C52       1.0  0.70410  0.15370  0.71060  1.0000 0.0761242152
C   C53       1.0  0.56280  0.16280  0.66380  1.0000 -0.1111709087
C   C54       1.0  0.03580  0.17630  0.64460  1.0000 0.5398647975
C   C55       1.0  0.69190  0.13750  0.76850  1.0000 0.0893323987
C   C56       1.0  0.80700  0.09150  0.80680  1.0000 -0.1654981284
C   C57       1.0  0.79600  0.07510  0.85970  1.0000 0.0893323987
C   C58       1.0  0.66420  0.10430  0.87436  1.0000 -0.1222977486
C   C59       1.0  0.55250  0.15060  0.83660  1.0000 0.0464010208
C   C60       1.0  0.56320  0.16810  0.78380  1.0000 -0.1360050051
C   C61       1.0  0.41800  0.18190  0.85130  1.0000 0.2247708083
C   C62       1.0  0.90840  0.01830  0.89770  1.0000 0.0761242152
C   C63       1.0  0.07400  0.01410  0.90300  1.0000 -0.1222977486
C   C64       1.0  0.17320  0.95590  0.93580  1.0000 -0.0299637172
C   C65       1.0  0.10880  0.90180  0.96400  1.0000 -0.1111709087
C   C66       1.0  0.94430  0.90690  0.96060  1.0000 -0.0299637172
C   C67       1.0  0.84610  0.96610  0.92749  1.0000 -0.1222977486
C   C68       1.0  0.34940  0.95230  0.93940  1.0000 0.5398647975
C   C69       1.0  0.87570  0.85000  0.99010  1.0000 0.5398647975
C   C70       1.0  0.57640  0.68810  0.94050  1.0000 0.5602120251
C   C71       1.0  0.42640  0.67780  0.88940  1.0000 0.0069586846
C   C72       1.0  0.27140  0.68320  0.89580  1.0000 -0.1111709087
C   C73       1.0  0.13130  0.67360  0.84890  1.0000 -0.0299637172
C   C74       1.0  0.14510  0.65930  0.79610  1.0000 -0.1263238027
C   C75       1.0  0.29590  0.65370  0.78940  1.0000 0.0761242152
C   C76       1.0  0.43720  0.66280  0.83620  1.0000 -0.1111709087
C   C77       1.0  0.96420  0.67630  0.85540  1.0000 0.5398647975
C   C78       1.0  0.30810  0.63750  0.73150  1.0000 0.0893323987
C   C79       1.0  0.19300  0.59150  0.69320  1.0000 -0.1654981284
C   C80       1.0  0.20400  0.57510  0.64030  1.0000 0.0893323987
C   C81       1.0  0.33580  0.60430  0.62564  1.0000 -0.1222977486
C   C82       1.0  0.44750  0.65060  0.66340  1.0000 0.0464010208
C   C83       1.0  0.43680  0.66810  0.71620  1.0000 -0.1360050051
C   C84       1.0  0.58200  0.68190  0.64870  1.0000 0.2247708083
C   C85       1.0  0.09160  0.51830  0.60230  1.0000 0.0761242152
C   C86       1.0  0.92600  0.51410  0.59700  1.0000 -0.1222977486
C   C87       1.0  0.82680  0.45590  0.56420  1.0000 -0.0299637172
C   C88       1.0  0.89120  0.40180  0.53600  1.0000 -0.1111709087
C   C89       1.0  0.05570  0.40690  0.53940  1.0000 -0.0299637172
C   C90       1.0  0.15390  0.46610  0.57251  1.0000 -0.1222977486
C   C91       1.0  0.65060  0.45230  0.56060  1.0000 0.5398647975
C   C92       1.0  0.12430  0.35000  0.50990  1.0000 0.5398647975
N   N1        1.0  0.58450  0.80000  0.09640  1.0000 -0.1815606861
N   N2        1.0  0.72950  0.77530  0.10035  1.0000 -0.08525393
N   N3        1.0  0.82850  0.77880  0.15590  1.0000 -0.1011535286
N   N4        1.0  0.73590  0.80470  0.18420  1.0000 -0.2038464307
N   N5        1.0  0.41550  0.30000  0.40360  1.0000 -0.1815606861
N   N6        1.0  0.27050  0.27530  0.39965  1.0000 -0.08525393
N   N7        1.0  0.17150  0.27880  0.34410  1.0000 -0.1011535286
N   N8        1.0  0.26410  0.30470  0.31580  1.0000 -0.2038464307
N   N9        1.0  0.41550  0.20000  0.90360  1.0000 -0.1815606861
N   N10       1.0  0.27050  0.22470  0.89965  1.0000 -0.08525393
N   N11       1.0  0.17150  0.22120  0.84410  1.0000 -0.1011535286
N   N12       1.0  0.26410  0.19530  0.81580  1.0000 -0.2038464307
N   N13       1.0  0.58450  0.70000  0.59640  1.0000 -0.1815606861
N   N14       1.0  0.72950  0.72470  0.60035  1.0000 -0.08525393
N   N15       1.0  0.82850  0.72120  0.65590  1.0000 -0.1011535286
N   N16       1.0  0.73590  0.69530  0.68420  1.0000 -0.2038464307
O   O1        1.0  0.55670  0.79770  0.48742  1.0000 -0.4983782082
O   O2        1.0  0.71280  0.81440  0.43542  1.0000 -0.509076482
O   O3        1.0  0.97380  0.81440  0.40762  1.0000 -0.4059410303
O   O4        1.0  0.84050  0.82820  0.31658  1.0000 -0.432131788
O   O5        1.0  0.57700  0.10900  0.03180  1.0000 -0.4375237285
O   O6        1.0  0.58720  0.00150  0.08130  1.0000 -0.4506255149
O   O7        1.0  0.03410  0.20380  0.98165  1.0000 -0.509076482
O   O8        1.0  0.27270  0.14760  0.01324  1.0000 -0.5269195943
O   O9        1.0  0.44330  0.29770  0.01258  1.0000 -0.4983782082
O   O10       1.0  0.28720  0.31440  0.06458  1.0000 -0.509076482
O   O11       1.0  0.02620  0.31440  0.09238  1.0000 -0.4059410303
O   O12       1.0  0.15950  0.32820  0.18342  1.0000 -0.432131788
O   O13       1.0  0.42300  0.60900  0.46820  1.0000 -0.4375237285
O   O14       1.0  0.41280  0.50150  0.41870  1.0000 -0.4506255149
O   O15       1.0  0.96590  0.70380  0.51835  1.0000 -0.509076482
O   O16       1.0  0.72730  0.64760  0.48676  1.0000 -0.5269195943
O   O17       1.0  0.44330  0.20230  0.51258  1.0000 -0.4983782082
O   O18       1.0  0.28720  0.18560  0.56458  1.0000 -0.509076482
O   O19       1.0  0.02620  0.18560  0.59238  1.0000 -0.4059410303
O   O20       1.0  0.15950  0.17180  0.68342  1.0000 -0.432131788
O   O21       1.0  0.42300  0.89100  0.96820  1.0000 -0.4375237285
O   O22       1.0  0.41280  0.99850  0.91870  1.0000 -0.4506255149
O   O23       1.0  0.96590  0.79620  0.01835  1.0000 -0.509076482
O   O24       1.0  0.72730  0.85240  0.98676  1.0000 -0.5269195943
O   O25       1.0  0.55670  0.70230  0.98742  1.0000 -0.4983782082
O   O26       1.0  0.71280  0.68560  0.93542  1.0000 -0.509076482
O   O27       1.0  0.97380  0.68560  0.90762  1.0000 -0.4059410303
O   O28       1.0  0.84050  0.67180  0.81658  1.0000 -0.432131788
O   O29       1.0  0.57700  0.39100  0.53180  1.0000 -0.4375237285
O   O30       1.0  0.58720  0.49850  0.58130  1.0000 -0.4506255149
O   O31       1.0  0.03410  0.29620  0.48165  1.0000 -0.509076482
O   O32       1.0  0.27270  0.35240  0.51324  1.0000 -0.5269195943
