# DDEC6 charges by PACMAN v1.1 (https://github.com/mtap-research/PACMAN-charge/)
data_2020[Ce][bpq]3[ASR]1
_chemical_formula_sum              "Ce8 H48 C96 Cl8 O32"
_cell_length_a       19.4237
_cell_length_b       7.7472
_cell_length_c       23.451
_cell_angle_alpha    90
_cell_angle_beta     114.391
_cell_angle_gamma    90

_symmetry_space_group_name_H-M    "P 1"
_symmetry_Int_Tables_number       1

loop_
  _symmetry_equiv_pos_as_xyz
  'x, y, z'

loop_
  _atom_site_type_symbol
  _atom_site_label
  _atom_site_symmetry_multiplicity
  _atom_site_fract_x
  _atom_site_fract_y
  _atom_site_fract_z
  _atom_site_occupancy
  _atom_site_charge
Ce  Ce1       1.0  0.21501  0.51835  0.25370  1.0000 1.8609267
Ce  Ce2       1.0  0.27547  0.01856  0.25470  1.0000 1.8609267
Ce  Ce3       1.0  0.78499  0.01835  0.24630  1.0000 1.8609267
Ce  Ce4       1.0  0.72453  0.51856  0.24530  1.0000 1.8609267
Ce  Ce5       1.0  0.78499  0.48165  0.74630  1.0000 1.8609267
Ce  Ce6       1.0  0.72453  0.98144  0.74530  1.0000 1.8609267
Ce  Ce7       1.0  0.21501  0.98165  0.75370  1.0000 1.8609267
Ce  Ce8       1.0  0.27547  0.48144  0.75470  1.0000 1.8609267
H   H1        1.0  0.00945  0.42273  0.04542  1.0000 0.1116320216
H   H2        1.0  0.92554  0.28949  0.95655  1.0000 0.1213910082
H   H3        1.0  0.11776  0.97621  0.10869  1.0000 0.1213910082
H   H4        1.0  0.43612  0.91748  0.48298  1.0000 0.1213910082
H   H5        1.0  0.52483  0.78338  0.56832  1.0000 0.130550742
H   H6        1.0  0.40047  0.48134  0.38287  1.0000 0.130550742
H   H7        1.0  0.28228  0.42435  0.48184  1.0000 0.1116320216
H   H8        1.0  0.28133  0.29256  0.56893  1.0000 0.130550742
H   H9        1.0  0.26770  0.02610  0.62318  1.0000 0.130550742
H   H10       1.0  0.21733  0.57806  0.52837  1.0000 0.1116320216
H   H11       1.0  0.21183  0.71321  0.43953  1.0000 0.130550742
H   H12       1.0  0.22506  0.97963  0.38539  1.0000 0.130550742
H   H13       1.0  0.99055  0.92273  0.45458  1.0000 0.1116320216
H   H14       1.0  0.07446  0.78949  0.54345  1.0000 0.1213910082
H   H15       1.0  0.88224  0.47621  0.39131  1.0000 0.1213910082
H   H16       1.0  0.56388  0.41748  0.01702  1.0000 0.1213910082
H   H17       1.0  0.47517  0.28338  0.93168  1.0000 0.130550742
H   H18       1.0  0.59953  0.98134  0.11713  1.0000 0.130550742
H   H19       1.0  0.71772  0.92435  0.01816  1.0000 0.1116320216
H   H20       1.0  0.71867  0.79256  0.93107  1.0000 0.130550742
H   H21       1.0  0.73230  0.52610  0.87682  1.0000 0.130550742
H   H22       1.0  0.78267  0.07806  0.97163  1.0000 0.1116320216
H   H23       1.0  0.78817  0.21321  0.06047  1.0000 0.130550742
H   H24       1.0  0.77494  0.47963  0.11461  1.0000 0.130550742
H   H25       1.0  0.99055  0.57727  0.95458  1.0000 0.1116320216
H   H26       1.0  0.07446  0.71051  0.04345  1.0000 0.1213910082
H   H27       1.0  0.88224  0.02379  0.89131  1.0000 0.1213910082
H   H28       1.0  0.56388  0.08252  0.51702  1.0000 0.1213910082
H   H29       1.0  0.47517  0.21662  0.43168  1.0000 0.130550742
H   H30       1.0  0.59953  0.51866  0.61713  1.0000 0.130550742
H   H31       1.0  0.71772  0.57565  0.51816  1.0000 0.1116320216
H   H32       1.0  0.71867  0.70744  0.43107  1.0000 0.130550742
H   H33       1.0  0.73230  0.97390  0.37682  1.0000 0.130550742
H   H34       1.0  0.78267  0.42194  0.47163  1.0000 0.1116320216
H   H35       1.0  0.78817  0.28679  0.56047  1.0000 0.130550742
H   H36       1.0  0.77494  0.02037  0.61461  1.0000 0.130550742
H   H37       1.0  0.00945  0.07727  0.54542  1.0000 0.1116320216
H   H38       1.0  0.92554  0.21051  0.45655  1.0000 0.1213910082
H   H39       1.0  0.11776  0.52379  0.60869  1.0000 0.1213910082
H   H40       1.0  0.43612  0.58252  0.98298  1.0000 0.1213910082
H   H41       1.0  0.52483  0.71662  0.06832  1.0000 0.130550742
H   H42       1.0  0.40047  0.01866  0.88287  1.0000 0.130550742
H   H43       1.0  0.28228  0.07565  0.98184  1.0000 0.1116320216
H   H44       1.0  0.28133  0.20744  0.06893  1.0000 0.130550742
H   H45       1.0  0.26770  0.47390  0.12318  1.0000 0.130550742
H   H46       1.0  0.21733  0.92194  0.02837  1.0000 0.1116320216
H   H47       1.0  0.21183  0.78679  0.93953  1.0000 0.130550742
H   H48       1.0  0.22506  0.52037  0.88539  1.0000 0.130550742
C   C1        1.0  0.12740  0.30440  0.14153  1.0000 0.6004106029
C   C2        1.0  0.07300  0.21110  0.08523  1.0000 -0.0212435722
C   C3        1.0  0.01430  0.30540  0.03956  1.0000 -0.1091324533
C   C4        1.0  0.96430  0.22600  0.98649  1.0000 -0.1419792633
C   C5        1.0  0.02880  0.95190  0.02296  1.0000 0.0810754665
C   C6        1.0  0.07960  0.03840  0.07768  1.0000 -0.1336182829
C   C7        1.0  0.35750  0.80680  0.36805  1.0000 0.6004106029
C   C8        1.0  0.41020  0.71140  0.42414  1.0000 -0.0212435722
C   C9        1.0  0.44770  0.80200  0.48044  1.0000 -0.1049444925
C   C10       1.0  0.50050  0.72240  0.53120  1.0000 -0.1419792633
C   C11       1.0  0.48100  0.45380  0.47220  1.0000 0.0810754665
C   C12       1.0  0.42610  0.54080  0.42020  1.0000 -0.1336182829
C   C13       1.0  0.24650  0.30970  0.36752  1.0000 0.6004106029
C   C14       1.0  0.25180  0.21310  0.42421  1.0000 -0.0212435722
C   C15       1.0  0.27030  0.30780  0.48048  1.0000 -0.1091324533
C   C16       1.0  0.27050  0.22840  0.53273  1.0000 -0.1419792633
C   C17       1.0  0.25480  0.05160  0.53241  1.0000 0.0810754665
C   C18       1.0  0.25760  0.96430  0.58659  1.0000 -0.1419792633
C   C19       1.0  0.24560  0.79040  0.58546  1.0000 -0.0212435722
C   C20       1.0  0.25290  0.69310  0.64275  1.0000 0.5927301173
C   C21       1.0  0.22710  0.69580  0.52918  1.0000 -0.1091324533
C   C22       1.0  0.22350  0.77680  0.47600  1.0000 -0.1419792633
C   C23       1.0  0.23730  0.95500  0.47610  1.0000 0.0810754665
C   C24       1.0  0.23630  0.04110  0.42223  1.0000 -0.1336182829
C   C25       1.0  0.87260  0.80440  0.35847  1.0000 0.6004106029
C   C26       1.0  0.92700  0.71110  0.41477  1.0000 -0.0212435722
C   C27       1.0  0.98570  0.80540  0.46044  1.0000 -0.1091324533
C   C28       1.0  0.03570  0.72600  0.51351  1.0000 -0.1419792633
C   C29       1.0  0.97120  0.45190  0.47704  1.0000 0.0810754665
C   C30       1.0  0.92040  0.53840  0.42232  1.0000 -0.1336182829
C   C31       1.0  0.64250  0.30680  0.13195  1.0000 0.6004106029
C   C32       1.0  0.58980  0.21140  0.07586  1.0000 -0.0212435722
C   C33       1.0  0.55230  0.30200  0.01956  1.0000 -0.1049444925
C   C34       1.0  0.49950  0.22240  0.96880  1.0000 -0.1419792633
C   C35       1.0  0.51900  0.95380  0.02780  1.0000 0.0810754665
C   C36       1.0  0.57390  0.04080  0.07980  1.0000 -0.1336182829
C   C37       1.0  0.75350  0.80970  0.13248  1.0000 0.6004106029
C   C38       1.0  0.74820  0.71310  0.07579  1.0000 -0.0212435722
C   C39       1.0  0.72970  0.80780  0.01952  1.0000 -0.1091324533
C   C40       1.0  0.72950  0.72840  0.96727  1.0000 -0.1419792633
C   C41       1.0  0.74520  0.55160  0.96759  1.0000 0.0810754665
C   C42       1.0  0.74240  0.46430  0.91341  1.0000 -0.1419792633
C   C43       1.0  0.75440  0.29040  0.91454  1.0000 -0.0212435722
C   C44       1.0  0.74710  0.19310  0.85725  1.0000 0.5927301173
C   C45       1.0  0.77290  0.19580  0.97082  1.0000 -0.1091324533
C   C46       1.0  0.77650  0.27680  0.02400  1.0000 -0.1419792633
C   C47       1.0  0.76270  0.45500  0.02390  1.0000 0.0810754665
C   C48       1.0  0.76370  0.54110  0.07777  1.0000 -0.1336182829
C   C49       1.0  0.87260  0.69560  0.85847  1.0000 0.6004106029
C   C50       1.0  0.92700  0.78890  0.91477  1.0000 -0.0212435722
C   C51       1.0  0.98570  0.69460  0.96044  1.0000 -0.1091324533
C   C52       1.0  0.03570  0.77400  0.01351  1.0000 -0.1419792633
C   C53       1.0  0.97120  0.04810  0.97704  1.0000 0.0810754665
C   C54       1.0  0.92040  0.96160  0.92232  1.0000 -0.1336182829
C   C55       1.0  0.64250  0.19320  0.63195  1.0000 0.6004106029
C   C56       1.0  0.58980  0.28860  0.57586  1.0000 -0.0212435722
C   C57       1.0  0.55230  0.19800  0.51956  1.0000 -0.1049444925
C   C58       1.0  0.49950  0.27760  0.46880  1.0000 -0.1419792633
C   C59       1.0  0.51900  0.54620  0.52780  1.0000 0.0810754665
C   C60       1.0  0.57390  0.45920  0.57980  1.0000 -0.1336182829
C   C61       1.0  0.75350  0.69030  0.63248  1.0000 0.6004106029
C   C62       1.0  0.74820  0.78690  0.57579  1.0000 -0.0212435722
C   C63       1.0  0.72970  0.69220  0.51952  1.0000 -0.1091324533
C   C64       1.0  0.72950  0.77160  0.46727  1.0000 -0.1419792633
C   C65       1.0  0.74520  0.94840  0.46759  1.0000 0.0810754665
C   C66       1.0  0.74240  0.03570  0.41341  1.0000 -0.1419792633
C   C67       1.0  0.75440  0.20960  0.41454  1.0000 -0.0212435722
C   C68       1.0  0.74710  0.30690  0.35725  1.0000 0.5927301173
C   C69       1.0  0.77290  0.30420  0.47082  1.0000 -0.1091324533
C   C70       1.0  0.77650  0.22320  0.52400  1.0000 -0.1419792633
C   C71       1.0  0.76270  0.04500  0.52390  1.0000 0.0810754665
C   C72       1.0  0.76370  0.95890  0.57777  1.0000 -0.1336182829
C   C73       1.0  0.12740  0.19560  0.64153  1.0000 0.6004106029
C   C74       1.0  0.07300  0.28890  0.58523  1.0000 -0.0212435722
C   C75       1.0  0.01430  0.19460  0.53956  1.0000 -0.1091324533
C   C76       1.0  0.96430  0.27400  0.48649  1.0000 -0.1419792633
C   C77       1.0  0.02880  0.54810  0.52296  1.0000 0.0810754665
C   C78       1.0  0.07960  0.46160  0.57768  1.0000 -0.1336182829
C   C79       1.0  0.35750  0.69320  0.86805  1.0000 0.6004106029
C   C80       1.0  0.41020  0.78860  0.92414  1.0000 -0.0212435722
C   C81       1.0  0.44770  0.69800  0.98044  1.0000 -0.1049444925
C   C82       1.0  0.50050  0.77760  0.03120  1.0000 -0.1419792633
C   C83       1.0  0.48100  0.04620  0.97220  1.0000 0.0810754665
C   C84       1.0  0.42610  0.95920  0.92020  1.0000 -0.1336182829
C   C85       1.0  0.24650  0.19030  0.86752  1.0000 0.6004106029
C   C86       1.0  0.25180  0.28690  0.92421  1.0000 -0.0212435722
C   C87       1.0  0.27030  0.19220  0.98048  1.0000 -0.1091324533
C   C88       1.0  0.27050  0.27160  0.03273  1.0000 -0.1419792633
C   C89       1.0  0.25480  0.44840  0.03241  1.0000 0.0810754665
C   C90       1.0  0.25760  0.53570  0.08659  1.0000 -0.1419792633
C   C91       1.0  0.24560  0.70960  0.08546  1.0000 -0.0212435722
C   C92       1.0  0.25290  0.80690  0.14275  1.0000 0.5927301173
C   C93       1.0  0.22710  0.80420  0.02918  1.0000 -0.1091324533
C   C94       1.0  0.22350  0.72320  0.97600  1.0000 -0.1419792633
C   C95       1.0  0.23730  0.54500  0.97610  1.0000 0.0810754665
C   C96       1.0  0.23630  0.45890  0.92223  1.0000 -0.1336182829
Cl  Cl1       1.0  0.14344  0.84608  0.25430  1.0000 -0.6443832989
Cl  Cl2       1.0  0.34781  0.34513  0.25321  1.0000 -0.65191974
Cl  Cl3       1.0  0.85656  0.34608  0.24570  1.0000 -0.6443832989
Cl  Cl4       1.0  0.65219  0.84513  0.24679  1.0000 -0.65191974
Cl  Cl5       1.0  0.85656  0.15392  0.74570  1.0000 -0.6443832989
Cl  Cl6       1.0  0.65219  0.65487  0.74679  1.0000 -0.65191974
Cl  Cl7       1.0  0.14344  0.65392  0.75430  1.0000 -0.6443832989
Cl  Cl8       1.0  0.34781  0.15487  0.75321  1.0000 -0.65191974
O   O1        1.0  0.12448  0.46650  0.14267  1.0000 -0.5794848826
O   O2        1.0  0.17581  0.22200  0.18709  1.0000 -0.6725210424
O   O3        1.0  0.31461  0.72470  0.31911  1.0000 -0.6807781037
O   O4        1.0  0.35826  0.96770  0.36851  1.0000 -0.5694419618
O   O5        1.0  0.24420  0.47060  0.36752  1.0000 -0.564274403
O   O6        1.0  0.24008  0.22780  0.31826  1.0000 -0.6896569904
O   O7        1.0  0.25310  0.77360  0.68986  1.0000 -0.6725210424
O   O8        1.0  0.25970  0.53280  0.64384  1.0000 -0.5694419618
O   O9        1.0  0.87552  0.96650  0.35733  1.0000 -0.5794848826
O   O10       1.0  0.82419  0.72200  0.31291  1.0000 -0.6725210424
O   O11       1.0  0.68539  0.22470  0.18089  1.0000 -0.6807781037
O   O12       1.0  0.64174  0.46770  0.13149  1.0000 -0.5694419618
O   O13       1.0  0.75580  0.97060  0.13248  1.0000 -0.564274403
O   O14       1.0  0.75992  0.72780  0.18174  1.0000 -0.6896569904
O   O15       1.0  0.74690  0.27360  0.81014  1.0000 -0.6725210424
O   O16       1.0  0.74030  0.03280  0.85616  1.0000 -0.5694419618
O   O17       1.0  0.87552  0.53350  0.85733  1.0000 -0.5794848826
O   O18       1.0  0.82419  0.77800  0.81291  1.0000 -0.6725210424
O   O19       1.0  0.68539  0.27530  0.68089  1.0000 -0.6807781037
O   O20       1.0  0.64174  0.03230  0.63149  1.0000 -0.5694419618
O   O21       1.0  0.75580  0.52940  0.63248  1.0000 -0.564274403
O   O22       1.0  0.75992  0.77220  0.68174  1.0000 -0.6896569904
O   O23       1.0  0.74690  0.22640  0.31014  1.0000 -0.6725210424
O   O24       1.0  0.74030  0.46720  0.35616  1.0000 -0.5694419618
O   O25       1.0  0.12448  0.03350  0.64267  1.0000 -0.5794848826
O   O26       1.0  0.17581  0.27800  0.68709  1.0000 -0.6725210424
O   O27       1.0  0.31461  0.77530  0.81911  1.0000 -0.6807781037
O   O28       1.0  0.35826  0.53230  0.86851  1.0000 -0.5694419618
O   O29       1.0  0.24420  0.02940  0.86752  1.0000 -0.564274403
O   O30       1.0  0.24008  0.27220  0.81826  1.0000 -0.6896569904
O   O31       1.0  0.25310  0.72640  0.18986  1.0000 -0.6725210424
O   O32       1.0  0.25970  0.96720  0.14384  1.0000 -0.5694419618
