# DDEC6 charges by PACMAN v1.1 (https://github.com/mtap-research/PACMAN-charge/)
data_2020[Eu][nan]3[ASR]5
_chemical_formula_sum              "Eu8 H96 C144 O48"
_cell_length_a       15.3361
_cell_length_b       14.0082
_cell_length_c       24.351
_cell_angle_alpha    90
_cell_angle_beta     103.718
_cell_angle_gamma    90

_symmetry_space_group_name_H-M    "P 1"
_symmetry_Int_Tables_number       1

loop_
  _symmetry_equiv_pos_as_xyz
  'x, y, z'

loop_
  _atom_site_type_symbol
  _atom_site_label
  _atom_site_symmetry_multiplicity
  _atom_site_fract_x
  _atom_site_fract_y
  _atom_site_fract_z
  _atom_site_occupancy
  _atom_site_charge
Eu  Eu1       1.0  0.90489  0.22625  0.71135  1.0000 2.0902582286
Eu  Eu2       1.0  0.67361  0.20791  0.76290  1.0000 2.0902582286
Eu  Eu3       1.0  0.59511  0.72625  0.28865  1.0000 2.0902582286
Eu  Eu4       1.0  0.82639  0.70791  0.23710  1.0000 2.0902582286
Eu  Eu5       1.0  0.09511  0.77375  0.28865  1.0000 2.0902582286
Eu  Eu6       1.0  0.32639  0.79209  0.23710  1.0000 2.0902582286
Eu  Eu7       1.0  0.40489  0.27375  0.71135  1.0000 2.0902582286
Eu  Eu8       1.0  0.17361  0.29209  0.76290  1.0000 2.0902582286
H   H1        1.0  0.73520  0.94620  0.74670  1.0000 0.1470696644
H   H2        1.0  0.88780  0.87030  0.72280  1.0000 0.1185070977
H   H3        1.0  0.91700  0.70730  0.74220  1.0000 0.1185070977
H   H4        1.0  0.69130  0.81040  0.77410  1.0000 0.1185070977
H   H5        1.0  0.65100  0.66060  0.79450  1.0000 0.1185070977
H   H6        1.0  0.74810  0.53120  0.79750  1.0000 0.1300161956
H   H7        1.0  0.87680  0.46450  0.77210  1.0000 0.1300161956
H   H8        1.0  0.00220  0.58260  0.74450  1.0000 0.1394436723
H   H9        1.0  0.64340  0.43020  0.68600  1.0000 0.1470696644
H   H10       1.0  0.72180  0.49300  0.60530  1.0000 0.1185070977
H   H11       1.0  0.52310  0.51250  0.65640  1.0000 0.1300161956
H   H12       1.0  0.39630  0.59640  0.61300  1.0000 0.1185070977
H   H13       1.0  0.63270  0.58260  0.52710  1.0000 0.1185070977
H   H14       1.0  0.38320  0.67340  0.52750  1.0000 0.1185070977
H   H15       1.0  0.55810  0.66900  0.45100  1.0000 0.1105971398
H   H16       1.0  0.38460  0.74260  0.43990  1.0000 0.1470696644
H   H17       1.0  0.50480  0.48260  0.79930  1.0000 0.1394436723
H   H18       1.0  0.64350  0.46120  0.89290  1.0000 0.1185070977
H   H19       1.0  0.64580  0.54670  0.97740  1.0000 0.1185070977
H   H20       1.0  0.65830  0.62640  0.06430  1.0000 0.1185070977
H   H21       1.0  0.50760  0.71810  0.08250  1.0000 0.1300161956
H   H22       1.0  0.44210  0.71870  0.99370  1.0000 0.1185070977
H   H23       1.0  0.44100  0.58690  0.84360  1.0000 0.1185070977
H   H24       1.0  0.37540  0.68890  0.89510  1.0000 0.1105971398
H   H25       1.0  0.76480  0.44620  0.25330  1.0000 0.1470696644
H   H26       1.0  0.61220  0.37030  0.27720  1.0000 0.1185070977
H   H27       1.0  0.58300  0.20730  0.25780  1.0000 0.1185070977
H   H28       1.0  0.80870  0.31040  0.22590  1.0000 0.1185070977
H   H29       1.0  0.84900  0.16060  0.20550  1.0000 0.1185070977
H   H30       1.0  0.75190  0.03120  0.20250  1.0000 0.1300161956
H   H31       1.0  0.62320  0.96450  0.22790  1.0000 0.1300161956
H   H32       1.0  0.49780  0.08260  0.25550  1.0000 0.1394436723
H   H33       1.0  0.85660  0.93020  0.31400  1.0000 0.1470696644
H   H34       1.0  0.77820  0.99300  0.39470  1.0000 0.1185070977
H   H35       1.0  0.97690  0.01250  0.34360  1.0000 0.1300161956
H   H36       1.0  0.10370  0.09640  0.38700  1.0000 0.1185070977
H   H37       1.0  0.86730  0.08260  0.47290  1.0000 0.1185070977
H   H38       1.0  0.11680  0.17340  0.47250  1.0000 0.1185070977
H   H39       1.0  0.94190  0.16900  0.54900  1.0000 0.1105971398
H   H40       1.0  0.11540  0.24260  0.56010  1.0000 0.1470696644
H   H41       1.0  0.99520  0.98260  0.20070  1.0000 0.1394436723
H   H42       1.0  0.85650  0.96120  0.10710  1.0000 0.1185070977
H   H43       1.0  0.85420  0.04670  0.02260  1.0000 0.1185070977
H   H44       1.0  0.84170  0.12640  0.93570  1.0000 0.1185070977
H   H45       1.0  0.99240  0.21810  0.91750  1.0000 0.1300161956
H   H46       1.0  0.05790  0.21870  0.00630  1.0000 0.1185070977
H   H47       1.0  0.05900  0.08690  0.15640  1.0000 0.1185070977
H   H48       1.0  0.12460  0.18890  0.10490  1.0000 0.1105971398
H   H49       1.0  0.26480  0.05380  0.25330  1.0000 0.1470696644
H   H50       1.0  0.11220  0.12970  0.27720  1.0000 0.1185070977
H   H51       1.0  0.08300  0.29270  0.25780  1.0000 0.1185070977
H   H52       1.0  0.30870  0.18960  0.22590  1.0000 0.1185070977
H   H53       1.0  0.34900  0.33940  0.20550  1.0000 0.1185070977
H   H54       1.0  0.25190  0.46880  0.20250  1.0000 0.1300161956
H   H55       1.0  0.12320  0.53550  0.22790  1.0000 0.1300161956
H   H56       1.0  0.99780  0.41740  0.25550  1.0000 0.1394436723
H   H57       1.0  0.35660  0.56980  0.31400  1.0000 0.1470696644
H   H58       1.0  0.27820  0.50700  0.39470  1.0000 0.1185070977
H   H59       1.0  0.47690  0.48750  0.34360  1.0000 0.1300161956
H   H60       1.0  0.60370  0.40360  0.38700  1.0000 0.1185070977
H   H61       1.0  0.36730  0.41740  0.47290  1.0000 0.1185070977
H   H62       1.0  0.61680  0.32660  0.47250  1.0000 0.1185070977
H   H63       1.0  0.44190  0.33100  0.54900  1.0000 0.1105971398
H   H64       1.0  0.61540  0.25740  0.56010  1.0000 0.1470696644
H   H65       1.0  0.49520  0.51740  0.20070  1.0000 0.1394436723
H   H66       1.0  0.35650  0.53880  0.10710  1.0000 0.1185070977
H   H67       1.0  0.35420  0.45330  0.02260  1.0000 0.1185070977
H   H68       1.0  0.34170  0.37360  0.93570  1.0000 0.1185070977
H   H69       1.0  0.49240  0.28190  0.91750  1.0000 0.1300161956
H   H70       1.0  0.55790  0.28130  0.00630  1.0000 0.1185070977
H   H71       1.0  0.55900  0.41310  0.15640  1.0000 0.1185070977
H   H72       1.0  0.62460  0.31110  0.10490  1.0000 0.1105971398
H   H73       1.0  0.23520  0.55380  0.74670  1.0000 0.1470696644
H   H74       1.0  0.38780  0.62970  0.72280  1.0000 0.1185070977
H   H75       1.0  0.41700  0.79270  0.74220  1.0000 0.1185070977
H   H76       1.0  0.19130  0.68960  0.77410  1.0000 0.1185070977
H   H77       1.0  0.15100  0.83940  0.79450  1.0000 0.1185070977
H   H78       1.0  0.24810  0.96880  0.79750  1.0000 0.1300161956
H   H79       1.0  0.37680  0.03550  0.77210  1.0000 0.1300161956
H   H80       1.0  0.50220  0.91740  0.74450  1.0000 0.1394436723
H   H81       1.0  0.14340  0.06980  0.68600  1.0000 0.1470696644
H   H82       1.0  0.22180  0.00700  0.60530  1.0000 0.1185070977
H   H83       1.0  0.02310  0.98750  0.65640  1.0000 0.1300161956
H   H84       1.0  0.89630  0.90360  0.61300  1.0000 0.1185070977
H   H85       1.0  0.13270  0.91740  0.52710  1.0000 0.1185070977
H   H86       1.0  0.88320  0.82660  0.52750  1.0000 0.1185070977
H   H87       1.0  0.05810  0.83100  0.45100  1.0000 0.1105971398
H   H88       1.0  0.88460  0.75740  0.43990  1.0000 0.1470696644
H   H89       1.0  0.00480  0.01740  0.79930  1.0000 0.1394436723
H   H90       1.0  0.14350  0.03880  0.89290  1.0000 0.1185070977
H   H91       1.0  0.14580  0.95330  0.97740  1.0000 0.1185070977
H   H92       1.0  0.15830  0.87360  0.06430  1.0000 0.1185070977
H   H93       1.0  0.00760  0.78190  0.08250  1.0000 0.1300161956
H   H94       1.0  0.94210  0.78130  0.99370  1.0000 0.1185070977
H   H95       1.0  0.94100  0.91310  0.84360  1.0000 0.1185070977
H   H96       1.0  0.87540  0.81110  0.89510  1.0000 0.1105971398
C   C1        1.0  0.82720  0.04020  0.72300  1.0000 0.6389267175
C   C2        1.0  0.79030  0.94770  0.73690  1.0000 -0.2130186232
C   C3        1.0  0.83530  0.86740  0.73560  1.0000 -0.0893168239
C   C4        1.0  0.80730  0.77280  0.75320  1.0000 0.1105971398
C   C5        1.0  0.86340  0.69710  0.75290  1.0000 -0.1989379733
C   C6        1.0  0.72800  0.75880  0.77140  1.0000 -0.1501880509
C   C7        1.0  0.70600  0.66980  0.78520  1.0000 -0.0893168239
C   C8        1.0  0.76300  0.59090  0.78570  1.0000 -0.1501880509
C   C9        1.0  0.84280  0.60440  0.76810  1.0000 0.1105971398
C   C10       1.0  0.89880  0.52380  0.76480  1.0000 -0.0718995053
C   C11       1.0  0.97890  0.52430  0.75240  1.0000 -0.2466848427
C   C12       1.0  0.03180  0.43940  0.75060  1.0000 0.6579372613
C   C13       1.0  0.76620  0.37270  0.68440  1.0000 0.6469091354
C   C14       1.0  0.68730  0.43210  0.66540  1.0000 -0.2298966022
C   C15       1.0  0.67390  0.48650  0.62240  1.0000 -0.0718995053
C   C16       1.0  0.59270  0.54030  0.59630  1.0000 0.1185070977
C   C17       1.0  0.52020  0.54350  0.62230  1.0000 -0.1387581723
C   C18       1.0  0.44410  0.59400  0.59560  1.0000 -0.0893168239
C   C19       1.0  0.58580  0.58580  0.54530  1.0000 -0.1989379733
C   C20       1.0  0.43540  0.64100  0.54470  1.0000 -0.1593607636
C   C21       1.0  0.50810  0.63670  0.52100  1.0000 0.1013880996
C   C22       1.0  0.50650  0.67770  0.46410  1.0000 -0.0544252777
C   C23       1.0  0.43660  0.72750  0.42840  1.0000 -0.3315955224
C   C24       1.0  0.44690  0.75450  0.37410  1.0000 0.6714938758
C   C25       1.0  0.60400  0.38390  0.79590  1.0000 0.6389267175
C   C26       1.0  0.55780  0.45670  0.82080  1.0000 -0.2373558255
C   C27       1.0  0.58920  0.48720  0.87350  1.0000 -0.0893168239
C   C28       1.0  0.54880  0.55630  0.90450  1.0000 0.1105971398
C   C29       1.0  0.59050  0.57430  0.96130  1.0000 -0.1989379733
C   C30       1.0  0.54820  0.63490  0.99450  1.0000 0.1105971398
C   C31       1.0  0.59980  0.64920  0.05380  1.0000 -0.0893168239
C   C32       1.0  0.56560  0.69370  0.09330  1.0000 -0.2466848427
C   C33       1.0  0.61580  0.70550  0.15260  1.0000 0.6837345241
C   C34       1.0  0.46900  0.67900  0.97230  1.0000 -0.1593607636
C   C35       1.0  0.46900  0.59900  0.88120  1.0000 -0.1501880509
C   C36       1.0  0.42900  0.65900  0.91200  1.0000 -0.0837951237
C   C37       1.0  0.67280  0.54020  0.27700  1.0000 0.6389267175
C   C38       1.0  0.70970  0.44770  0.26310  1.0000 -0.2130186232
C   C39       1.0  0.66470  0.36740  0.26440  1.0000 -0.0893168239
C   C40       1.0  0.69270  0.27280  0.24680  1.0000 0.1105971398
C   C41       1.0  0.63660  0.19710  0.24710  1.0000 -0.1989379733
C   C42       1.0  0.77200  0.25880  0.22860  1.0000 -0.1501880509
C   C43       1.0  0.79400  0.16980  0.21480  1.0000 -0.0893168239
C   C44       1.0  0.73700  0.09090  0.21430  1.0000 -0.1501880509
C   C45       1.0  0.65720  0.10440  0.23190  1.0000 0.1105971398
C   C46       1.0  0.60120  0.02380  0.23520  1.0000 -0.0718995053
C   C47       1.0  0.52110  0.02430  0.24760  1.0000 -0.2466848427
C   C48       1.0  0.46820  0.93940  0.24940  1.0000 0.6579372613
C   C49       1.0  0.73380  0.87270  0.31560  1.0000 0.6469091354
C   C50       1.0  0.81270  0.93210  0.33460  1.0000 -0.2298966022
C   C51       1.0  0.82610  0.98650  0.37760  1.0000 -0.0718995053
C   C52       1.0  0.90730  0.04030  0.40370  1.0000 0.1185070977
C   C53       1.0  0.97980  0.04350  0.37770  1.0000 -0.1387581723
C   C54       1.0  0.05590  0.09400  0.40440  1.0000 -0.0893168239
C   C55       1.0  0.91420  0.08580  0.45470  1.0000 -0.1989379733
C   C56       1.0  0.06460  0.14100  0.45530  1.0000 -0.1593607636
C   C57       1.0  0.99190  0.13670  0.47900  1.0000 0.1013880996
C   C58       1.0  0.99350  0.17770  0.53590  1.0000 -0.0544252777
C   C59       1.0  0.06340  0.22750  0.57160  1.0000 -0.3315955224
C   C60       1.0  0.05310  0.25450  0.62590  1.0000 0.6714938758
C   C61       1.0  0.89600  0.88390  0.20410  1.0000 0.6389267175
C   C62       1.0  0.94220  0.95670  0.17920  1.0000 -0.2373558255
C   C63       1.0  0.91080  0.98720  0.12650  1.0000 -0.0893168239
C   C64       1.0  0.95120  0.05630  0.09550  1.0000 0.1105971398
C   C65       1.0  0.90950  0.07430  0.03870  1.0000 -0.1989379733
C   C66       1.0  0.95180  0.13490  0.00550  1.0000 0.1105971398
C   C67       1.0  0.90020  0.14920  0.94620  1.0000 -0.0893168239
C   C68       1.0  0.93440  0.19370  0.90670  1.0000 -0.2466848427
C   C69       1.0  0.88420  0.20550  0.84740  1.0000 0.6837345241
C   C70       1.0  0.03100  0.17900  0.02770  1.0000 -0.1593607636
C   C71       1.0  0.03100  0.09900  0.11880  1.0000 -0.1501880509
C   C72       1.0  0.07100  0.15900  0.08800  1.0000 -0.0837951237
C   C73       1.0  0.17280  0.95980  0.27700  1.0000 0.6389267175
C   C74       1.0  0.20970  0.05230  0.26310  1.0000 -0.2130186232
C   C75       1.0  0.16470  0.13260  0.26440  1.0000 -0.0893168239
C   C76       1.0  0.19270  0.22720  0.24680  1.0000 0.1105971398
C   C77       1.0  0.13660  0.30290  0.24710  1.0000 -0.1989379733
C   C78       1.0  0.27200  0.24120  0.22860  1.0000 -0.1501880509
C   C79       1.0  0.29400  0.33020  0.21480  1.0000 -0.0893168239
C   C80       1.0  0.23700  0.40910  0.21430  1.0000 -0.1501880509
C   C81       1.0  0.15720  0.39560  0.23190  1.0000 0.1105971398
C   C82       1.0  0.10120  0.47620  0.23520  1.0000 -0.0718995053
C   C83       1.0  0.02110  0.47570  0.24760  1.0000 -0.2466848427
C   C84       1.0  0.96820  0.56060  0.24940  1.0000 0.6579372613
C   C85       1.0  0.23380  0.62730  0.31560  1.0000 0.6469091354
C   C86       1.0  0.31270  0.56790  0.33460  1.0000 -0.2298966022
C   C87       1.0  0.32610  0.51350  0.37760  1.0000 -0.0718995053
C   C88       1.0  0.40730  0.45970  0.40370  1.0000 0.1185070977
C   C89       1.0  0.47980  0.45650  0.37770  1.0000 -0.1387581723
C   C90       1.0  0.55590  0.40600  0.40440  1.0000 -0.0893168239
C   C91       1.0  0.41420  0.41420  0.45470  1.0000 -0.1989379733
C   C92       1.0  0.56460  0.35900  0.45530  1.0000 -0.1593607636
C   C93       1.0  0.49190  0.36330  0.47900  1.0000 0.1013880996
C   C94       1.0  0.49350  0.32230  0.53590  1.0000 -0.0544252777
C   C95       1.0  0.56340  0.27250  0.57160  1.0000 -0.3315955224
C   C96       1.0  0.55310  0.24550  0.62590  1.0000 0.6714938758
C   C97       1.0  0.39600  0.61610  0.20410  1.0000 0.6389267175
C   C98       1.0  0.44220  0.54330  0.17920  1.0000 -0.2373558255
C   C99       1.0  0.41080  0.51280  0.12650  1.0000 -0.0893168239
C   C100      1.0  0.45120  0.44370  0.09550  1.0000 0.1105971398
C   C101      1.0  0.40950  0.42570  0.03870  1.0000 -0.1989379733
C   C102      1.0  0.45180  0.36510  0.00550  1.0000 0.1105971398
C   C103      1.0  0.40020  0.35080  0.94620  1.0000 -0.0893168239
C   C104      1.0  0.43440  0.30630  0.90670  1.0000 -0.2466848427
C   C105      1.0  0.38420  0.29450  0.84740  1.0000 0.6837345241
C   C106      1.0  0.53100  0.32100  0.02770  1.0000 -0.1593607636
C   C107      1.0  0.53100  0.40100  0.11880  1.0000 -0.1501880509
C   C108      1.0  0.57100  0.34100  0.08800  1.0000 -0.0837951237
C   C109      1.0  0.32720  0.45980  0.72300  1.0000 0.6389267175
C   C110      1.0  0.29030  0.55230  0.73690  1.0000 -0.2130186232
C   C111      1.0  0.33530  0.63260  0.73560  1.0000 -0.0893168239
C   C112      1.0  0.30730  0.72720  0.75320  1.0000 0.1105971398
C   C113      1.0  0.36340  0.80290  0.75290  1.0000 -0.1989379733
C   C114      1.0  0.22800  0.74120  0.77140  1.0000 -0.1501880509
C   C115      1.0  0.20600  0.83020  0.78520  1.0000 -0.0893168239
C   C116      1.0  0.26300  0.90910  0.78570  1.0000 -0.1501880509
C   C117      1.0  0.34280  0.89560  0.76810  1.0000 0.1105971398
C   C118      1.0  0.39880  0.97620  0.76480  1.0000 -0.0718995053
C   C119      1.0  0.47890  0.97570  0.75240  1.0000 -0.2466848427
C   C120      1.0  0.53180  0.06060  0.75060  1.0000 0.6579372613
C   C121      1.0  0.26620  0.12730  0.68440  1.0000 0.6469091354
C   C122      1.0  0.18730  0.06790  0.66540  1.0000 -0.2298966022
C   C123      1.0  0.17390  0.01350  0.62240  1.0000 -0.0718995053
C   C124      1.0  0.09270  0.95970  0.59630  1.0000 0.1185070977
C   C125      1.0  0.02020  0.95650  0.62230  1.0000 -0.1387581723
C   C126      1.0  0.94410  0.90600  0.59560  1.0000 -0.0893168239
C   C127      1.0  0.08580  0.91420  0.54530  1.0000 -0.1989379733
C   C128      1.0  0.93540  0.85900  0.54470  1.0000 -0.1593607636
C   C129      1.0  0.00810  0.86330  0.52100  1.0000 0.1013880996
C   C130      1.0  0.00650  0.82230  0.46410  1.0000 -0.0544252777
C   C131      1.0  0.93660  0.77250  0.42840  1.0000 -0.3315955224
C   C132      1.0  0.94690  0.74550  0.37410  1.0000 0.6714938758
C   C133      1.0  0.10400  0.11610  0.79590  1.0000 0.6389267175
C   C134      1.0  0.05780  0.04330  0.82080  1.0000 -0.2373558255
C   C135      1.0  0.08920  0.01280  0.87350  1.0000 -0.0893168239
C   C136      1.0  0.04880  0.94370  0.90450  1.0000 0.1105971398
C   C137      1.0  0.09050  0.92570  0.96130  1.0000 -0.1989379733
C   C138      1.0  0.04820  0.86510  0.99450  1.0000 0.1105971398
C   C139      1.0  0.09980  0.85080  0.05380  1.0000 -0.0893168239
C   C140      1.0  0.06560  0.80630  0.09330  1.0000 -0.2466848427
C   C141      1.0  0.11580  0.79450  0.15260  1.0000 0.6837345241
C   C142      1.0  0.96900  0.82100  0.97230  1.0000 -0.1593607636
C   C143      1.0  0.96900  0.90100  0.88120  1.0000 -0.1501880509
C   C144      1.0  0.92900  0.84100  0.91200  1.0000 -0.0837951237
O   O1        1.0  0.78040  0.11650  0.72860  1.0000 -0.764057708
O   O2        1.0  0.89890  0.04820  0.71050  1.0000 -0.5824418189
O   O3        1.0  0.00640  0.35700  0.74340  1.0000 -0.6489276292
O   O4        1.0  0.11700  0.45400  0.75560  1.0000 -0.6441722208
O   O5        1.0  0.83020  0.37370  0.65950  1.0000 -0.5951461317
O   O6        1.0  0.77190  0.31270  0.72490  1.0000 -0.7402362199
O   O7        1.0  0.69760  0.69290  0.16270  1.0000 -0.6489276292
O   O8        1.0  0.55780  0.33730  0.75370  1.0000 -0.7402362199
O   O9        1.0  0.68440  0.36370  0.81590  1.0000 -0.5951461317
O   O10       1.0  0.51980  0.73910  0.35900  1.0000 -0.7123264121
O   O11       1.0  0.37350  0.78990  0.33940  1.0000 -0.7123264121
O   O12       1.0  0.56670  0.72290  0.18650  1.0000 -0.6636005761
O   O13       1.0  0.71960  0.61650  0.27140  1.0000 -0.764057708
O   O14       1.0  0.60110  0.54820  0.28950  1.0000 -0.5824418189
O   O15       1.0  0.49360  0.85700  0.25660  1.0000 -0.6441722208
O   O16       1.0  0.38300  0.95400  0.24440  1.0000 -0.6441722208
O   O17       1.0  0.66980  0.87370  0.34050  1.0000 -0.5951461317
O   O18       1.0  0.72810  0.81270  0.27510  1.0000 -0.7402362199
O   O19       1.0  0.80240  0.19290  0.83730  1.0000 -0.6489276292
O   O20       1.0  0.94220  0.83730  0.24630  1.0000 -0.7402362199
O   O21       1.0  0.81560  0.86370  0.18410  1.0000 -0.5951461317
O   O22       1.0  0.98020  0.23910  0.64100  1.0000 -0.7123264121
O   O23       1.0  0.12650  0.28990  0.66060  1.0000 -0.7123264121
O   O24       1.0  0.93330  0.22290  0.81350  1.0000 -0.6636005761
O   O25       1.0  0.21960  0.88350  0.27140  1.0000 -0.764057708
O   O26       1.0  0.10110  0.95180  0.28950  1.0000 -0.5824418189
O   O27       1.0  0.99360  0.64300  0.25660  1.0000 -0.6441722208
O   O28       1.0  0.88300  0.54600  0.24440  1.0000 -0.6441722208
O   O29       1.0  0.16980  0.62630  0.34050  1.0000 -0.5951461317
O   O30       1.0  0.22810  0.68730  0.27510  1.0000 -0.7402362199
O   O31       1.0  0.30240  0.30710  0.83730  1.0000 -0.6489276292
O   O32       1.0  0.44220  0.66270  0.24630  1.0000 -0.7402362199
O   O33       1.0  0.31560  0.63630  0.18410  1.0000 -0.5951461317
O   O34       1.0  0.48020  0.26090  0.64100  1.0000 -0.7123264121
O   O35       1.0  0.62650  0.21010  0.66060  1.0000 -0.7123264121
O   O36       1.0  0.43330  0.27710  0.81350  1.0000 -0.6636005761
O   O37       1.0  0.28040  0.38350  0.72860  1.0000 -0.764057708
O   O38       1.0  0.39890  0.45180  0.71050  1.0000 -0.5824418189
O   O39       1.0  0.50640  0.14300  0.74340  1.0000 -0.6441722208
O   O40       1.0  0.61700  0.04600  0.75560  1.0000 -0.6441722208
O   O41       1.0  0.33020  0.12630  0.65950  1.0000 -0.5951461317
O   O42       1.0  0.27190  0.18730  0.72490  1.0000 -0.7402362199
O   O43       1.0  0.19760  0.80710  0.16270  1.0000 -0.6489276292
O   O44       1.0  0.05780  0.16270  0.75370  1.0000 -0.7402362199
O   O45       1.0  0.18440  0.13630  0.81590  1.0000 -0.5951461317
O   O46       1.0  0.01980  0.76090  0.35900  1.0000 -0.7123264121
O   O47       1.0  0.87350  0.71010  0.33940  1.0000 -0.7123264121
O   O48       1.0  0.06670  0.77710  0.18650  1.0000 -0.6636005761
