# DDEC6 charges by PACMAN v1.1 (https://github.com/mtap-research/PACMAN-charge/)
data_2020[Cu][sql]2[ASR]13
_chemical_formula_sum              "Cu4 H32 C68 O16 F24"
_cell_length_a       17.4462
_cell_length_b       17.4462
_cell_length_c       23.1075
_cell_angle_alpha    60.6942
_cell_angle_beta     119.306
_cell_angle_gamma    156.854

_symmetry_space_group_name_H-M    "P 1"
_symmetry_Int_Tables_number       1

loop_
  _symmetry_equiv_pos_as_xyz
  'x, y, z'

loop_
  _atom_site_type_symbol
  _atom_site_label
  _atom_site_symmetry_multiplicity
  _atom_site_fract_x
  _atom_site_fract_y
  _atom_site_fract_z
  _atom_site_occupancy
  _atom_site_charge
Cu  Cu1       1.0  0.17798  0.12726  0.52022  1.0000 0.8221974378
Cu  Cu2       1.0  0.12726  0.17798  0.97978  1.0000 0.8221974378
Cu  Cu3       1.0  0.82202  0.87274  0.47978  1.0000 0.8221974378
Cu  Cu4       1.0  0.87274  0.82202  0.02022  1.0000 0.8221974378
H   H1        1.0  0.09519  0.84769  0.71649  1.0000 0.1296606982
H   H2        1.0  0.00100  0.65532  0.82031  1.0000 0.1138685686
H   H3        1.0  0.45144  0.26704  0.76190  1.0000 0.1208895214
H   H4        1.0  0.54484  0.45564  0.65857  1.0000 0.1296606982
H   H5        1.0  0.70671  0.51465  0.87255  1.0000 0.1208895214
H   H6        1.0  0.53391  0.43407  0.91134  1.0000 0.1296606982
H   H7        1.0  0.13749  0.88055  0.97229  1.0000 0.1296606982
H   H8        1.0  0.30920  0.96138  0.93300  1.0000 0.1208895214
H   H9        1.0  0.84769  0.09519  0.78351  1.0000 0.1296606982
H   H10       1.0  0.65532  0.00100  0.67969  1.0000 0.1138685686
H   H11       1.0  0.26704  0.45144  0.73810  1.0000 0.1208895214
H   H12       1.0  0.45564  0.54484  0.84143  1.0000 0.1296606982
H   H13       1.0  0.51465  0.70671  0.62745  1.0000 0.1208895214
H   H14       1.0  0.43407  0.53391  0.58866  1.0000 0.1296606982
H   H15       1.0  0.88055  0.13749  0.52771  1.0000 0.1296606982
H   H16       1.0  0.96138  0.30920  0.56700  1.0000 0.1208895214
H   H17       1.0  0.90481  0.15231  0.28351  1.0000 0.1296606982
H   H18       1.0  0.99900  0.34468  0.17969  1.0000 0.1138685686
H   H19       1.0  0.54856  0.73296  0.23810  1.0000 0.1208895214
H   H20       1.0  0.45516  0.54436  0.34143  1.0000 0.1296606982
H   H21       1.0  0.29329  0.48535  0.12745  1.0000 0.1208895214
H   H22       1.0  0.46609  0.56593  0.08866  1.0000 0.1296606982
H   H23       1.0  0.86251  0.11945  0.02771  1.0000 0.1296606982
H   H24       1.0  0.69080  0.03862  0.06700  1.0000 0.1208895214
H   H25       1.0  0.15231  0.90481  0.21649  1.0000 0.1296606982
H   H26       1.0  0.34468  0.99900  0.32031  1.0000 0.1138685686
H   H27       1.0  0.73296  0.54856  0.26190  1.0000 0.1208895214
H   H28       1.0  0.54436  0.45516  0.15857  1.0000 0.1296606982
H   H29       1.0  0.48535  0.29329  0.37255  1.0000 0.1208895214
H   H30       1.0  0.56593  0.46609  0.41134  1.0000 0.1296606982
H   H31       1.0  0.11945  0.86251  0.47229  1.0000 0.1296606982
H   H32       1.0  0.03862  0.69080  0.43300  1.0000 0.1208895214
C   C1        1.0  0.89470  0.79710  0.61260  1.0000 0.5712104669
C   C2        1.0  0.83160  0.67260  0.67880  1.0000 -0.0100495876
C   C3        1.0  0.96440  0.72980  0.72600  1.0000 -0.0892107393
C   C4        1.0  0.90880  0.61560  0.78810  1.0000 -0.1516051511
C   C5        1.0  0.71740  0.44380  0.80200  1.0000 0.072672159
C   C6        1.0  0.58290  0.38550  0.75300  1.0000 -0.1346782888
C   C7        1.0  0.63790  0.49750  0.69160  1.0000 -0.0892107393
C   C8        1.0  0.64539  0.31121  0.86979  1.0000 -0.2804946671
C   C9        1.0  0.52590  0.13490  0.85580  1.0000 0.6709235316
C   C10       1.0  0.81310  0.41170  0.92480  1.0000 0.6638953989
C   C11       1.0  0.52320  0.24640  0.89650  1.0000 0.0768358117
C   C12       1.0  0.58890  0.38450  0.89180  1.0000 -0.13884272
C   C13       1.0  0.48620  0.33720  0.91480  1.0000 -0.0892107393
C   C14       1.0  0.31320  0.14600  0.94300  1.0000 -0.0100495876
C   C15       1.0  0.25130  0.00870  0.95080  1.0000 -0.0892107393
C   C16       1.0  0.35370  0.05670  0.92770  1.0000 -0.1516051511
C   C17       1.0  0.19540  0.09020  0.96410  1.0000 0.5712104669
C   C18       1.0  0.79710  0.89470  0.88740  1.0000 0.5712104669
C   C19       1.0  0.67260  0.83160  0.82120  1.0000 -0.0100495876
C   C20       1.0  0.72980  0.96440  0.77400  1.0000 -0.0892107393
C   C21       1.0  0.61560  0.90880  0.71190  1.0000 -0.1516051511
C   C22       1.0  0.44380  0.71740  0.69800  1.0000 0.072672159
C   C23       1.0  0.38550  0.58290  0.74700  1.0000 -0.1346782888
C   C24       1.0  0.49750  0.63790  0.80840  1.0000 -0.0892107393
C   C25       1.0  0.31121  0.64539  0.63021  1.0000 -0.2804946671
C   C26       1.0  0.13490  0.52590  0.64420  1.0000 0.6709235316
C   C27       1.0  0.41170  0.81310  0.57520  1.0000 0.6638953989
C   C28       1.0  0.24640  0.52320  0.60350  1.0000 0.0768358117
C   C29       1.0  0.38450  0.58890  0.60820  1.0000 -0.13884272
C   C30       1.0  0.33720  0.48620  0.58520  1.0000 -0.0892107393
C   C31       1.0  0.14600  0.31320  0.55700  1.0000 -0.0100495876
C   C32       1.0  0.00870  0.25130  0.54920  1.0000 -0.0892107393
C   C33       1.0  0.05670  0.35370  0.57230  1.0000 -0.1516051511
C   C34       1.0  0.09020  0.19540  0.53590  1.0000 0.5712104669
C   C35       1.0  0.10530  0.20290  0.38740  1.0000 0.5712104669
C   C36       1.0  0.16840  0.32740  0.32120  1.0000 -0.0100495876
C   C37       1.0  0.03560  0.27020  0.27400  1.0000 -0.0892107393
C   C38       1.0  0.09120  0.38440  0.21190  1.0000 -0.1516051511
C   C39       1.0  0.28260  0.55620  0.19800  1.0000 0.072672159
C   C40       1.0  0.41710  0.61450  0.24700  1.0000 -0.1346782888
C   C41       1.0  0.36210  0.50250  0.30840  1.0000 -0.0892107393
C   C42       1.0  0.35461  0.68879  0.13021  1.0000 -0.2804946671
C   C43       1.0  0.47410  0.86510  0.14420  1.0000 0.6709235316
C   C44       1.0  0.18690  0.58830  0.07520  1.0000 0.6638953989
C   C45       1.0  0.47680  0.75360  0.10350  1.0000 0.0768358117
C   C46       1.0  0.41110  0.61550  0.10820  1.0000 -0.13884272
C   C47       1.0  0.51380  0.66280  0.08520  1.0000 -0.0892107393
C   C48       1.0  0.68680  0.85400  0.05700  1.0000 -0.0100495876
C   C49       1.0  0.74870  0.99130  0.04920  1.0000 -0.0892107393
C   C50       1.0  0.64630  0.94330  0.07230  1.0000 -0.1516051511
C   C51       1.0  0.80460  0.90980  0.03590  1.0000 0.5712104669
C   C52       1.0  0.20290  0.10530  0.11260  1.0000 0.5712104669
C   C53       1.0  0.32740  0.16840  0.17880  1.0000 -0.0100495876
C   C54       1.0  0.27020  0.03560  0.22600  1.0000 -0.0892107393
C   C55       1.0  0.38440  0.09120  0.28810  1.0000 -0.1516051511
C   C56       1.0  0.55620  0.28260  0.30200  1.0000 0.072672159
C   C57       1.0  0.61450  0.41710  0.25300  1.0000 -0.1346782888
C   C58       1.0  0.50250  0.36210  0.19160  1.0000 -0.0892107393
C   C59       1.0  0.68879  0.35461  0.36979  1.0000 -0.2804946671
C   C60       1.0  0.86510  0.47410  0.35580  1.0000 0.6709235316
C   C61       1.0  0.58830  0.18690  0.42480  1.0000 0.6638953989
C   C62       1.0  0.75360  0.47680  0.39650  1.0000 0.0768358117
C   C63       1.0  0.61550  0.41110  0.39180  1.0000 -0.13884272
C   C64       1.0  0.66280  0.51380  0.41480  1.0000 -0.0892107393
C   C65       1.0  0.85400  0.68680  0.44300  1.0000 -0.0100495876
C   C66       1.0  0.99130  0.74870  0.45080  1.0000 -0.0892107393
C   C67       1.0  0.94330  0.64630  0.42770  1.0000 -0.1516051511
C   C68       1.0  0.90980  0.80460  0.46410  1.0000 0.5712104669
O   O1        1.0  0.07080  0.95500  0.60410  1.0000 -0.5087002759
O   O2        1.0  0.25780  0.21900  0.95470  1.0000 -0.5087002759
O   O3        1.0  0.76830  0.73610  0.57020  1.0000 -0.5044433171
O   O4        1.0  0.04050  0.91730  0.98820  1.0000 -0.5087002759
O   O5        1.0  0.95500  0.07080  0.89590  1.0000 -0.5087002759
O   O6        1.0  0.21900  0.25780  0.54530  1.0000 -0.5087002759
O   O7        1.0  0.73610  0.76830  0.92980  1.0000 -0.5044433171
O   O8        1.0  0.91730  0.04050  0.51180  1.0000 -0.5087002759
O   O9        1.0  0.92920  0.04500  0.39590  1.0000 -0.5087002759
O   O10       1.0  0.74220  0.78100  0.04530  1.0000 -0.5087002759
O   O11       1.0  0.23170  0.26390  0.42980  1.0000 -0.5044433171
O   O12       1.0  0.95950  0.08270  0.01180  1.0000 -0.5087002759
O   O13       1.0  0.04500  0.92920  0.10410  1.0000 -0.5087002759
O   O14       1.0  0.78100  0.74220  0.45470  1.0000 -0.5087002759
O   O15       1.0  0.26390  0.23170  0.07020  1.0000 -0.5044433171
O   O16       1.0  0.08270  0.95950  0.48820  1.0000 -0.5087002759
F   F1        1.0  0.94263  0.58477  0.93173  1.0000 -0.1921691343
F   F2        1.0  0.48455  0.02505  0.91162  1.0000 -0.2009685134
F   F3        1.0  0.74780  0.30280  0.98381  1.0000 -0.1921691343
F   F4        1.0  0.91625  0.45155  0.91271  1.0000 -0.2009685134
F   F5        1.0  0.35582  0.01578  0.81825  1.0000 -0.2009685134
F   F6        1.0  0.62376  0.19544  0.82230  1.0000 -0.1921691343
F   F7        1.0  0.58477  0.94263  0.56827  1.0000 -0.1921691343
F   F8        1.0  0.02505  0.48455  0.58838  1.0000 -0.2009685134
F   F9        1.0  0.30280  0.74780  0.51619  1.0000 -0.1921691343
F   F10       1.0  0.45155  0.91625  0.58729  1.0000 -0.2009685134
F   F11       1.0  0.01578  0.35582  0.68175  1.0000 -0.2009685134
F   F12       1.0  0.19544  0.62376  0.67770  1.0000 -0.1921691343
F   F13       1.0  0.05737  0.41523  0.06827  1.0000 -0.1921691343
F   F14       1.0  0.51545  0.97495  0.08838  1.0000 -0.2009685134
F   F15       1.0  0.25220  0.69720  0.01619  1.0000 -0.1921691343
F   F16       1.0  0.08375  0.54845  0.08729  1.0000 -0.2009685134
F   F17       1.0  0.64418  0.98422  0.18175  1.0000 -0.2009685134
F   F18       1.0  0.37624  0.80456  0.17770  1.0000 -0.1921691343
F   F19       1.0  0.41523  0.05737  0.43173  1.0000 -0.1921691343
F   F20       1.0  0.97495  0.51545  0.41162  1.0000 -0.2009685134
F   F21       1.0  0.69720  0.25220  0.48381  1.0000 -0.1921691343
F   F22       1.0  0.54845  0.08375  0.41271  1.0000 -0.2009685134
F   F23       1.0  0.98422  0.64418  0.31825  1.0000 -0.2009685134
F   F24       1.0  0.80456  0.37624  0.32230  1.0000 -0.1921691343
