# DDEC6 charges by PACMAN v1.1 (https://github.com/mtap-research/PACMAN-charge/)
data_2020[Zn][nan]3[ASR]64
_chemical_formula_sum              "Zn4 P4 H88 C112 S8 N40 F24"
_cell_length_a       15.0498
_cell_length_b       15.2435
_cell_length_c       25.0377
_cell_angle_alpha    90
_cell_angle_beta     90
_cell_angle_gamma    90

_symmetry_space_group_name_H-M    "P 1"
_symmetry_Int_Tables_number       1

loop_
  _symmetry_equiv_pos_as_xyz
  'x, y, z'

loop_
  _atom_site_type_symbol
  _atom_site_label
  _atom_site_symmetry_multiplicity
  _atom_site_fract_x
  _atom_site_fract_y
  _atom_site_fract_z
  _atom_site_occupancy
  _atom_site_charge
Zn  Zn1       1.0  0.24077  0.50000  0.75000  1.0000 0.7477309102
Zn  Zn2       1.0  0.25923  0.00000  0.75000  1.0000 0.7477309102
Zn  Zn3       1.0  0.75923  0.50000  0.25000  1.0000 0.7477309102
Zn  Zn4       1.0  0.74077  0.00000  0.25000  1.0000 0.7477309102
P   P1        1.0  0.25000  0.25000  0.74290  1.0000 1.5973218078
P   P2        1.0  0.25000  0.75000  0.75710  1.0000 1.5973218078
P   P3        1.0  0.75000  0.75000  0.25710  1.0000 1.5973218078
P   P4        1.0  0.75000  0.25000  0.24290  1.0000 1.5973218078
H   H1        1.0  0.66740  0.89120  0.34000  1.0000 0.1091152693
H   H2        1.0  0.46910  0.01450  0.41670  1.0000 0.128682896
H   H3        1.0  0.48830  0.13290  0.35910  1.0000 0.128682896
H   H4        1.0  0.59600  0.12770  0.29280  1.0000 0.1091152693
H   H5        1.0  0.64280  0.77090  0.38720  1.0000 0.1527979555
H   H6        1.0  0.41000  0.81930  0.54300  1.0000 0.2641915376
H   H7        1.0  0.35800  0.72390  0.60270  1.0000 0.1018017064
H   H8        1.0  0.29550  0.62300  0.66440  1.0000 0.1091152693
H   H9        1.0  0.51430  0.54530  0.58780  1.0000 0.1246324027
H   H10       1.0  0.51360  0.41670  0.63890  1.0000 0.1358259762
H   H11       1.0  0.40220  0.39670  0.70220  1.0000 0.1091152693
H   H12       1.0  0.66740  0.10880  0.16000  1.0000 0.1091152693
H   H13       1.0  0.46910  0.98550  0.08330  1.0000 0.128682896
H   H14       1.0  0.48830  0.86710  0.14090  1.0000 0.128682896
H   H15       1.0  0.59600  0.87230  0.20720  1.0000 0.1091152693
H   H16       1.0  0.64280  0.22910  0.11280  1.0000 0.1527979555
H   H17       1.0  0.41000  0.18070  0.95700  1.0000 0.2641915376
H   H18       1.0  0.35800  0.27610  0.89730  1.0000 0.1018017064
H   H19       1.0  0.29550  0.37700  0.83560  1.0000 0.1091152693
H   H20       1.0  0.51430  0.45470  0.91220  1.0000 0.1246324027
H   H21       1.0  0.51360  0.58330  0.86110  1.0000 0.1358259762
H   H22       1.0  0.40220  0.60330  0.79780  1.0000 0.1091152693
H   H23       1.0  0.83260  0.39120  0.16000  1.0000 0.1091152693
H   H24       1.0  0.03090  0.51450  0.08330  1.0000 0.128682896
H   H25       1.0  0.01170  0.63290  0.14090  1.0000 0.128682896
H   H26       1.0  0.90400  0.62770  0.20720  1.0000 0.1091152693
H   H27       1.0  0.85720  0.27090  0.11280  1.0000 0.1527979555
H   H28       1.0  0.09000  0.31930  0.95700  1.0000 0.2641915376
H   H29       1.0  0.14200  0.22390  0.89730  1.0000 0.1018017064
H   H30       1.0  0.20450  0.12300  0.83560  1.0000 0.1091152693
H   H31       1.0  0.98570  0.04530  0.91220  1.0000 0.1246324027
H   H32       1.0  0.98640  0.91670  0.86110  1.0000 0.1358259762
H   H33       1.0  0.09780  0.89670  0.79780  1.0000 0.1091152693
H   H34       1.0  0.83260  0.60880  0.34000  1.0000 0.1091152693
H   H35       1.0  0.03090  0.48550  0.41670  1.0000 0.128682896
H   H36       1.0  0.01170  0.36710  0.35910  1.0000 0.128682896
H   H37       1.0  0.90400  0.37230  0.29280  1.0000 0.1091152693
H   H38       1.0  0.85720  0.72910  0.38720  1.0000 0.1527979555
H   H39       1.0  0.09000  0.68070  0.54300  1.0000 0.2641915376
H   H40       1.0  0.14200  0.77610  0.60270  1.0000 0.1018017064
H   H41       1.0  0.20450  0.87700  0.66440  1.0000 0.1091152693
H   H42       1.0  0.98570  0.95470  0.58780  1.0000 0.1246324027
H   H43       1.0  0.98640  0.08330  0.63890  1.0000 0.1358259762
H   H44       1.0  0.09780  0.10330  0.70220  1.0000 0.1091152693
H   H45       1.0  0.33260  0.10880  0.66000  1.0000 0.1091152693
H   H46       1.0  0.53090  0.98550  0.58330  1.0000 0.128682896
H   H47       1.0  0.51170  0.86710  0.64090  1.0000 0.128682896
H   H48       1.0  0.40400  0.87230  0.70720  1.0000 0.1091152693
H   H49       1.0  0.35720  0.22910  0.61280  1.0000 0.1527979555
H   H50       1.0  0.59000  0.18070  0.45700  1.0000 0.2641915376
H   H51       1.0  0.64200  0.27610  0.39730  1.0000 0.1018017064
H   H52       1.0  0.70450  0.37700  0.33560  1.0000 0.1091152693
H   H53       1.0  0.48570  0.45470  0.41220  1.0000 0.1246324027
H   H54       1.0  0.48640  0.58330  0.36110  1.0000 0.1358259762
H   H55       1.0  0.59780  0.60330  0.29780  1.0000 0.1091152693
H   H56       1.0  0.33260  0.89120  0.84000  1.0000 0.1091152693
H   H57       1.0  0.53090  0.01450  0.91670  1.0000 0.128682896
H   H58       1.0  0.51170  0.13290  0.85910  1.0000 0.128682896
H   H59       1.0  0.40400  0.12770  0.79280  1.0000 0.1091152693
H   H60       1.0  0.35720  0.77090  0.88720  1.0000 0.1527979555
H   H61       1.0  0.59000  0.81930  0.04300  1.0000 0.2641915376
H   H62       1.0  0.64200  0.72390  0.10270  1.0000 0.1018017064
H   H63       1.0  0.70450  0.62300  0.16440  1.0000 0.1091152693
H   H64       1.0  0.48570  0.54530  0.08780  1.0000 0.1246324027
H   H65       1.0  0.48640  0.41670  0.13890  1.0000 0.1358259762
H   H66       1.0  0.59780  0.39670  0.20220  1.0000 0.1091152693
H   H67       1.0  0.16740  0.60880  0.84000  1.0000 0.1091152693
H   H68       1.0  0.96910  0.48550  0.91670  1.0000 0.128682896
H   H69       1.0  0.98830  0.36710  0.85910  1.0000 0.128682896
H   H70       1.0  0.09600  0.37230  0.79280  1.0000 0.1091152693
H   H71       1.0  0.14280  0.72910  0.88720  1.0000 0.1527979555
H   H72       1.0  0.91000  0.68070  0.04300  1.0000 0.2641915376
H   H73       1.0  0.85800  0.77610  0.10270  1.0000 0.1018017064
H   H74       1.0  0.79550  0.87700  0.16440  1.0000 0.1091152693
H   H75       1.0  0.01430  0.95470  0.08780  1.0000 0.1246324027
H   H76       1.0  0.01360  0.08330  0.13890  1.0000 0.1358259762
H   H77       1.0  0.90220  0.10330  0.20220  1.0000 0.1091152693
H   H78       1.0  0.16740  0.39120  0.66000  1.0000 0.1091152693
H   H79       1.0  0.96910  0.51450  0.58330  1.0000 0.128682896
H   H80       1.0  0.98830  0.63290  0.64090  1.0000 0.128682896
H   H81       1.0  0.09600  0.62770  0.70720  1.0000 0.1091152693
H   H82       1.0  0.14280  0.27090  0.61280  1.0000 0.1527979555
H   H83       1.0  0.91000  0.31930  0.45700  1.0000 0.2641915376
H   H84       1.0  0.85800  0.22390  0.39730  1.0000 0.1018017064
H   H85       1.0  0.79550  0.12300  0.33560  1.0000 0.1091152693
H   H86       1.0  0.01430  0.04530  0.41220  1.0000 0.1246324027
H   H87       1.0  0.01360  0.91670  0.36110  1.0000 0.1358259762
H   H88       1.0  0.90220  0.89670  0.29780  1.0000 0.1091152693
C   C1        1.0  0.62950  0.94070  0.34360  1.0000 0.0412728049
C   C2        1.0  0.56520  0.93920  0.38370  1.0000 0.0200485664
C   C3        1.0  0.51300  0.01220  0.38940  1.0000 -0.0803554175
C   C4        1.0  0.52450  0.08220  0.35540  1.0000 -0.1520046802
C   C5        1.0  0.58840  0.07900  0.31600  1.0000 0.0456643107
C   C6        1.0  0.55600  0.86150  0.41860  1.0000 0.2141745533
C   C7        1.0  0.60070  0.78400  0.41430  1.0000 -0.3135082769
C   C8        1.0  0.50160  0.79270  0.48850  1.0000 0.2298974445
C   C9        1.0  0.40210  0.68190  0.59350  1.0000 -0.0075480503
C   C10       1.0  0.34130  0.58100  0.65930  1.0000 -0.0075480503
C   C11       1.0  0.46960  0.53610  0.61400  1.0000 -0.0803554175
C   C12       1.0  0.40580  0.59790  0.62210  1.0000 0.0456643107
C   C13       1.0  0.46920  0.46020  0.64390  1.0000 -0.1520046802
C   C14       1.0  0.40250  0.44870  0.68140  1.0000 0.0898869331
C   C15       1.0  0.62950  0.05930  0.15640  1.0000 0.0412728049
C   C16       1.0  0.56520  0.06080  0.11630  1.0000 0.0200485664
C   C17       1.0  0.51300  0.98780  0.11060  1.0000 -0.0803554175
C   C18       1.0  0.52450  0.91780  0.14460  1.0000 -0.1520046802
C   C19       1.0  0.58840  0.92100  0.18400  1.0000 0.0456643107
C   C20       1.0  0.55600  0.13850  0.08140  1.0000 0.2141745533
C   C21       1.0  0.60070  0.21600  0.08570  1.0000 -0.3135082769
C   C22       1.0  0.50160  0.20730  0.01150  1.0000 0.2298974445
C   C23       1.0  0.40210  0.31810  0.90650  1.0000 -0.0075480503
C   C24       1.0  0.34130  0.41900  0.84070  1.0000 -0.0075480503
C   C25       1.0  0.46960  0.46390  0.88600  1.0000 -0.0803554175
C   C26       1.0  0.40580  0.40210  0.87790  1.0000 0.0456643107
C   C27       1.0  0.46920  0.53980  0.85610  1.0000 -0.1520046802
C   C28       1.0  0.40250  0.55130  0.81860  1.0000 0.0898869331
C   C29       1.0  0.87050  0.44070  0.15640  1.0000 0.0412728049
C   C30       1.0  0.93480  0.43920  0.11630  1.0000 0.0200485664
C   C31       1.0  0.98700  0.51220  0.11060  1.0000 -0.0803554175
C   C32       1.0  0.97550  0.58220  0.14460  1.0000 -0.1520046802
C   C33       1.0  0.91160  0.57900  0.18400  1.0000 0.0456643107
C   C34       1.0  0.94400  0.36150  0.08140  1.0000 0.2141745533
C   C35       1.0  0.89930  0.28400  0.08570  1.0000 -0.3135082769
C   C36       1.0  0.99840  0.29270  0.01150  1.0000 0.2298974445
C   C37       1.0  0.09790  0.18190  0.90650  1.0000 -0.0075480503
C   C38       1.0  0.15870  0.08100  0.84070  1.0000 -0.0075480503
C   C39       1.0  0.03040  0.03610  0.88600  1.0000 -0.0803554175
C   C40       1.0  0.09420  0.09790  0.87790  1.0000 0.0412728049
C   C41       1.0  0.03080  0.96020  0.85610  1.0000 -0.1520046802
C   C42       1.0  0.09750  0.94870  0.81860  1.0000 0.0898869331
C   C43       1.0  0.87050  0.55930  0.34360  1.0000 0.0412728049
C   C44       1.0  0.93480  0.56080  0.38370  1.0000 0.0200485664
C   C45       1.0  0.98700  0.48780  0.38940  1.0000 -0.0803554175
C   C46       1.0  0.97550  0.41780  0.35540  1.0000 -0.1520046802
C   C47       1.0  0.91160  0.42100  0.31600  1.0000 0.0456643107
C   C48       1.0  0.94400  0.63850  0.41860  1.0000 0.2141745533
C   C49       1.0  0.89930  0.71600  0.41430  1.0000 -0.3135082769
C   C50       1.0  0.99840  0.70730  0.48850  1.0000 0.2298974445
C   C51       1.0  0.09790  0.81810  0.59350  1.0000 -0.0075480503
C   C52       1.0  0.15870  0.91900  0.65930  1.0000 -0.0075480503
C   C53       1.0  0.03040  0.96390  0.61400  1.0000 -0.0803554175
C   C54       1.0  0.09420  0.90210  0.62210  1.0000 0.0456643107
C   C55       1.0  0.03080  0.03980  0.64390  1.0000 -0.1520046802
C   C56       1.0  0.09750  0.05130  0.68140  1.0000 0.0898869331
C   C57       1.0  0.37050  0.05930  0.65640  1.0000 0.0412728049
C   C58       1.0  0.43480  0.06080  0.61630  1.0000 0.0200485664
C   C59       1.0  0.48700  0.98780  0.61060  1.0000 -0.0803554175
C   C60       1.0  0.47550  0.91780  0.64460  1.0000 -0.1520046802
C   C61       1.0  0.41160  0.92100  0.68400  1.0000 0.0456643107
C   C62       1.0  0.44400  0.13850  0.58140  1.0000 0.2141745533
C   C63       1.0  0.39930  0.21600  0.58570  1.0000 -0.3135082769
C   C64       1.0  0.49840  0.20730  0.51150  1.0000 0.2298974445
C   C65       1.0  0.59790  0.31810  0.40650  1.0000 -0.0075480503
C   C66       1.0  0.65870  0.41900  0.34070  1.0000 -0.0075480503
C   C67       1.0  0.53040  0.46390  0.38600  1.0000 -0.0803554175
C   C68       1.0  0.59420  0.40210  0.37790  1.0000 0.0456643107
C   C69       1.0  0.53080  0.53980  0.35610  1.0000 -0.1520046802
C   C70       1.0  0.59750  0.55130  0.31860  1.0000 0.0898869331
C   C71       1.0  0.37050  0.94070  0.84360  1.0000 0.0412728049
C   C72       1.0  0.43480  0.93920  0.88370  1.0000 0.0200485664
C   C73       1.0  0.48700  0.01220  0.88940  1.0000 -0.0803554175
C   C74       1.0  0.47550  0.08220  0.85540  1.0000 -0.1520046802
C   C75       1.0  0.41160  0.07900  0.81600  1.0000 0.0456643107
C   C76       1.0  0.44400  0.86150  0.91860  1.0000 0.2141745533
C   C77       1.0  0.39930  0.78400  0.91430  1.0000 -0.3154904848
C   C78       1.0  0.49840  0.79270  0.98850  1.0000 0.2298974445
C   C79       1.0  0.59790  0.68190  0.09350  1.0000 -0.0075480503
C   C80       1.0  0.65870  0.58100  0.15930  1.0000 -0.0075480503
C   C81       1.0  0.53040  0.53610  0.11400  1.0000 -0.0803554175
C   C82       1.0  0.59420  0.59790  0.12210  1.0000 0.0456643107
C   C83       1.0  0.53080  0.46020  0.14390  1.0000 -0.1520046802
C   C84       1.0  0.59750  0.44870  0.18140  1.0000 0.0898869331
C   C85       1.0  0.12950  0.55930  0.84360  1.0000 0.0412728049
C   C86       1.0  0.06520  0.56080  0.88370  1.0000 0.0200485664
C   C87       1.0  0.01300  0.48780  0.88940  1.0000 -0.0803554175
C   C88       1.0  0.02450  0.41780  0.85540  1.0000 -0.1520046802
C   C89       1.0  0.08840  0.42100  0.81600  1.0000 0.0456643107
C   C90       1.0  0.05600  0.63850  0.91860  1.0000 0.2141745533
C   C91       1.0  0.10070  0.71600  0.91430  1.0000 -0.3135082769
C   C92       1.0  0.00160  0.70730  0.98850  1.0000 0.2298974445
C   C93       1.0  0.90210  0.81810  0.09350  1.0000 -0.0075480503
C   C94       1.0  0.84130  0.91900  0.15930  1.0000 -0.0075480503
C   C95       1.0  0.96960  0.96390  0.11400  1.0000 -0.0803554175
C   C96       1.0  0.90580  0.90210  0.12210  1.0000 0.0456643107
C   C97       1.0  0.96920  0.03980  0.14390  1.0000 -0.1520046802
C   C98       1.0  0.90250  0.05130  0.18140  1.0000 0.0898869331
C   C99       1.0  0.12950  0.44070  0.65640  1.0000 0.0412728049
C   C100      1.0  0.06520  0.43920  0.61630  1.0000 0.0200485664
C   C101      1.0  0.01300  0.51220  0.61060  1.0000 -0.0803554175
C   C102      1.0  0.02450  0.58220  0.64460  1.0000 -0.1520046802
C   C103      1.0  0.08840  0.57900  0.68400  1.0000 0.0456643107
C   C104      1.0  0.05600  0.36150  0.58140  1.0000 0.2141745533
C   C105      1.0  0.10070  0.28400  0.58570  1.0000 -0.3135082769
C   C106      1.0  0.00160  0.29270  0.51150  1.0000 0.2298974445
C   C107      1.0  0.90210  0.18190  0.40650  1.0000 -0.0075480503
C   C108      1.0  0.84130  0.08100  0.34070  1.0000 -0.0075480503
C   C109      1.0  0.96960  0.03610  0.38600  1.0000 -0.0803554175
C   C110      1.0  0.90580  0.09790  0.37790  1.0000 0.0456643107
C   C111      1.0  0.96920  0.96020  0.35610  1.0000 -0.1520046802
C   C112      1.0  0.90250  0.94870  0.31860  1.0000 0.0898869331
S   S1        1.0  0.57080  0.71374  0.46429  1.0000 0.1091152693
S   S2        1.0  0.57080  0.28626  0.03571  1.0000 0.1091152693
S   S3        1.0  0.92920  0.21374  0.03571  1.0000 0.1091152693
S   S4        1.0  0.92920  0.78626  0.46429  1.0000 0.1018017064
S   S5        1.0  0.42920  0.28626  0.53571  1.0000 0.1091152693
S   S6        1.0  0.42920  0.71374  0.96429  1.0000 0.1091152693
S   S7        1.0  0.07080  0.78626  0.96429  1.0000 0.1018017064
S   S8        1.0  0.07080  0.21374  0.53571  1.0000 0.1091152693
N   N1        1.0  0.49910  0.86690  0.46080  1.0000 -0.3895613221
N   N2        1.0  0.44800  0.77950  0.53170  1.0000 -0.2420866465
N   N3        1.0  0.45790  0.69890  0.55620  1.0000 -0.1617218075
N   N4        1.0  0.33990  0.50700  0.68910  1.0000 -0.2226488334
N   N5        1.0  0.64050  0.00710  0.31010  1.0000 -0.2297687908
N   N6        1.0  0.49910  0.13310  0.03920  1.0000 -0.3895613221
N   N7        1.0  0.44800  0.22050  0.96830  1.0000 -0.2464873001
N   N8        1.0  0.45790  0.30110  0.94380  1.0000 -0.1617218075
N   N9        1.0  0.33990  0.49300  0.81090  1.0000 -0.2226488334
N   N10       1.0  0.64050  0.99290  0.18990  1.0000 -0.2297687908
N   N11       1.0  0.00090  0.36690  0.03920  1.0000 -0.3895613221
N   N12       1.0  0.05200  0.27950  0.96830  1.0000 -0.2420866465
N   N13       1.0  0.04210  0.19890  0.94380  1.0000 -0.1617218075
N   N14       1.0  0.16010  0.00700  0.81090  1.0000 -0.2226488334
N   N15       1.0  0.85950  0.50710  0.18990  1.0000 -0.2297687908
N   N16       1.0  0.00090  0.63310  0.46080  1.0000 -0.3895613221
N   N17       1.0  0.05200  0.72050  0.53170  1.0000 -0.2420866465
N   N18       1.0  0.04210  0.80110  0.55620  1.0000 -0.1617218075
N   N19       1.0  0.16010  0.99300  0.68910  1.0000 -0.2226488334
N   N20       1.0  0.85950  0.49290  0.31010  1.0000 -0.2297687908
N   N21       1.0  0.50090  0.13310  0.53920  1.0000 -0.3895613221
N   N22       1.0  0.55200  0.22050  0.46830  1.0000 -0.2464873001
N   N23       1.0  0.54210  0.30110  0.44380  1.0000 -0.1617218075
N   N24       1.0  0.66010  0.49300  0.31090  1.0000 -0.2226488334
N   N25       1.0  0.35950  0.99290  0.68990  1.0000 -0.2297687908
N   N26       1.0  0.50090  0.86690  0.96080  1.0000 -0.3895613221
N   N27       1.0  0.55200  0.77950  0.03170  1.0000 -0.2420866465
N   N28       1.0  0.54210  0.69890  0.05620  1.0000 -0.1617218075
N   N29       1.0  0.66010  0.50700  0.18910  1.0000 -0.2226488334
N   N30       1.0  0.35950  0.00710  0.81010  1.0000 -0.2297687908
N   N31       1.0  0.99910  0.63310  0.96080  1.0000 -0.3895613221
N   N32       1.0  0.94800  0.72050  0.03170  1.0000 -0.2420866465
N   N33       1.0  0.95790  0.80110  0.05620  1.0000 -0.1617218075
N   N34       1.0  0.83990  0.99300  0.18910  1.0000 -0.2226488334
N   N35       1.0  0.14050  0.49290  0.81010  1.0000 -0.2297687908
N   N36       1.0  0.99910  0.36690  0.53920  1.0000 -0.3895613221
N   N37       1.0  0.94800  0.27950  0.46830  1.0000 -0.2464873001
N   N38       1.0  0.95790  0.19890  0.44380  1.0000 -0.1617218075
N   N39       1.0  0.83990  0.00700  0.31090  1.0000 -0.2226488334
N   N40       1.0  0.14050  0.50710  0.68990  1.0000 -0.2297687908
F   F1        1.0  0.24360  0.36395  0.74243  1.0000 -0.469342113
F   F2        1.0  0.14050  0.24400  0.74177  1.0000 -0.462617671
F   F3        1.0  0.24360  0.63605  0.75757  1.0000 -0.469342113
F   F4        1.0  0.14050  0.75600  0.75823  1.0000 -0.462617671
F   F5        1.0  0.25640  0.86395  0.75757  1.0000 -0.469342113
F   F6        1.0  0.35950  0.74400  0.75823  1.0000 -0.462617671
F   F7        1.0  0.25640  0.13605  0.74243  1.0000 -0.469342113
F   F8        1.0  0.35950  0.25600  0.74177  1.0000 -0.462617671
F   F9        1.0  0.75640  0.63605  0.25757  1.0000 -0.469342113
F   F10       1.0  0.85950  0.75600  0.25823  1.0000 -0.462617671
F   F11       1.0  0.75640  0.36395  0.24243  1.0000 -0.469342113
F   F12       1.0  0.85950  0.24400  0.24177  1.0000 -0.462617671
F   F13       1.0  0.74360  0.13605  0.24243  1.0000 -0.469342113
F   F14       1.0  0.64050  0.25600  0.24177  1.0000 -0.462617671
F   F15       1.0  0.74360  0.86395  0.25757  1.0000 -0.469342113
F   F16       1.0  0.64050  0.74400  0.25823  1.0000 -0.462617671
F   F17       1.0  0.25000  0.25000  0.67545  1.0000 -0.462617671
F   F18       1.0  0.25000  0.25000  0.80873  1.0000 -0.469342113
F   F19       1.0  0.25000  0.75000  0.82455  1.0000 -0.462617671
F   F20       1.0  0.25000  0.75000  0.69127  1.0000 -0.469342113
F   F21       1.0  0.75000  0.75000  0.32455  1.0000 -0.462617671
F   F22       1.0  0.75000  0.75000  0.19127  1.0000 -0.469342113
F   F23       1.0  0.75000  0.25000  0.17545  1.0000 -0.462617671
F   F24       1.0  0.75000  0.25000  0.30873  1.0000 -0.469342113
