# DDEC6 charges by PACMAN v1.1 (https://github.com/mtap-research/PACMAN-charge/)
data_2020[Cd][dia]3[ASR]6
_chemical_formula_sum              "Cd4 H72 C92 N16 O20"
_cell_length_a       15.0935
_cell_length_b       15.0935
_cell_length_c       15.7688
_cell_angle_alpha    81.066
_cell_angle_beta     98.934
_cell_angle_gamma    138.89

_symmetry_space_group_name_H-M    "P 1"
_symmetry_Int_Tables_number       1

loop_
  _symmetry_equiv_pos_as_xyz
  'x, y, z'

loop_
  _atom_site_type_symbol
  _atom_site_label
  _atom_site_symmetry_multiplicity
  _atom_site_fract_x
  _atom_site_fract_y
  _atom_site_fract_z
  _atom_site_occupancy
  _atom_site_charge
Cd  Cd1       1.0  0.31791  0.10511  0.97086  1.0000 0.8186657735
Cd  Cd2       1.0  0.89489  0.68209  0.47086  1.0000 0.8186657735
Cd  Cd3       1.0  0.10511  0.31791  0.52914  1.0000 0.8186657735
Cd  Cd4       1.0  0.68209  0.89489  0.02914  1.0000 0.8186657735
H   H1        1.0  0.66830  0.34870  0.00620  1.0000 0.1023004175
H   H2        1.0  0.39850  0.96790  0.08310  1.0000 0.1315971227
H   H3        1.0  0.61690  0.07130  0.14150  1.0000 0.1415642956
H   H4        1.0  0.85470  0.49330  0.11960  1.0000 0.1315971227
H   H5        1.0  0.08190  0.65810  0.15730  1.0000 0.1315971227
H   H6        1.0  0.09110  0.40650  0.13110  1.0000 0.1187269614
H   H7        1.0  0.86450  0.24270  0.08790  1.0000 0.1525199422
H   H8        1.0  0.50930  0.80330  0.19200  1.0000 0.1187269614
H   H9        1.0  0.62270  0.76410  0.26450  1.0000 0.1315971227
H   H10       1.0  0.27560  0.40760  0.35860  1.0000 0.1315971227
H   H11       1.0  0.16220  0.44500  0.28160  1.0000 0.1187269614
H   H12       1.0  0.72330  0.73630  0.37740  1.0000 0.1315971227
H   H13       1.0  0.55170  0.38170  0.46440  1.0000 0.1187269614
H   H14       1.0  0.37580  0.34740  0.38830  1.0000 0.1415642956
H   H15       1.0  0.06300  0.96720  0.71240  1.0000 0.1315971227
H   H16       1.0  0.99240  0.82760  0.75640  1.0000 0.1187269614
H   H17       1.0  0.22870  0.00690  0.66880  1.0000 0.1187269614
H   H18       1.0  0.16620  0.87240  0.71690  1.0000 0.1187269614
H   H19       1.0  0.65130  0.33170  0.50620  1.0000 0.1023004175
H   H20       1.0  0.03210  0.60150  0.58310  1.0000 0.1315971227
H   H21       1.0  0.92870  0.38310  0.64150  1.0000 0.1415642956
H   H22       1.0  0.50670  0.14530  0.61960  1.0000 0.1315971227
H   H23       1.0  0.34190  0.91810  0.65730  1.0000 0.1315971227
H   H24       1.0  0.59350  0.90890  0.63110  1.0000 0.1187269614
H   H25       1.0  0.75730  0.13550  0.58790  1.0000 0.1525199422
H   H26       1.0  0.19670  0.49070  0.69200  1.0000 0.1187269614
H   H27       1.0  0.23590  0.37730  0.76450  1.0000 0.1315971227
H   H28       1.0  0.59240  0.72440  0.85860  1.0000 0.1315971227
H   H29       1.0  0.55500  0.83780  0.78160  1.0000 0.1187269614
H   H30       1.0  0.26370  0.27670  0.87740  1.0000 0.1315971227
H   H31       1.0  0.61830  0.44830  0.96440  1.0000 0.1187269614
H   H32       1.0  0.65260  0.62420  0.88830  1.0000 0.1415642956
H   H33       1.0  0.03280  0.93700  0.21240  1.0000 0.1315971227
H   H34       1.0  0.17240  0.00760  0.25640  1.0000 0.1187269614
H   H35       1.0  0.99310  0.77130  0.16880  1.0000 0.1187269614
H   H36       1.0  0.12760  0.83380  0.21690  1.0000 0.1187269614
H   H37       1.0  0.34870  0.66830  0.49380  1.0000 0.1023004175
H   H38       1.0  0.96790  0.39850  0.41690  1.0000 0.1315971227
H   H39       1.0  0.07130  0.61690  0.35850  1.0000 0.1415642956
H   H40       1.0  0.49330  0.85470  0.38040  1.0000 0.1315971227
H   H41       1.0  0.65810  0.08190  0.34270  1.0000 0.1315971227
H   H42       1.0  0.40650  0.09110  0.36890  1.0000 0.1187269614
H   H43       1.0  0.24270  0.86450  0.41210  1.0000 0.1525199422
H   H44       1.0  0.80330  0.50930  0.30800  1.0000 0.1187269614
H   H45       1.0  0.76410  0.62270  0.23550  1.0000 0.1315971227
H   H46       1.0  0.40760  0.27560  0.14140  1.0000 0.1315971227
H   H47       1.0  0.44500  0.16220  0.21840  1.0000 0.1187269614
H   H48       1.0  0.73630  0.72330  0.12260  1.0000 0.1315971227
H   H49       1.0  0.38170  0.55170  0.03560  1.0000 0.1187269614
H   H50       1.0  0.34740  0.37580  0.11170  1.0000 0.1415642956
H   H51       1.0  0.96720  0.06300  0.78760  1.0000 0.1315971227
H   H52       1.0  0.82760  0.99240  0.74360  1.0000 0.1187269614
H   H53       1.0  0.00690  0.22870  0.83120  1.0000 0.1187269614
H   H54       1.0  0.87240  0.16620  0.78310  1.0000 0.1187269614
H   H55       1.0  0.33170  0.65130  0.99380  1.0000 0.1023004175
H   H56       1.0  0.60150  0.03210  0.91690  1.0000 0.1315971227
H   H57       1.0  0.38310  0.92870  0.85850  1.0000 0.1415642956
H   H58       1.0  0.14530  0.50670  0.88040  1.0000 0.1315971227
H   H59       1.0  0.91810  0.34190  0.84270  1.0000 0.1315971227
H   H60       1.0  0.90890  0.59350  0.86890  1.0000 0.1187269614
H   H61       1.0  0.13550  0.75730  0.91210  1.0000 0.1525199422
H   H62       1.0  0.49070  0.19670  0.80800  1.0000 0.1187269614
H   H63       1.0  0.37730  0.23590  0.73550  1.0000 0.1315971227
H   H64       1.0  0.72440  0.59240  0.64140  1.0000 0.1315971227
H   H65       1.0  0.83780  0.55500  0.71840  1.0000 0.1187269614
H   H66       1.0  0.27670  0.26370  0.62260  1.0000 0.1315971227
H   H67       1.0  0.44830  0.61830  0.53560  1.0000 0.1187269614
H   H68       1.0  0.62420  0.65260  0.61170  1.0000 0.1415642956
H   H69       1.0  0.93700  0.03280  0.28760  1.0000 0.1315971227
H   H70       1.0  0.00760  0.17240  0.24360  1.0000 0.1187269614
H   H71       1.0  0.77130  0.99310  0.33120  1.0000 0.1187269614
H   H72       1.0  0.83380  0.12760  0.28310  1.0000 0.1187269614
C   C1        1.0  0.62765  0.26615  0.03237  1.0000 0.0911398334
C   C2        1.0  0.48099  0.05841  0.07470  1.0000 -0.025709129
C   C3        1.0  0.60100  0.11460  0.10720  1.0000 -0.0870060987
C   C4        1.0  0.83760  0.35180  0.10178  1.0000 0.1577913397
C   C5        1.0  0.90237  0.47583  0.12190  1.0000 -0.1733387514
C   C6        1.0  0.03771  0.57349  0.14540  1.0000 -0.0796843722
C   C7        1.0  0.10970  0.54850  0.15162  1.0000 -0.0193897354
C   C8        1.0  0.04344  0.42396  0.12910  1.0000 -0.1105359729
C   C9        1.0  0.90783  0.32557  0.10360  1.0000 -0.1488808311
C   C10       1.0  0.25523  0.65837  0.17912  1.0000 0.324305729
C   C11       1.0  0.32274  0.62606  0.22746  1.0000 -0.0193897354
C   C12       1.0  0.46179  0.72241  0.22436  1.0000 -0.0989554293
C   C13       1.0  0.53001  0.69999  0.26829  1.0000 -0.181322015
C   C14       1.0  0.46002  0.58178  0.31801  1.0000 0.1577913397
C   C15       1.0  0.32234  0.48646  0.32400  1.0000 -0.181322015
C   C16       1.0  0.25509  0.50951  0.27816  1.0000 -0.1105359729
C   C17       1.0  0.65895  0.64365  0.38963  1.0000 0.1023004175
C   C18       1.0  0.56445  0.44955  0.43700  1.0000 -0.0504891137
C   C19       1.0  0.46672  0.42968  0.39510  1.0000 -0.0989554293
C   C20       1.0  0.16105  0.98595  0.82535  1.0000 0.5910558262
C   C21       1.0  0.07927  0.91913  0.74267  1.0000 -0.2921808186
C   C22       1.0  0.14431  0.91489  0.68480  1.0000 -0.2921808186
C   C23       1.0  0.06327  0.84173  0.60361  1.0000 0.5984499463
C   C24       1.0  0.73385  0.37235  0.53237  1.0000 0.0911398334
C   C25       1.0  0.94159  0.51901  0.57470  1.0000 -0.025709129
C   C26       1.0  0.88540  0.39900  0.60720  1.0000 -0.0870060987
C   C27       1.0  0.64820  0.16240  0.60178  1.0000 0.1577913397
C   C28       1.0  0.52417  0.09763  0.62190  1.0000 -0.1733387514
C   C29       1.0  0.42651  0.96229  0.64540  1.0000 -0.0796843722
C   C30       1.0  0.45150  0.89030  0.65162  1.0000 -0.0193897354
C   C31       1.0  0.57604  0.95656  0.62910  1.0000 -0.1105359729
C   C32       1.0  0.67443  0.09217  0.60360  1.0000 -0.1488808311
C   C33       1.0  0.34163  0.74477  0.67912  1.0000 0.324305729
C   C34       1.0  0.37394  0.67726  0.72746  1.0000 -0.0193897354
C   C35       1.0  0.27759  0.53821  0.72436  1.0000 -0.0989554293
C   C36       1.0  0.30001  0.46999  0.76829  1.0000 -0.181322015
C   C37       1.0  0.41822  0.53998  0.81801  1.0000 0.1577913397
C   C38       1.0  0.51354  0.67766  0.82400  1.0000 -0.181322015
C   C39       1.0  0.49049  0.74491  0.77816  1.0000 -0.1105359729
C   C40       1.0  0.35635  0.34105  0.88963  1.0000 0.1023004175
C   C41       1.0  0.55045  0.43555  0.93700  1.0000 -0.0504891137
C   C42       1.0  0.57032  0.53328  0.89510  1.0000 -0.0989554293
C   C43       1.0  0.01405  0.83895  0.32535  1.0000 0.5910558262
C   C44       1.0  0.08087  0.92073  0.24267  1.0000 -0.2921808186
C   C45       1.0  0.08511  0.85569  0.18480  1.0000 -0.2921808186
C   C46       1.0  0.15827  0.93673  0.10361  1.0000 0.5984499463
C   C47       1.0  0.26615  0.62765  0.46763  1.0000 0.0911398334
C   C48       1.0  0.05841  0.48099  0.42530  1.0000 -0.025709129
C   C49       1.0  0.11460  0.60100  0.39280  1.0000 -0.0870060987
C   C50       1.0  0.35180  0.83760  0.39822  1.0000 0.1577913397
C   C51       1.0  0.47583  0.90237  0.37810  1.0000 -0.1733387514
C   C52       1.0  0.57349  0.03771  0.35460  1.0000 -0.0796843722
C   C53       1.0  0.54850  0.10970  0.34838  1.0000 -0.0193897354
C   C54       1.0  0.42396  0.04344  0.37090  1.0000 -0.1105359729
C   C55       1.0  0.32557  0.90783  0.39640  1.0000 -0.1488808311
C   C56       1.0  0.65837  0.25523  0.32088  1.0000 0.324305729
C   C57       1.0  0.62606  0.32274  0.27254  1.0000 -0.0193897354
C   C58       1.0  0.72241  0.46179  0.27564  1.0000 -0.0989554293
C   C59       1.0  0.69999  0.53001  0.23171  1.0000 -0.181322015
C   C60       1.0  0.58178  0.46002  0.18199  1.0000 0.1577913397
C   C61       1.0  0.48646  0.32234  0.17600  1.0000 -0.181322015
C   C62       1.0  0.50951  0.25509  0.22184  1.0000 -0.1105359729
C   C63       1.0  0.64365  0.65895  0.11037  1.0000 0.1023004175
C   C64       1.0  0.44955  0.56445  0.06300  1.0000 -0.0504891137
C   C65       1.0  0.42968  0.46672  0.10490  1.0000 -0.0989554293
C   C66       1.0  0.98595  0.16105  0.67465  1.0000 0.5910558262
C   C67       1.0  0.91913  0.07927  0.75733  1.0000 -0.2921808186
C   C68       1.0  0.91489  0.14431  0.81520  1.0000 -0.2921808186
C   C69       1.0  0.84173  0.06327  0.89639  1.0000 0.5984499463
C   C70       1.0  0.37235  0.73385  0.96763  1.0000 0.0911398334
C   C71       1.0  0.51901  0.94159  0.92530  1.0000 -0.025709129
C   C72       1.0  0.39900  0.88540  0.89280  1.0000 -0.0870060987
C   C73       1.0  0.16240  0.64820  0.89822  1.0000 0.1577913397
C   C74       1.0  0.09763  0.52417  0.87810  1.0000 -0.1733387514
C   C75       1.0  0.96229  0.42651  0.85460  1.0000 -0.0796843722
C   C76       1.0  0.89030  0.45150  0.84838  1.0000 -0.0193897354
C   C77       1.0  0.95656  0.57604  0.87090  1.0000 -0.1105359729
C   C78       1.0  0.09217  0.67443  0.89640  1.0000 -0.1488808311
C   C79       1.0  0.74477  0.34163  0.82088  1.0000 0.324305729
C   C80       1.0  0.67726  0.37394  0.77254  1.0000 -0.0193897354
C   C81       1.0  0.53821  0.27759  0.77564  1.0000 -0.0989554293
C   C82       1.0  0.46999  0.30001  0.73171  1.0000 -0.181322015
C   C83       1.0  0.53998  0.41822  0.68199  1.0000 0.1577913397
C   C84       1.0  0.67766  0.51354  0.67600  1.0000 -0.181322015
C   C85       1.0  0.74491  0.49049  0.72184  1.0000 -0.1105359729
C   C86       1.0  0.34105  0.35635  0.61037  1.0000 0.1023004175
C   C87       1.0  0.43555  0.55045  0.56300  1.0000 -0.0504891137
C   C88       1.0  0.53328  0.57032  0.60490  1.0000 -0.0989554293
C   C89       1.0  0.83895  0.01405  0.17465  1.0000 0.5910558262
C   C90       1.0  0.92073  0.08087  0.25733  1.0000 -0.2921808186
C   C91       1.0  0.85569  0.08511  0.31520  1.0000 -0.2921808186
C   C92       1.0  0.93673  0.15827  0.39639  1.0000 0.5984499463
N   N1        1.0  0.49797  0.15443  0.02700  1.0000 -0.2921808186
N   N2        1.0  0.69575  0.24865  0.07993  1.0000 0.0083334948
N   N3        1.0  0.52696  0.55412  0.36424  1.0000 0.0083334948
N   N4        1.0  0.68512  0.58348  0.43383  1.0000 -0.2921808186
N   N5        1.0  0.84557  0.50203  0.52700  1.0000 -0.2921808186
N   N6        1.0  0.75135  0.30425  0.57993  1.0000 0.0083334948
N   N7        1.0  0.44588  0.47304  0.86424  1.0000 0.0083334948
N   N8        1.0  0.41652  0.31488  0.93383  1.0000 -0.2921808186
N   N9        1.0  0.15443  0.49797  0.47300  1.0000 -0.2921808186
N   N10       1.0  0.24865  0.69575  0.42007  1.0000 0.0083334948
N   N11       1.0  0.55412  0.52696  0.13576  1.0000 0.0083334948
N   N12       1.0  0.58348  0.68512  0.06617  1.0000 -0.2921808186
N   N13       1.0  0.50203  0.84557  0.97300  1.0000 -0.2921808186
N   N14       1.0  0.30425  0.75135  0.92007  1.0000 0.0083334948
N   N15       1.0  0.47304  0.44588  0.63576  1.0000 0.0083334948
N   N16       1.0  0.31488  0.41652  0.56617  1.0000 -0.2921808186
O   O1        1.0  0.13429  0.02629  0.86777  1.0000 -0.552343424
O   O2        1.0  0.25559  0.00189  0.84904  1.0000 -0.556168483
O   O3        1.0  0.94255  0.77793  0.59272  1.0000 -0.552343424
O   O4        1.0  0.11713  0.84257  0.55085  1.0000 -0.552343424
O   O5        1.0  0.32049  0.77531  0.16456  1.0000 -0.3780793092
O   O6        1.0  0.97371  0.86571  0.36777  1.0000 -0.552343424
O   O7        1.0  0.99811  0.74441  0.34904  1.0000 -0.556168483
O   O8        1.0  0.22207  0.05745  0.09272  1.0000 -0.552343424
O   O9        1.0  0.15743  0.88287  0.05085  1.0000 -0.556168483
O   O10       1.0  0.22469  0.67951  0.66456  1.0000 -0.3780793092
O   O11       1.0  0.02629  0.13429  0.63223  1.0000 -0.552343424
O   O12       1.0  0.00189  0.25559  0.65096  1.0000 -0.556168483
O   O13       1.0  0.77793  0.94255  0.90728  1.0000 -0.552343424
O   O14       1.0  0.84257  0.11713  0.94915  1.0000 -0.556168483
O   O15       1.0  0.77531  0.32049  0.33544  1.0000 -0.3780793092
O   O16       1.0  0.86571  0.97371  0.13223  1.0000 -0.552343424
O   O17       1.0  0.74441  0.99811  0.15096  1.0000 -0.556168483
O   O18       1.0  0.05745  0.22207  0.40728  1.0000 -0.552343424
O   O19       1.0  0.88287  0.15743  0.44915  1.0000 -0.556168483
O   O20       1.0  0.67951  0.22469  0.83544  1.0000 -0.3780793092
