# DDEC6 charges by PACMAN v1.1 (https://github.com/mtap-research/PACMAN-charge/)
data_2020[Tb][nan]3[ASR]5
_chemical_formula_sum              "Tb8 H48 C168 O48 F48"
_cell_length_a       15.8993
_cell_length_b       15.8993
_cell_length_c       27.5708
_cell_angle_alpha    90
_cell_angle_beta     90
_cell_angle_gamma    90

_symmetry_space_group_name_H-M    "P 1"
_symmetry_Int_Tables_number       1

loop_
  _symmetry_equiv_pos_as_xyz
  'x, y, z'

loop_
  _atom_site_type_symbol
  _atom_site_label
  _atom_site_symmetry_multiplicity
  _atom_site_fract_x
  _atom_site_fract_y
  _atom_site_fract_z
  _atom_site_occupancy
  _atom_site_charge
Tb  Tb1       1.0  0.00000  0.18286  0.00000  1.0000 2.0751310198
Tb  Tb2       1.0  0.00000  0.81714  0.50000  1.0000 2.0751310198
Tb  Tb3       1.0  0.81714  0.00000  0.25000  1.0000 2.0751310198
Tb  Tb4       1.0  0.18286  0.00000  0.75000  1.0000 2.0751310198
Tb  Tb5       1.0  0.87673  0.12327  0.12500  1.0000 2.0862778036
Tb  Tb6       1.0  0.12327  0.87673  0.62500  1.0000 2.0862778036
Tb  Tb7       1.0  0.87673  0.87673  0.37500  1.0000 2.0862778036
Tb  Tb8       1.0  0.12327  0.12327  0.87500  1.0000 2.0862778036
H   H1        1.0  0.56336  0.29585  0.98302  1.0000 0.1368481757
H   H2        1.0  0.56485  0.04795  0.01423  1.0000 0.1368481757
H   H3        1.0  0.31616  0.22478  0.14121  1.0000 0.1318156298
H   H4        1.0  0.30429  0.97731  0.10611  1.0000 0.1318156298
H   H5        1.0  0.43835  0.20583  0.16382  1.0000 0.1368481757
H   H6        1.0  0.43284  0.97865  0.10003  1.0000 0.1368481757
H   H7        1.0  0.43664  0.70415  0.48302  1.0000 0.1368481757
H   H8        1.0  0.43515  0.95205  0.51423  1.0000 0.1368481757
H   H9        1.0  0.68384  0.77522  0.64121  1.0000 0.1318156298
H   H10       1.0  0.69571  0.02269  0.60611  1.0000 0.1318156298
H   H11       1.0  0.56165  0.79417  0.66382  1.0000 0.1368481757
H   H12       1.0  0.56716  0.02135  0.60003  1.0000 0.1368481757
H   H13       1.0  0.70415  0.56336  0.23302  1.0000 0.1368481757
H   H14       1.0  0.95205  0.56485  0.26423  1.0000 0.1368481757
H   H15       1.0  0.77522  0.31616  0.39121  1.0000 0.1318156298
H   H16       1.0  0.02269  0.30429  0.35611  1.0000 0.1318156298
H   H17       1.0  0.79417  0.43835  0.41382  1.0000 0.1368481757
H   H18       1.0  0.02135  0.43284  0.35003  1.0000 0.1368481757
H   H19       1.0  0.29585  0.43664  0.73302  1.0000 0.1368481757
H   H20       1.0  0.04795  0.43515  0.76423  1.0000 0.1368481757
H   H21       1.0  0.22478  0.68384  0.89121  1.0000 0.1318156298
H   H22       1.0  0.97731  0.69571  0.85611  1.0000 0.1318156298
H   H23       1.0  0.20583  0.56165  0.91382  1.0000 0.1368481757
H   H24       1.0  0.97865  0.56716  0.85003  1.0000 0.1368481757
H   H25       1.0  0.43664  0.29585  0.01698  1.0000 0.1368481757
H   H26       1.0  0.43515  0.04795  0.98577  1.0000 0.1368481757
H   H27       1.0  0.68384  0.22478  0.85879  1.0000 0.1318156298
H   H28       1.0  0.69571  0.97731  0.89389  1.0000 0.1318156298
H   H29       1.0  0.56165  0.20583  0.83618  1.0000 0.1368481757
H   H30       1.0  0.56716  0.97865  0.89997  1.0000 0.1368481757
H   H31       1.0  0.56336  0.70415  0.51698  1.0000 0.1368481757
H   H32       1.0  0.56485  0.95205  0.48577  1.0000 0.1368481757
H   H33       1.0  0.31616  0.77522  0.35879  1.0000 0.1318156298
H   H34       1.0  0.30429  0.02269  0.39389  1.0000 0.1318156298
H   H35       1.0  0.43835  0.79417  0.33618  1.0000 0.1368481757
H   H36       1.0  0.43284  0.02135  0.39997  1.0000 0.1368481757
H   H37       1.0  0.29585  0.56336  0.76698  1.0000 0.1368481757
H   H38       1.0  0.04795  0.56485  0.73577  1.0000 0.1368481757
H   H39       1.0  0.22478  0.31616  0.60879  1.0000 0.1318156298
H   H40       1.0  0.97731  0.30429  0.64389  1.0000 0.1318156298
H   H41       1.0  0.20583  0.43835  0.58618  1.0000 0.1368481757
H   H42       1.0  0.97865  0.43284  0.64997  1.0000 0.1368481757
H   H43       1.0  0.70415  0.43664  0.26698  1.0000 0.1368481757
H   H44       1.0  0.95205  0.43515  0.23577  1.0000 0.1368481757
H   H45       1.0  0.77522  0.68384  0.10879  1.0000 0.1318156298
H   H46       1.0  0.02269  0.69571  0.14389  1.0000 0.1318156298
H   H47       1.0  0.79417  0.56165  0.08618  1.0000 0.1368481757
H   H48       1.0  0.02135  0.56716  0.14997  1.0000 0.1368481757
C   C1        1.0  0.81920  0.17950  0.00770  1.0000 0.6567203126
C   C2        1.0  0.72400  0.17690  0.00510  1.0000 -0.2311686853
C   C3        1.0  0.67650  0.24490  0.99530  1.0000 0.2734089962
C   C4        1.0  0.59140  0.24670  0.99160  1.0000 -0.2794027978
C   C5        1.0  0.54640  0.17130  0.00110  1.0000 0.1230424254
C   C6        1.0  0.59190  0.09920  0.00970  1.0000 -0.266229877
C   C7        1.0  0.67790  0.10440  0.01160  1.0000 0.2889503746
C   C8        1.0  0.05570  0.11480  0.11920  1.0000 0.6567203126
C   C9        1.0  0.15130  0.11150  0.11960  1.0000 -0.2452855834
C   C10       1.0  0.19980  0.17860  0.13030  1.0000 0.2977261452
C   C11       1.0  0.28610  0.17620  0.13400  1.0000 -0.2794027978
C   C12       1.0  0.32770  0.10040  0.12690  1.0000 0.1318156298
C   C13       1.0  0.27880  0.02840  0.11330  1.0000 -0.3026495592
C   C14       1.0  0.19130  0.03760  0.11120  1.0000 0.2977261452
C   C15       1.0  0.42150  0.09380  0.13040  1.0000 0.1318156298
C   C16       1.0  0.46580  0.15700  0.15410  1.0000 -0.3026495592
C   C17       1.0  0.55130  0.14730  0.16310  1.0000 0.331143847
C   C18       1.0  0.59240  0.07440  0.14850  1.0000 -0.2864601889
C   C19       1.0  0.54800  0.01120  0.12490  1.0000 0.3132473736
C   C20       1.0  0.46250  0.02090  0.11580  1.0000 -0.2794027978
C   C21       1.0  0.68570  0.06490  0.16050  1.0000 0.6866674481
C   C22       1.0  0.18080  0.82050  0.50770  1.0000 0.6567203126
C   C23       1.0  0.27600  0.82310  0.50510  1.0000 -0.2311686853
C   C24       1.0  0.32350  0.75510  0.49530  1.0000 0.2734089962
C   C25       1.0  0.40860  0.75330  0.49160  1.0000 -0.2794027978
C   C26       1.0  0.45360  0.82870  0.50110  1.0000 0.1230424254
C   C27       1.0  0.40810  0.90080  0.50970  1.0000 -0.266229877
C   C28       1.0  0.32210  0.89560  0.51160  1.0000 0.2889503746
C   C29       1.0  0.94430  0.88520  0.61920  1.0000 0.6567203126
C   C30       1.0  0.84870  0.88850  0.61960  1.0000 -0.2452855834
C   C31       1.0  0.80020  0.82140  0.63030  1.0000 0.2977261452
C   C32       1.0  0.71390  0.82380  0.63400  1.0000 -0.2794027978
C   C33       1.0  0.67230  0.89960  0.62690  1.0000 0.1318156298
C   C34       1.0  0.72120  0.97160  0.61330  1.0000 -0.3026495592
C   C35       1.0  0.80870  0.96240  0.61120  1.0000 0.2977261452
C   C36       1.0  0.57850  0.90620  0.63040  1.0000 0.1318156298
C   C37       1.0  0.53420  0.84300  0.65410  1.0000 -0.3026495592
C   C38       1.0  0.44870  0.85270  0.66310  1.0000 0.331143847
C   C39       1.0  0.40760  0.92560  0.64850  1.0000 -0.2864601889
C   C40       1.0  0.45200  0.98880  0.62490  1.0000 0.3132473736
C   C41       1.0  0.53750  0.97910  0.61580  1.0000 -0.2794027978
C   C42       1.0  0.31430  0.93510  0.66050  1.0000 0.6866674481
C   C43       1.0  0.82050  0.81920  0.25770  1.0000 0.6567203126
C   C44       1.0  0.82310  0.72400  0.25510  1.0000 -0.2311686853
C   C45       1.0  0.75510  0.67650  0.24530  1.0000 0.2734089962
C   C46       1.0  0.75330  0.59140  0.24160  1.0000 -0.2794027978
C   C47       1.0  0.82870  0.54640  0.25110  1.0000 0.1230424254
C   C48       1.0  0.90080  0.59190  0.25970  1.0000 -0.266229877
C   C49       1.0  0.89560  0.67790  0.26160  1.0000 0.2889503746
C   C50       1.0  0.88520  0.05570  0.36920  1.0000 0.6567203126
C   C51       1.0  0.88850  0.15130  0.36960  1.0000 -0.2452855834
C   C52       1.0  0.82140  0.19980  0.38030  1.0000 0.2977261452
C   C53       1.0  0.82380  0.28610  0.38400  1.0000 -0.2794027978
C   C54       1.0  0.89960  0.32770  0.37690  1.0000 0.1318156298
C   C55       1.0  0.97160  0.27880  0.36330  1.0000 -0.3026495592
C   C56       1.0  0.96240  0.19130  0.36120  1.0000 0.2977261452
C   C57       1.0  0.90620  0.42150  0.38040  1.0000 0.1318156298
C   C58       1.0  0.84300  0.46580  0.40410  1.0000 -0.3026495592
C   C59       1.0  0.85270  0.55130  0.41310  1.0000 0.331143847
C   C60       1.0  0.92560  0.59240  0.39850  1.0000 -0.2864601889
C   C61       1.0  0.98880  0.54800  0.37490  1.0000 0.3132473736
C   C62       1.0  0.97910  0.46250  0.36580  1.0000 -0.2794027978
C   C63       1.0  0.93510  0.68570  0.41050  1.0000 0.6866674481
C   C64       1.0  0.17950  0.18080  0.75770  1.0000 0.6567203126
C   C65       1.0  0.17690  0.27600  0.75510  1.0000 -0.2311686853
C   C66       1.0  0.24490  0.32350  0.74530  1.0000 0.2734089962
C   C67       1.0  0.24670  0.40860  0.74160  1.0000 -0.2794027978
C   C68       1.0  0.17130  0.45360  0.75110  1.0000 0.1230424254
C   C69       1.0  0.09920  0.40810  0.75970  1.0000 -0.266229877
C   C70       1.0  0.10440  0.32210  0.76160  1.0000 0.2889503746
C   C71       1.0  0.11480  0.94430  0.86920  1.0000 0.6567203126
C   C72       1.0  0.11150  0.84870  0.86960  1.0000 -0.2452855834
C   C73       1.0  0.17860  0.80020  0.88030  1.0000 0.2977261452
C   C74       1.0  0.17620  0.71390  0.88400  1.0000 -0.2794027978
C   C75       1.0  0.10040  0.67230  0.87690  1.0000 0.1318156298
C   C76       1.0  0.02840  0.72120  0.86330  1.0000 -0.3026495592
C   C77       1.0  0.03760  0.80870  0.86120  1.0000 0.2977261452
C   C78       1.0  0.09380  0.57850  0.88040  1.0000 0.1318156298
C   C79       1.0  0.15700  0.53420  0.90410  1.0000 -0.3026495592
C   C80       1.0  0.14730  0.44870  0.91310  1.0000 0.331143847
C   C81       1.0  0.07440  0.40760  0.89850  1.0000 -0.2864601889
C   C82       1.0  0.01120  0.45200  0.87490  1.0000 0.3132473736
C   C83       1.0  0.02090  0.53750  0.86580  1.0000 -0.2794027978
C   C84       1.0  0.06490  0.31430  0.91050  1.0000 0.6866674481
C   C85       1.0  0.18080  0.17950  0.99230  1.0000 0.6567203126
C   C86       1.0  0.27600  0.17690  0.99490  1.0000 -0.2311686853
C   C87       1.0  0.32350  0.24490  0.00470  1.0000 0.2734089962
C   C88       1.0  0.40860  0.24670  0.00840  1.0000 -0.2794027978
C   C89       1.0  0.45360  0.17130  0.99890  1.0000 0.1230424254
C   C90       1.0  0.40810  0.09920  0.99030  1.0000 -0.266229877
C   C91       1.0  0.32210  0.10440  0.98840  1.0000 0.2889503746
C   C92       1.0  0.94430  0.11480  0.88080  1.0000 0.6567203126
C   C93       1.0  0.84870  0.11150  0.88040  1.0000 -0.2452855834
C   C94       1.0  0.80020  0.17860  0.86970  1.0000 0.2977261452
C   C95       1.0  0.71390  0.17620  0.86600  1.0000 -0.2794027978
C   C96       1.0  0.67230  0.10040  0.87310  1.0000 0.1318156298
C   C97       1.0  0.72120  0.02840  0.88670  1.0000 -0.3026495592
C   C98       1.0  0.80870  0.03760  0.88880  1.0000 0.2977261452
C   C99       1.0  0.57850  0.09380  0.86960  1.0000 0.1318156298
C   C100      1.0  0.53420  0.15700  0.84590  1.0000 -0.3026495592
C   C101      1.0  0.44870  0.14730  0.83690  1.0000 0.331143847
C   C102      1.0  0.40760  0.07440  0.85150  1.0000 -0.2864601889
C   C103      1.0  0.45200  0.01120  0.87510  1.0000 0.3132473736
C   C104      1.0  0.53750  0.02090  0.88420  1.0000 -0.2794027978
C   C105      1.0  0.31430  0.06490  0.83950  1.0000 0.6866674481
C   C106      1.0  0.81920  0.82050  0.49230  1.0000 0.6567203126
C   C107      1.0  0.72400  0.82310  0.49490  1.0000 -0.2311686853
C   C108      1.0  0.67650  0.75510  0.50470  1.0000 0.2734089962
C   C109      1.0  0.59140  0.75330  0.50840  1.0000 -0.2794027978
C   C110      1.0  0.54640  0.82870  0.49890  1.0000 0.1230424254
C   C111      1.0  0.59190  0.90080  0.49030  1.0000 -0.266229877
C   C112      1.0  0.67790  0.89560  0.48840  1.0000 0.2889503746
C   C113      1.0  0.05570  0.88520  0.38080  1.0000 0.6567203126
C   C114      1.0  0.15130  0.88850  0.38040  1.0000 -0.2452855834
C   C115      1.0  0.19980  0.82140  0.36970  1.0000 0.2977261452
C   C116      1.0  0.28610  0.82380  0.36600  1.0000 -0.2794027978
C   C117      1.0  0.32770  0.89960  0.37310  1.0000 0.1318156298
C   C118      1.0  0.27880  0.97160  0.38670  1.0000 -0.3026495592
C   C119      1.0  0.19130  0.96240  0.38880  1.0000 0.2977261452
C   C120      1.0  0.42150  0.90620  0.36960  1.0000 0.1318156298
C   C121      1.0  0.46580  0.84300  0.34590  1.0000 -0.3026495592
C   C122      1.0  0.55130  0.85270  0.33690  1.0000 0.331143847
C   C123      1.0  0.59240  0.92560  0.35150  1.0000 -0.2864601889
C   C124      1.0  0.54800  0.98880  0.37510  1.0000 0.3132473736
C   C125      1.0  0.46250  0.97910  0.38420  1.0000 -0.2794027978
C   C126      1.0  0.68570  0.93510  0.33950  1.0000 0.6866674481
C   C127      1.0  0.17950  0.81920  0.74230  1.0000 0.6567203126
C   C128      1.0  0.17690  0.72400  0.74490  1.0000 -0.2311686853
C   C129      1.0  0.24490  0.67650  0.75470  1.0000 0.2734089962
C   C130      1.0  0.24670  0.59140  0.75840  1.0000 -0.2794027978
C   C131      1.0  0.17130  0.54640  0.74890  1.0000 0.1230424254
C   C132      1.0  0.09920  0.59190  0.74030  1.0000 -0.266229877
C   C133      1.0  0.10440  0.67790  0.73840  1.0000 0.2889503746
C   C134      1.0  0.11480  0.05570  0.63080  1.0000 0.6567203126
C   C135      1.0  0.11150  0.15130  0.63040  1.0000 -0.2452855834
C   C136      1.0  0.17860  0.19980  0.61970  1.0000 0.2977261452
C   C137      1.0  0.17620  0.28610  0.61600  1.0000 -0.2794027978
C   C138      1.0  0.10040  0.32770  0.62310  1.0000 0.1318156298
C   C139      1.0  0.02840  0.27880  0.63670  1.0000 -0.3026495592
C   C140      1.0  0.03760  0.19130  0.63880  1.0000 0.2977261452
C   C141      1.0  0.09380  0.42150  0.61960  1.0000 0.1318156298
C   C142      1.0  0.15700  0.46580  0.59590  1.0000 -0.3026495592
C   C143      1.0  0.14730  0.55130  0.58690  1.0000 0.331143847
C   C144      1.0  0.07440  0.59240  0.60150  1.0000 -0.2864601889
C   C145      1.0  0.01120  0.54800  0.62510  1.0000 0.3132473736
C   C146      1.0  0.02090  0.46250  0.63420  1.0000 -0.2794027978
C   C147      1.0  0.06490  0.68570  0.58950  1.0000 0.6866674481
C   C148      1.0  0.82050  0.18080  0.24230  1.0000 0.6567203126
C   C149      1.0  0.82310  0.27600  0.24490  1.0000 -0.2311686853
C   C150      1.0  0.75510  0.32350  0.25470  1.0000 0.2734089962
C   C151      1.0  0.75330  0.40860  0.25840  1.0000 -0.2794027978
C   C152      1.0  0.82870  0.45360  0.24890  1.0000 0.1230424254
C   C153      1.0  0.90080  0.40810  0.24030  1.0000 -0.266229877
C   C154      1.0  0.89560  0.32210  0.23840  1.0000 0.2889503746
C   C155      1.0  0.88520  0.94430  0.13080  1.0000 0.6567203126
C   C156      1.0  0.88850  0.84870  0.13040  1.0000 -0.2452855834
C   C157      1.0  0.82140  0.80020  0.11970  1.0000 0.2977261452
C   C158      1.0  0.82380  0.71390  0.11600  1.0000 -0.2794027978
C   C159      1.0  0.89960  0.67230  0.12310  1.0000 0.1318156298
C   C160      1.0  0.97160  0.72120  0.13670  1.0000 -0.3026495592
C   C161      1.0  0.96240  0.80870  0.13880  1.0000 0.2977261452
C   C162      1.0  0.90620  0.57850  0.11960  1.0000 0.1318156298
C   C163      1.0  0.84300  0.53420  0.09590  1.0000 -0.3026495592
C   C164      1.0  0.85270  0.44870  0.08690  1.0000 0.331143847
C   C165      1.0  0.92560  0.40760  0.10150  1.0000 -0.2864601889
C   C166      1.0  0.98880  0.45200  0.12510  1.0000 0.3132473736
C   C167      1.0  0.97910  0.53750  0.13420  1.0000 -0.2794027978
C   C168      1.0  0.93510  0.31430  0.08950  1.0000 0.6866674481
O   O1        1.0  0.85790  0.14130  0.04198  1.0000 -0.7573374452
O   O2        1.0  0.85690  0.21850  0.97607  1.0000 -0.5501819195
O   O3        1.0  0.01800  0.13230  0.08141  1.0000 -0.6988841088
O   O4        1.0  0.01710  0.10020  0.15773  1.0000 -0.5748094187
O   O5        1.0  0.73770  0.09060  0.12890  1.0000 -0.684446329
O   O6        1.0  0.70370  0.03190  0.19945  1.0000 -0.5959854143
O   O7        1.0  0.14210  0.85870  0.54198  1.0000 -0.7573374452
O   O8        1.0  0.14310  0.78150  0.47607  1.0000 -0.5501819195
O   O9        1.0  0.98200  0.86770  0.58141  1.0000 -0.6988841088
O   O10       1.0  0.98290  0.89980  0.65773  1.0000 -0.5748094187
O   O11       1.0  0.26230  0.90940  0.62890  1.0000 -0.684446329
O   O12       1.0  0.29630  0.96810  0.69945  1.0000 -0.5959854143
O   O13       1.0  0.85870  0.85790  0.29198  1.0000 -0.7573374452
O   O14       1.0  0.78150  0.85690  0.22607  1.0000 -0.5501819195
O   O15       1.0  0.86770  0.01800  0.33141  1.0000 -0.6988841088
O   O16       1.0  0.89980  0.01710  0.40773  1.0000 -0.5748094187
O   O17       1.0  0.90940  0.73770  0.37890  1.0000 -0.684446329
O   O18       1.0  0.96810  0.70370  0.44945  1.0000 -0.5959854143
O   O19       1.0  0.14130  0.14210  0.79198  1.0000 -0.7573374452
O   O20       1.0  0.21850  0.14310  0.72607  1.0000 -0.5501819195
O   O21       1.0  0.13230  0.98200  0.83141  1.0000 -0.6988841088
O   O22       1.0  0.10020  0.98290  0.90773  1.0000 -0.5748094187
O   O23       1.0  0.09060  0.26230  0.87890  1.0000 -0.684446329
O   O24       1.0  0.03190  0.29630  0.94945  1.0000 -0.5959854143
O   O25       1.0  0.14210  0.14130  0.95802  1.0000 -0.7573374452
O   O26       1.0  0.14310  0.21850  0.02393  1.0000 -0.5501819195
O   O27       1.0  0.98200  0.13230  0.91859  1.0000 -0.6988841088
O   O28       1.0  0.98290  0.10020  0.84227  1.0000 -0.5748094187
O   O29       1.0  0.26230  0.09060  0.87110  1.0000 -0.684446329
O   O30       1.0  0.29630  0.03190  0.80055  1.0000 -0.5959854143
O   O31       1.0  0.85790  0.85870  0.45802  1.0000 -0.7573374452
O   O32       1.0  0.85690  0.78150  0.52393  1.0000 -0.5501819195
O   O33       1.0  0.01800  0.86770  0.41859  1.0000 -0.6988841088
O   O34       1.0  0.01710  0.89980  0.34227  1.0000 -0.5748094187
O   O35       1.0  0.73770  0.90940  0.37110  1.0000 -0.684446329
O   O36       1.0  0.70370  0.96810  0.30055  1.0000 -0.5959854143
O   O37       1.0  0.14130  0.85790  0.70802  1.0000 -0.7573374452
O   O38       1.0  0.21850  0.85690  0.77393  1.0000 -0.5501819195
O   O39       1.0  0.13230  0.01800  0.66859  1.0000 -0.6988841088
O   O40       1.0  0.10020  0.01710  0.59227  1.0000 -0.5748094187
O   O41       1.0  0.09060  0.73770  0.62110  1.0000 -0.684446329
O   O42       1.0  0.03190  0.70370  0.55055  1.0000 -0.5959854143
O   O43       1.0  0.85870  0.14210  0.20802  1.0000 -0.7573374452
O   O44       1.0  0.78150  0.14310  0.27393  1.0000 -0.5501819195
O   O45       1.0  0.86770  0.98200  0.16859  1.0000 -0.6988841088
O   O46       1.0  0.89980  0.98290  0.09227  1.0000 -0.5748094187
O   O47       1.0  0.90940  0.26230  0.12110  1.0000 -0.684446329
O   O48       1.0  0.96810  0.29630  0.05055  1.0000 -0.5959854143
F   F1        1.0  0.71710  0.31990  0.98760  1.0000 -0.1390082629
F   F2        1.0  0.72100  0.03180  0.02000  1.0000 -0.1190190443
F   F3        1.0  0.14770  0.96930  0.10080  1.0000 -0.1281346257
F   F4        1.0  0.16090  0.25240  0.13670  1.0000 -0.1190190443
F   F5        1.0  0.59060  0.95220  0.10080  1.0000 -0.1390082629
F   F6        1.0  0.59040  0.18660  0.19240  1.0000 -0.1022272918
F   F7        1.0  0.28290  0.68010  0.48760  1.0000 -0.1390082629
F   F8        1.0  0.27900  0.96820  0.52000  1.0000 -0.1190190443
F   F9        1.0  0.85230  0.03070  0.60080  1.0000 -0.1281346257
F   F10       1.0  0.83910  0.74760  0.63670  1.0000 -0.1190190443
F   F11       1.0  0.40940  0.04780  0.60080  1.0000 -0.1390082629
F   F12       1.0  0.40960  0.81340  0.69240  1.0000 -0.1022272918
F   F13       1.0  0.68010  0.71710  0.23760  1.0000 -0.1390082629
F   F14       1.0  0.96820  0.72100  0.27000  1.0000 -0.1190190443
F   F15       1.0  0.03070  0.14770  0.35080  1.0000 -0.1281346257
F   F16       1.0  0.74760  0.16090  0.38670  1.0000 -0.1190190443
F   F17       1.0  0.04780  0.59060  0.35080  1.0000 -0.1390082629
F   F18       1.0  0.81340  0.59040  0.44240  1.0000 -0.1022272918
F   F19       1.0  0.31990  0.28290  0.73760  1.0000 -0.1390082629
F   F20       1.0  0.03180  0.27900  0.77000  1.0000 -0.1190190443
F   F21       1.0  0.96930  0.85230  0.85080  1.0000 -0.1281346257
F   F22       1.0  0.25240  0.83910  0.88670  1.0000 -0.1190190443
F   F23       1.0  0.95220  0.40940  0.85080  1.0000 -0.1390082629
F   F24       1.0  0.18660  0.40960  0.94240  1.0000 -0.1022272918
F   F25       1.0  0.28290  0.31990  0.01240  1.0000 -0.1390082629
F   F26       1.0  0.27900  0.03180  0.98000  1.0000 -0.1190190443
F   F27       1.0  0.85230  0.96930  0.89920  1.0000 -0.1281346257
F   F28       1.0  0.83910  0.25240  0.86330  1.0000 -0.1190190443
F   F29       1.0  0.40940  0.95220  0.89920  1.0000 -0.1390082629
F   F30       1.0  0.40960  0.18660  0.80760  1.0000 -0.1022272918
F   F31       1.0  0.71710  0.68010  0.51240  1.0000 -0.1390082629
F   F32       1.0  0.72100  0.96820  0.48000  1.0000 -0.1190190443
F   F33       1.0  0.14770  0.03070  0.39920  1.0000 -0.1281346257
F   F34       1.0  0.16090  0.74760  0.36330  1.0000 -0.1190190443
F   F35       1.0  0.59060  0.04780  0.39920  1.0000 -0.1390082629
F   F36       1.0  0.59040  0.81340  0.30760  1.0000 -0.1022272918
F   F37       1.0  0.31990  0.71710  0.76240  1.0000 -0.1390082629
F   F38       1.0  0.03180  0.72100  0.73000  1.0000 -0.1190190443
F   F39       1.0  0.96930  0.14770  0.64920  1.0000 -0.1281346257
F   F40       1.0  0.25240  0.16090  0.61330  1.0000 -0.1190190443
F   F41       1.0  0.95220  0.59060  0.64920  1.0000 -0.1390082629
F   F42       1.0  0.18660  0.59040  0.55760  1.0000 -0.1022272918
F   F43       1.0  0.68010  0.28290  0.26240  1.0000 -0.1390082629
F   F44       1.0  0.96820  0.27900  0.23000  1.0000 -0.1190190443
F   F45       1.0  0.03070  0.85230  0.14920  1.0000 -0.1281346257
F   F46       1.0  0.74760  0.83910  0.11330  1.0000 -0.1190190443
F   F47       1.0  0.04780  0.40940  0.14920  1.0000 -0.1390082629
F   F48       1.0  0.81340  0.40960  0.05760  1.0000 -0.1022272918
