# DDEC6 charges by PACMAN v1.1 (https://github.com/mtap-research/PACMAN-charge/)
data_2020[La][pcu]3[ASR]1
_chemical_formula_sum              "La2 H12 C36 O18"
_cell_length_a       12.489
_cell_length_b       12.747
_cell_length_c       13.791
_cell_angle_alpha    108.288
_cell_angle_beta     104.348
_cell_angle_gamma    104.863

_symmetry_space_group_name_H-M    "P 1"
_symmetry_Int_Tables_number       1

loop_
  _symmetry_equiv_pos_as_xyz
  'x, y, z'

loop_
  _atom_site_type_symbol
  _atom_site_label
  _atom_site_symmetry_multiplicity
  _atom_site_fract_x
  _atom_site_fract_y
  _atom_site_fract_z
  _atom_site_occupancy
  _atom_site_charge
La  La1       1.0  0.68487  0.54794  0.54554  1.0000 1.8715081486
La  La2       1.0  0.31513  0.45206  0.45446  1.0000 1.8715081486
H   H1        1.0  0.27630  0.85570  0.44070  1.0000 0.1498703334
H   H2        1.0  0.35040  0.72790  0.49100  1.0000 0.131135702
H   H3        1.0  0.92960  0.26490  0.89710  1.0000 0.1402658049
H   H4        1.0  0.01630  0.26220  0.06460  1.0000 0.131135702
H   H5        1.0  0.26430  0.42980  0.94320  1.0000 0.1402658049
H   H6        1.0  0.29110  0.44350  0.11830  1.0000 0.131135702
H   H7        1.0  0.72370  0.14430  0.55930  1.0000 0.1498703334
H   H8        1.0  0.64960  0.27210  0.50900  1.0000 0.131135702
H   H9        1.0  0.07040  0.73510  0.10290  1.0000 0.1402658049
H   H10       1.0  0.98370  0.73780  0.93540  1.0000 0.131135702
H   H11       1.0  0.73570  0.57020  0.05680  1.0000 0.1402658049
H   H12       1.0  0.70890  0.55650  0.88170  1.0000 0.131135702
C   C1        1.0  0.42680  0.26570  0.44010  1.0000 0.6320550117
C   C2        1.0  0.47250  0.17640  0.46360  1.0000 -0.1105461967
C   C3        1.0  0.39470  0.06900  0.44940  1.0000 0.2510104227
C   C4        1.0  0.43810  0.98610  0.47930  1.0000 0.0086660663
C   C5        1.0  0.35970  0.87540  0.46840  1.0000 -0.0813940455
C   C6        1.0  0.40370  0.79990  0.49710  1.0000 -0.0721459378
C   C7        1.0  0.86330  0.56320  0.73880  1.0000 0.5972074541
C   C8        1.0  0.92250  0.55850  0.84500  1.0000 -0.0988634516
C   C9        1.0  0.91780  0.45100  0.85060  1.0000 0.2558079633
C   C10       1.0  0.97260  0.44760  0.95410  1.0000 0.0086660663
C   C11       1.0  0.96810  0.33680  0.96090  1.0000 -0.0988634516
C   C12       1.0  0.01960  0.33560  0.05980  1.0000 -0.0867619504
C   C13       1.0  0.51560  0.49480  0.71070  1.0000 0.6522835764
C   C14       1.0  0.52720  0.50070  0.82410  1.0000 -0.0988634516
C   C15       1.0  0.42920  0.47330  0.85330  1.0000 0.2510104227
C   C16       1.0  0.44270  0.48110  0.96140  1.0000 0.0086660663
C   C17       1.0  0.34210  0.45390  0.99400  1.0000 -0.0988634516
C   C18       1.0  0.35840  0.46260  0.09780  1.0000 -0.0813940455
C   C19       1.0  0.57320  0.73430  0.55990  1.0000 0.6320550117
C   C20       1.0  0.52750  0.82360  0.53640  1.0000 -0.1105461967
C   C21       1.0  0.60530  0.93100  0.55060  1.0000 0.2510104227
C   C22       1.0  0.56190  0.01390  0.52070  1.0000 0.0086660663
C   C23       1.0  0.64030  0.12460  0.53160  1.0000 -0.0813940455
C   C24       1.0  0.59630  0.20010  0.50290  1.0000 -0.0721459378
C   C25       1.0  0.13670  0.43680  0.26120  1.0000 0.5972074541
C   C26       1.0  0.07750  0.44150  0.15500  1.0000 -0.0988634516
C   C27       1.0  0.08220  0.54900  0.14940  1.0000 0.2558079633
C   C28       1.0  0.02740  0.55240  0.04590  1.0000 0.0086660663
C   C29       1.0  0.03190  0.66320  0.03910  1.0000 -0.0988634516
C   C30       1.0  0.98040  0.66440  0.94020  1.0000 -0.0867619504
C   C31       1.0  0.48440  0.50520  0.28930  1.0000 0.6522835764
C   C32       1.0  0.47280  0.49930  0.17590  1.0000 -0.0988634516
C   C33       1.0  0.57080  0.52670  0.14670  1.0000 0.2510104227
C   C34       1.0  0.55730  0.51890  0.03860  1.0000 0.0086660663
C   C35       1.0  0.65790  0.54610  0.00600  1.0000 -0.0988634516
C   C36       1.0  0.64160  0.53740  0.90220  1.0000 -0.0813940455
O   O1        1.0  0.49800  0.36850  0.45950  1.0000 -0.68102065
O   O2        1.0  0.31570  0.24140  0.40310  1.0000 -0.5019404021
O   O3        1.0  0.27520  0.03720  0.40940  1.0000 -0.3674358007
O   O4        1.0  0.81480  0.46590  0.65300  1.0000 -0.5371189442
O   O5        1.0  0.85950  0.65870  0.73400  1.0000 -0.5294582572
O   O6        1.0  0.86440  0.34710  0.76240  1.0000 -0.3866370049
O   O7        1.0  0.60800  0.52720  0.69170  1.0000 -0.5684614804
O   O8        1.0  0.41000  0.45620  0.64160  1.0000 -0.5967544642
O   O9        1.0  0.31740  0.43600  0.78210  1.0000 -0.3674358007
O   O10       1.0  0.50200  0.63150  0.54050  1.0000 -0.68102065
O   O11       1.0  0.68430  0.75860  0.59690  1.0000 -0.5059288469
O   O12       1.0  0.72480  0.96280  0.59060  1.0000 -0.3632994023
O   O13       1.0  0.18520  0.53410  0.34700  1.0000 -0.5294582572
O   O14       1.0  0.14050  0.34130  0.26600  1.0000 -0.5220794407
O   O15       1.0  0.13560  0.65290  0.23760  1.0000 -0.3866370049
O   O16       1.0  0.39200  0.47280  0.30830  1.0000 -0.5684614804
O   O17       1.0  0.59000  0.54380  0.35840  1.0000 -0.5967544642
O   O18       1.0  0.68260  0.56400  0.21790  1.0000 -0.3760861781
