# DDEC6 charges by PACMAN v1.1 (https://github.com/mtap-research/PACMAN-charge/)
data_2020[Ni][nan]3[ASR]1
_chemical_formula_sum              "Ni18 H60 C96 O66"
_cell_length_a       18.7062
_cell_length_b       18.7062
_cell_length_c       18.7062
_cell_angle_alpha    93.4132
_cell_angle_beta     93.4132
_cell_angle_gamma    93.4132

_symmetry_space_group_name_H-M    "P 1"
_symmetry_Int_Tables_number       1

loop_
  _symmetry_equiv_pos_as_xyz
  'x, y, z'

loop_
  _atom_site_type_symbol
  _atom_site_label
  _atom_site_symmetry_multiplicity
  _atom_site_fract_x
  _atom_site_fract_y
  _atom_site_fract_z
  _atom_site_occupancy
  _atom_site_charge
Ni  Ni1       1.0  0.66240  0.43088  0.74772  1.0000 0.9431119277
Ni  Ni2       1.0  0.68931  0.39456  0.92825  1.0000 0.6813719684
Ni  Ni3       1.0  0.77852  0.46043  0.90223  1.0000 0.5408658498
Ni  Ni4       1.0  0.43088  0.74772  0.66240  1.0000 0.9431119277
Ni  Ni5       1.0  0.39456  0.92825  0.68931  1.0000 0.6813719684
Ni  Ni6       1.0  0.46043  0.90223  0.77852  1.0000 0.5408658498
Ni  Ni7       1.0  0.74772  0.66240  0.43088  1.0000 0.9431119277
Ni  Ni8       1.0  0.92825  0.68931  0.39456  1.0000 0.6813719684
Ni  Ni9       1.0  0.90223  0.77852  0.46043  1.0000 0.5408658498
Ni  Ni10      1.0  0.33760  0.56912  0.25228  1.0000 0.9458002164
Ni  Ni11      1.0  0.31069  0.60544  0.07175  1.0000 0.6813719684
Ni  Ni12      1.0  0.22148  0.53957  0.09777  1.0000 0.5408658498
Ni  Ni13      1.0  0.56912  0.25228  0.33760  1.0000 0.9431119277
Ni  Ni14      1.0  0.60544  0.07175  0.31069  1.0000 0.6813719684
Ni  Ni15      1.0  0.53957  0.09777  0.22148  1.0000 0.5408658498
Ni  Ni16      1.0  0.25228  0.33760  0.56912  1.0000 0.9431119277
Ni  Ni17      1.0  0.07175  0.31069  0.60544  1.0000 0.6813719684
Ni  Ni18      1.0  0.09777  0.22148  0.53957  1.0000 0.5408658498
H   H1        1.0  0.76120  0.41440  0.83490  1.0000 0.2417839729
H   H2        1.0  0.72730  0.34800  0.82060  1.0000 0.3343557133
H   H3        1.0  0.56600  0.62430  0.79770  1.0000 0.131178142
H   H4        1.0  0.56180  0.79470  0.94020  1.0000 0.131178142
H   H5        1.0  0.67320  0.62720  0.99150  1.0000 0.131178142
H   H6        1.0  0.51540  0.69430  0.06150  1.0000 0.131178142
H   H7        1.0  0.55890  0.66200  0.27200  1.0000 0.1231637313
H   H8        1.0  0.71410  0.75370  0.15740  1.0000 0.131178142
H   H9        1.0  0.78350  0.43610  0.01770  1.0000 0.2821685388
H   H10       1.0  0.80660  0.37830  0.97380  1.0000 0.2563811495
H   H11       1.0  0.41440  0.83490  0.76120  1.0000 0.2417839729
H   H12       1.0  0.34800  0.82060  0.72730  1.0000 0.3351339414
H   H13       1.0  0.62430  0.79770  0.56600  1.0000 0.131178142
H   H14       1.0  0.79470  0.94020  0.56180  1.0000 0.131178142
H   H15       1.0  0.62720  0.99150  0.67320  1.0000 0.131178142
H   H16       1.0  0.69430  0.06150  0.51540  1.0000 0.131178142
H   H17       1.0  0.66200  0.27200  0.55890  1.0000 0.1231637313
H   H18       1.0  0.75370  0.15740  0.71410  1.0000 0.131178142
H   H19       1.0  0.43610  0.01770  0.78350  1.0000 0.2821685388
H   H20       1.0  0.37830  0.97380  0.80660  1.0000 0.2563811495
H   H21       1.0  0.83490  0.76120  0.41440  1.0000 0.2417839729
H   H22       1.0  0.82060  0.72730  0.34800  1.0000 0.3351339414
H   H23       1.0  0.79770  0.56600  0.62430  1.0000 0.131178142
H   H24       1.0  0.94020  0.56180  0.79470  1.0000 0.131178142
H   H25       1.0  0.99150  0.67320  0.62720  1.0000 0.131178142
H   H26       1.0  0.06150  0.51540  0.69430  1.0000 0.131178142
H   H27       1.0  0.27200  0.55890  0.66200  1.0000 0.1231637313
H   H28       1.0  0.15740  0.71410  0.75370  1.0000 0.131178142
H   H29       1.0  0.01770  0.78350  0.43610  1.0000 0.2821685388
H   H30       1.0  0.97380  0.80660  0.37830  1.0000 0.2563811495
H   H31       1.0  0.23880  0.58560  0.16510  1.0000 0.2417839729
H   H32       1.0  0.27270  0.65200  0.17940  1.0000 0.3351339414
H   H33       1.0  0.43400  0.37570  0.20230  1.0000 0.131178142
H   H34       1.0  0.43820  0.20530  0.05980  1.0000 0.131178142
H   H35       1.0  0.32680  0.37280  0.00850  1.0000 0.131178142
H   H36       1.0  0.48460  0.30570  0.93850  1.0000 0.131178142
H   H37       1.0  0.44110  0.33800  0.72800  1.0000 0.1231637313
H   H38       1.0  0.28590  0.24630  0.84260  1.0000 0.131178142
H   H39       1.0  0.21650  0.56390  0.98230  1.0000 0.2821685388
H   H40       1.0  0.19340  0.62170  0.02620  1.0000 0.2546064569
H   H41       1.0  0.58560  0.16510  0.23880  1.0000 0.2417839729
H   H42       1.0  0.65200  0.17940  0.27270  1.0000 0.3343557133
H   H43       1.0  0.37570  0.20230  0.43400  1.0000 0.131178142
H   H44       1.0  0.20530  0.05980  0.43820  1.0000 0.131178142
H   H45       1.0  0.37280  0.00850  0.32680  1.0000 0.131178142
H   H46       1.0  0.30570  0.93850  0.48460  1.0000 0.131178142
H   H47       1.0  0.33800  0.72800  0.44110  1.0000 0.1231637313
H   H48       1.0  0.24630  0.84260  0.28590  1.0000 0.131178142
H   H49       1.0  0.56390  0.98230  0.21650  1.0000 0.2821685388
H   H50       1.0  0.62170  0.02620  0.19340  1.0000 0.2563811495
H   H51       1.0  0.16510  0.23880  0.58560  1.0000 0.2417839729
H   H52       1.0  0.17940  0.27270  0.65200  1.0000 0.3343557133
H   H53       1.0  0.20230  0.43400  0.37570  1.0000 0.131178142
H   H54       1.0  0.05980  0.43820  0.20530  1.0000 0.131178142
H   H55       1.0  0.00850  0.32680  0.37280  1.0000 0.131178142
H   H56       1.0  0.93850  0.48460  0.30570  1.0000 0.131178142
H   H57       1.0  0.72800  0.44110  0.33800  1.0000 0.1231637313
H   H58       1.0  0.84260  0.28590  0.24630  1.0000 0.131178142
H   H59       1.0  0.98230  0.21650  0.56390  1.0000 0.2821685388
H   H60       1.0  0.02620  0.19340  0.62170  1.0000 0.2563811495
C   C1        1.0  0.65000  0.54100  0.86900  1.0000 0.5610133781
C   C2        1.0  0.62340  0.61410  0.89210  1.0000 -0.010027269
C   C3        1.0  0.57920  0.64750  0.84350  1.0000 -0.1177433815
C   C4        1.0  0.55490  0.71320  0.86090  1.0000 -0.010027269
C   C5        1.0  0.57680  0.74830  0.92750  1.0000 -0.2076656358
C   C6        1.0  0.62070  0.71400  0.97430  1.0000 0.2042024746
C   C7        1.0  0.64320  0.64930  0.95770  1.0000 -0.1930780968
C   C8        1.0  0.50440  0.74840  0.80870  1.0000 0.5686671897
C   C9        1.0  0.61770  0.72520  0.10080  1.0000 0.2325439094
C   C10       1.0  0.54770  0.69730  0.10300  1.0000 -0.2417680309
C   C11       1.0  0.52620  0.67360  0.16860  1.0000 -0.010027269
C   C12       1.0  0.57410  0.67870  0.22810  1.0000 -0.1104040368
C   C13       1.0  0.64410  0.70770  0.22540  1.0000 -0.0315705214
C   C14       1.0  0.66700  0.73260  0.16050  1.0000 -0.2221073532
C   C15       1.0  0.45050  0.64290  0.17120  1.0000 0.575829706
C   C16       1.0  0.69810  0.71290  0.28710  1.0000 0.5610133781
C   C17       1.0  0.54100  0.86900  0.65000  1.0000 0.5610133781
C   C18       1.0  0.61410  0.89210  0.62340  1.0000 -0.004745944
C   C19       1.0  0.64750  0.84350  0.57920  1.0000 -0.1177433815
C   C20       1.0  0.71320  0.86090  0.55490  1.0000 -0.010027269
C   C21       1.0  0.74830  0.92750  0.57680  1.0000 -0.2076656358
C   C22       1.0  0.71400  0.97430  0.62070  1.0000 0.2062973394
C   C23       1.0  0.64930  0.95770  0.64320  1.0000 -0.1930780968
C   C24       1.0  0.74840  0.80870  0.50440  1.0000 0.5686671897
C   C25       1.0  0.72520  0.10080  0.61770  1.0000 0.2325439094
C   C26       1.0  0.69730  0.10300  0.54770  1.0000 -0.2417680309
C   C27       1.0  0.67360  0.16860  0.52620  1.0000 -0.010027269
C   C28       1.0  0.67870  0.22810  0.57410  1.0000 -0.1104040368
C   C29       1.0  0.70770  0.22540  0.64410  1.0000 -0.0315705214
C   C30       1.0  0.73260  0.16050  0.66700  1.0000 -0.2221073532
C   C31       1.0  0.64290  0.17120  0.45050  1.0000 0.575829706
C   C32       1.0  0.71290  0.28710  0.69810  1.0000 0.5610133781
C   C33       1.0  0.86900  0.65000  0.54100  1.0000 0.5610133781
C   C34       1.0  0.89210  0.62340  0.61410  1.0000 -0.010027269
C   C35       1.0  0.84350  0.57920  0.64750  1.0000 -0.1177433815
C   C36       1.0  0.86090  0.55490  0.71320  1.0000 -0.010027269
C   C37       1.0  0.92750  0.57680  0.74830  1.0000 -0.2076656358
C   C38       1.0  0.97430  0.62070  0.71400  1.0000 0.2042024746
C   C39       1.0  0.95770  0.64320  0.64930  1.0000 -0.1930780968
C   C40       1.0  0.80870  0.50440  0.74840  1.0000 0.5686671897
C   C41       1.0  0.10080  0.61770  0.72520  1.0000 0.2325439094
C   C42       1.0  0.10300  0.54770  0.69730  1.0000 -0.2417680309
C   C43       1.0  0.16860  0.52620  0.67360  1.0000 -0.0154473167
C   C44       1.0  0.22810  0.57410  0.67870  1.0000 -0.1104040368
C   C45       1.0  0.22540  0.64410  0.70770  1.0000 -0.0315705214
C   C46       1.0  0.16050  0.66700  0.73260  1.0000 -0.2221073532
C   C47       1.0  0.17120  0.45050  0.64290  1.0000 0.575829706
C   C48       1.0  0.28710  0.69810  0.71290  1.0000 0.5686671897
C   C49       1.0  0.35000  0.45900  0.13100  1.0000 0.5610133781
C   C50       1.0  0.37660  0.38590  0.10790  1.0000 -0.010027269
C   C51       1.0  0.42080  0.35250  0.15650  1.0000 -0.1177433815
C   C52       1.0  0.44510  0.28680  0.13910  1.0000 -0.010027269
C   C53       1.0  0.42320  0.25170  0.07250  1.0000 -0.2076656358
C   C54       1.0  0.37930  0.28600  0.02570  1.0000 0.2042024746
C   C55       1.0  0.35680  0.35070  0.04230  1.0000 -0.1930780968
C   C56       1.0  0.49560  0.25160  0.19130  1.0000 0.5686671897
C   C57       1.0  0.38230  0.27480  0.89920  1.0000 0.2325439094
C   C58       1.0  0.45230  0.30270  0.89700  1.0000 -0.2417680309
C   C59       1.0  0.47380  0.32640  0.83140  1.0000 -0.0154473167
C   C60       1.0  0.42590  0.32130  0.77190  1.0000 -0.1104040368
C   C61       1.0  0.35590  0.29230  0.77460  1.0000 -0.0315705214
C   C62       1.0  0.33300  0.26740  0.83950  1.0000 -0.2221073532
C   C63       1.0  0.54950  0.35710  0.82880  1.0000 0.575829706
C   C64       1.0  0.30190  0.28710  0.71290  1.0000 0.5610133781
C   C65       1.0  0.45900  0.13100  0.35000  1.0000 0.5610133781
C   C66       1.0  0.38590  0.10790  0.37660  1.0000 -0.010027269
C   C67       1.0  0.35250  0.15650  0.42080  1.0000 -0.1177433815
C   C68       1.0  0.28680  0.13910  0.44510  1.0000 -0.010027269
C   C69       1.0  0.25170  0.07250  0.42320  1.0000 -0.2076656358
C   C70       1.0  0.28600  0.02570  0.37930  1.0000 0.2042024746
C   C71       1.0  0.35070  0.04230  0.35680  1.0000 -0.1930780968
C   C72       1.0  0.25160  0.19130  0.49560  1.0000 0.5686671897
C   C73       1.0  0.27480  0.89920  0.38230  1.0000 0.2325439094
C   C74       1.0  0.30270  0.89700  0.45230  1.0000 -0.2417680309
C   C75       1.0  0.32640  0.83140  0.47380  1.0000 -0.0154473167
C   C76       1.0  0.32130  0.77190  0.42590  1.0000 -0.1104040368
C   C77       1.0  0.29230  0.77460  0.35590  1.0000 -0.0315705214
C   C78       1.0  0.26740  0.83950  0.33300  1.0000 -0.2221073532
C   C79       1.0  0.35710  0.82880  0.54950  1.0000 0.575829706
C   C80       1.0  0.28710  0.71290  0.30190  1.0000 0.5610133781
C   C81       1.0  0.13100  0.35000  0.45900  1.0000 0.5610133781
C   C82       1.0  0.10790  0.37660  0.38590  1.0000 -0.010027269
C   C83       1.0  0.15650  0.42080  0.35250  1.0000 -0.1177433815
C   C84       1.0  0.13910  0.44510  0.28680  1.0000 -0.010027269
C   C85       1.0  0.07250  0.42320  0.25170  1.0000 -0.2076656358
C   C86       1.0  0.02570  0.37930  0.28600  1.0000 0.2042024746
C   C87       1.0  0.04230  0.35680  0.35070  1.0000 -0.1930780968
C   C88       1.0  0.19130  0.49560  0.25160  1.0000 0.5686671897
C   C89       1.0  0.89920  0.38230  0.27480  1.0000 0.2325439094
C   C90       1.0  0.89700  0.45230  0.30270  1.0000 -0.2417680309
C   C91       1.0  0.83140  0.47380  0.32640  1.0000 -0.0154473167
C   C92       1.0  0.77190  0.42590  0.32130  1.0000 -0.1104040368
C   C93       1.0  0.77460  0.35590  0.29230  1.0000 -0.0315705214
C   C94       1.0  0.83950  0.33300  0.26740  1.0000 -0.2221073532
C   C95       1.0  0.82880  0.54950  0.35710  1.0000 0.575829706
C   C96       1.0  0.71290  0.30190  0.28710  1.0000 0.5686671897
O   O1        1.0  0.82760  0.48740  0.80920  1.0000 -0.5142522341
O   O2        1.0  0.63691  0.51761  0.80831  1.0000 -0.4828134225
O   O3        1.0  0.72045  0.39151  0.83248  1.0000 -0.6585528141
O   O4        1.0  0.67950  0.50690  0.92100  1.0000 -0.5472731699
O   O5        1.0  0.48658  0.71538  0.74938  1.0000 -0.5414928141
O   O6        1.0  0.64451  0.75391  0.03811  1.0000 -0.2221073532
O   O7        1.0  0.41320  0.63630  0.11280  1.0000 -0.5472731699
O   O8        1.0  0.43112  0.62462  0.22902  1.0000 -0.5167262242
O   O9        1.0  0.67985  0.68235  0.34325  1.0000 -0.5605542448
O   O10       1.0  0.75730  0.74590  0.28280  1.0000 -0.5414928141
O   O11       1.0  0.77990  0.41340  0.97680  1.0000 -0.4708813912
O   O12       1.0  0.48740  0.80920  0.82760  1.0000 -0.5142522341
O   O13       1.0  0.51761  0.80831  0.63691  1.0000 -0.4828134225
O   O14       1.0  0.39151  0.83248  0.72045  1.0000 -0.6585528141
O   O15       1.0  0.50690  0.92100  0.67950  1.0000 -0.5472731699
O   O16       1.0  0.71538  0.74938  0.48658  1.0000 -0.5472731699
O   O17       1.0  0.75391  0.03811  0.64451  1.0000 -0.2221073532
O   O18       1.0  0.63630  0.11280  0.41320  1.0000 -0.5472731699
O   O19       1.0  0.62462  0.22902  0.43112  1.0000 -0.5167262242
O   O20       1.0  0.68235  0.34325  0.67985  1.0000 -0.5605542448
O   O21       1.0  0.74590  0.28280  0.75730  1.0000 -0.5414928141
O   O22       1.0  0.41340  0.97680  0.77990  1.0000 -0.4708813912
O   O23       1.0  0.80920  0.82760  0.48740  1.0000 -0.5167262242
O   O24       1.0  0.80831  0.63691  0.51761  1.0000 -0.48531404
O   O25       1.0  0.83248  0.72045  0.39151  1.0000 -0.6585528141
O   O26       1.0  0.92100  0.67950  0.50690  1.0000 -0.5472731699
O   O27       1.0  0.74938  0.48658  0.71538  1.0000 -0.5472731699
O   O28       1.0  0.03811  0.64451  0.75391  1.0000 -0.2221073532
O   O29       1.0  0.11280  0.41320  0.63630  1.0000 -0.5472731699
O   O30       1.0  0.22902  0.43112  0.62462  1.0000 -0.5142522341
O   O31       1.0  0.34325  0.67985  0.68235  1.0000 -0.5605542448
O   O32       1.0  0.28280  0.75730  0.74590  1.0000 -0.5414928141
O   O33       1.0  0.97680  0.77990  0.41340  1.0000 -0.4708813912
O   O34       1.0  0.17240  0.51260  0.19080  1.0000 -0.5167262242
O   O35       1.0  0.36309  0.48239  0.19169  1.0000 -0.4828134225
O   O36       1.0  0.27955  0.60849  0.16752  1.0000 -0.6585528141
O   O37       1.0  0.32050  0.49310  0.07900  1.0000 -0.5472731699
O   O38       1.0  0.51342  0.28462  0.25062  1.0000 -0.5472731699
O   O39       1.0  0.35549  0.24609  0.96189  1.0000 -0.2221073532
O   O40       1.0  0.58680  0.36370  0.88720  1.0000 -0.5472731699
O   O41       1.0  0.56888  0.37538  0.77098  1.0000 -0.5167262242
O   O42       1.0  0.32015  0.31765  0.65675  1.0000 -0.5605542448
O   O43       1.0  0.24270  0.25410  0.71720  1.0000 -0.5414928141
O   O44       1.0  0.22010  0.58660  0.02320  1.0000 -0.4708813912
O   O45       1.0  0.51260  0.19080  0.17240  1.0000 -0.5142522341
O   O46       1.0  0.48239  0.19169  0.36309  1.0000 -0.4828134225
O   O47       1.0  0.60849  0.16752  0.27955  1.0000 -0.6585528141
O   O48       1.0  0.49310  0.07900  0.32050  1.0000 -0.5472731699
O   O49       1.0  0.28462  0.25062  0.51342  1.0000 -0.5472731699
O   O50       1.0  0.24609  0.96189  0.35549  1.0000 -0.2221073532
O   O51       1.0  0.36370  0.88720  0.58680  1.0000 -0.5472731699
O   O52       1.0  0.37538  0.77098  0.56888  1.0000 -0.5167262242
O   O53       1.0  0.31765  0.65675  0.32015  1.0000 -0.5605542448
O   O54       1.0  0.25410  0.71720  0.24270  1.0000 -0.5414928141
O   O55       1.0  0.58660  0.02320  0.22010  1.0000 -0.4708813912
O   O56       1.0  0.19080  0.17240  0.51260  1.0000 -0.5142522341
O   O57       1.0  0.19169  0.36309  0.48239  1.0000 -0.4828134225
O   O58       1.0  0.16752  0.27955  0.60849  1.0000 -0.6585528141
O   O59       1.0  0.07900  0.32050  0.49310  1.0000 -0.5472731699
O   O60       1.0  0.25062  0.51342  0.28462  1.0000 -0.5472731699
O   O61       1.0  0.96189  0.35549  0.24609  1.0000 -0.2221073532
O   O62       1.0  0.88720  0.58680  0.36370  1.0000 -0.5472731699
O   O63       1.0  0.77098  0.56888  0.37538  1.0000 -0.5142522341
O   O64       1.0  0.65675  0.32015  0.31765  1.0000 -0.5605542448
O   O65       1.0  0.71720  0.24270  0.25410  1.0000 -0.5414928141
O   O66       1.0  0.02320  0.22010  0.58660  1.0000 -0.4708813912
