# DDEC6 charges by PACMAN v1.1 (https://github.com/mtap-research/PACMAN-charge/)
data_2020[Co][pcu]3[ASR]2
_chemical_formula_sum              "Co24 H60 C160 Br20 O88"
_cell_length_a       10.891
_cell_length_b       28.578
_cell_length_c       23.0622
_cell_angle_alpha    90
_cell_angle_beta     109.008
_cell_angle_gamma    90

_symmetry_space_group_name_H-M    "P 1"
_symmetry_Int_Tables_number       1

loop_
  _symmetry_equiv_pos_as_xyz
  'x, y, z'

loop_
  _atom_site_type_symbol
  _atom_site_label
  _atom_site_symmetry_multiplicity
  _atom_site_fract_x
  _atom_site_fract_y
  _atom_site_fract_z
  _atom_site_occupancy
  _atom_site_charge
Co  Co1       1.0  0.59217  0.45523  0.03504  1.0000 1.1067835511
Co  Co2       1.0  0.55472  0.45598  0.46641  1.0000 1.1167903961
Co  Co3       1.0  0.66987  0.13467  0.45518  1.0000 1.079977435
Co  Co4       1.0  0.36012  0.41213  0.90850  1.0000 1.0339819611
Co  Co5       1.0  0.50882  0.41066  0.59265  1.0000 1.0184713723
Co  Co6       1.0  0.73790  0.36310  0.54104  1.0000 1.079977435
Co  Co7       1.0  0.40783  0.95523  0.46496  1.0000 1.1067835511
Co  Co8       1.0  0.44528  0.95598  0.03359  1.0000 1.1167903961
Co  Co9       1.0  0.33013  0.63467  0.04482  1.0000 1.079977435
Co  Co10      1.0  0.63988  0.91213  0.59150  1.0000 1.0360132874
Co  Co11      1.0  0.49118  0.91066  0.90735  1.0000 1.0184713723
Co  Co12      1.0  0.26210  0.86310  0.95896  1.0000 1.079977435
Co  Co13      1.0  0.40783  0.54477  0.96496  1.0000 1.1067835511
Co  Co14      1.0  0.44528  0.54402  0.53359  1.0000 1.1167903961
Co  Co15      1.0  0.33013  0.86533  0.54482  1.0000 1.079977435
Co  Co16      1.0  0.63988  0.58787  0.09150  1.0000 1.0339819611
Co  Co17      1.0  0.49118  0.58934  0.40735  1.0000 1.0184713723
Co  Co18      1.0  0.26210  0.63690  0.45896  1.0000 1.079977435
Co  Co19      1.0  0.59217  0.04477  0.53504  1.0000 1.1067835511
Co  Co20      1.0  0.55472  0.04402  0.96641  1.0000 1.1167903961
Co  Co21      1.0  0.66987  0.36533  0.95518  1.0000 1.079977435
Co  Co22      1.0  0.36012  0.08787  0.40850  1.0000 1.0339819611
Co  Co23      1.0  0.50882  0.08934  0.09265  1.0000 1.0184713723
Co  Co24      1.0  0.73790  0.13690  0.04104  1.0000 1.079977435
H   H1        1.0  0.45140  0.58010  0.66420  1.0000 0.1408395138
H   H2        1.0  0.53010  0.23510  0.93080  1.0000 0.1408395138
H   H3        1.0  0.08440  0.42560  0.51670  1.0000 0.1316516343
H   H4        1.0  0.60340  0.23380  0.56010  1.0000 0.1408395138
H   H5        1.0  0.33200  0.57710  0.81230  1.0000 0.1496478365
H   H6        1.0  0.05800  0.42590  0.98810  1.0000 0.1316516343
H   H7        1.0  0.16450  0.27790  0.84350  1.0000 0.1316516343
H   H8        1.0  0.24860  0.13960  0.86610  1.0000 0.1408395138
H   H9        1.0  0.43290  0.45890  0.74890  1.0000 0.1408395138
H   H10       1.0  0.42340  0.14310  0.63880  1.0000 0.1408395138
H   H11       1.0  0.19970  0.48610  0.38540  1.0000 0.1496478365
H   H12       1.0  0.33930  0.49630  0.11590  1.0000 0.1496478365
H   H13       1.0  0.98710  0.47950  0.13520  1.0000 0.1408395138
H   H14       1.0  0.40480  0.27950  0.66770  1.0000 0.1408395138
H   H15       1.0  0.82070  0.47830  0.36490  1.0000 0.1316516343
H   H16       1.0  0.54860  0.08010  0.83580  1.0000 0.1408395138
H   H17       1.0  0.46990  0.73510  0.56920  1.0000 0.1408395138
H   H18       1.0  0.91560  0.92560  0.98330  1.0000 0.1316516343
H   H19       1.0  0.39660  0.73380  0.93990  1.0000 0.1408395138
H   H20       1.0  0.66800  0.07710  0.68770  1.0000 0.1496478365
H   H21       1.0  0.94200  0.92590  0.51190  1.0000 0.1316516343
H   H22       1.0  0.83550  0.77790  0.65650  1.0000 0.1316516343
H   H23       1.0  0.75140  0.63960  0.63390  1.0000 0.1408395138
H   H24       1.0  0.56710  0.95890  0.75110  1.0000 0.1408395138
H   H25       1.0  0.57660  0.64310  0.86120  1.0000 0.1408395138
H   H26       1.0  0.80030  0.98610  0.11460  1.0000 0.1496478365
H   H27       1.0  0.66070  0.99630  0.38410  1.0000 0.1496478365
H   H28       1.0  0.01290  0.97950  0.36480  1.0000 0.1408395138
H   H29       1.0  0.59520  0.77950  0.83230  1.0000 0.1408395138
H   H30       1.0  0.17930  0.97830  0.13510  1.0000 0.1316516343
H   H31       1.0  0.54860  0.41990  0.33580  1.0000 0.1408395138
H   H32       1.0  0.46990  0.76490  0.06920  1.0000 0.1408395138
H   H33       1.0  0.91560  0.57440  0.48330  1.0000 0.1316516343
H   H34       1.0  0.39660  0.76620  0.43990  1.0000 0.1408395138
H   H35       1.0  0.66800  0.42290  0.18770  1.0000 0.1496478365
H   H36       1.0  0.94200  0.57410  0.01190  1.0000 0.1316516343
H   H37       1.0  0.83550  0.72210  0.15650  1.0000 0.1316516343
H   H38       1.0  0.75140  0.86040  0.13390  1.0000 0.1408395138
H   H39       1.0  0.56710  0.54110  0.25110  1.0000 0.1408395138
H   H40       1.0  0.57660  0.85690  0.36120  1.0000 0.1408395138
H   H41       1.0  0.80030  0.51390  0.61460  1.0000 0.1496478365
H   H42       1.0  0.66070  0.50370  0.88410  1.0000 0.1496478365
H   H43       1.0  0.01290  0.52050  0.86480  1.0000 0.1408395138
H   H44       1.0  0.59520  0.72050  0.33230  1.0000 0.1408395138
H   H45       1.0  0.17930  0.52170  0.63510  1.0000 0.1316516343
H   H46       1.0  0.45140  0.91990  0.16420  1.0000 0.1408395138
H   H47       1.0  0.53010  0.26490  0.43080  1.0000 0.1408395138
H   H48       1.0  0.08440  0.07440  0.01670  1.0000 0.1316516343
H   H49       1.0  0.60340  0.26620  0.06010  1.0000 0.1408395138
H   H50       1.0  0.33200  0.92290  0.31230  1.0000 0.1496478365
H   H51       1.0  0.05800  0.07410  0.48810  1.0000 0.1316516343
H   H52       1.0  0.16450  0.22210  0.34350  1.0000 0.1316516343
H   H53       1.0  0.24860  0.36040  0.36610  1.0000 0.1408395138
H   H54       1.0  0.43290  0.04110  0.24890  1.0000 0.1408395138
H   H55       1.0  0.42340  0.35690  0.13880  1.0000 0.1408395138
H   H56       1.0  0.19970  0.01390  0.88540  1.0000 0.1496478365
H   H57       1.0  0.33930  0.00370  0.61590  1.0000 0.1496478365
H   H58       1.0  0.98710  0.02050  0.63520  1.0000 0.1408395138
H   H59       1.0  0.40480  0.22050  0.16770  1.0000 0.1408395138
H   H60       1.0  0.82070  0.02170  0.86490  1.0000 0.1316516343
C   C1        1.0  0.40580  0.18170  0.90300  1.0000 -0.0035740092
C   C2        1.0  0.57610  0.14320  0.56570  1.0000 0.5915326708
C   C3        1.0  0.29550  0.45480  0.00740  1.0000 0.6057741762
C   C4        1.0  0.43110  0.56330  0.69440  1.0000 -0.1346409528
C   C5        1.0  0.44300  0.22810  0.91070  1.0000 -0.094727683
C   C6        1.0  0.35700  0.26440  0.89000  1.0000 -0.0212656178
C   C7        1.0  0.99840  0.44930  0.05620  1.0000 -0.0340306527
C   C8        1.0  0.16500  0.45540  0.45810  1.0000 -0.0130674629
C   C9        1.0  0.52130  0.18190  0.59440  1.0000 0.0121875141
C   C10       1.0  0.38180  0.51380  0.78800  1.0000 -0.0035740092
C   C11       1.0  0.20960  0.46120  0.04490  1.0000 -0.0130674629
C   C12       1.0  0.06490  0.44080  0.47910  1.0000 -0.1106924493
C   C13       1.0  0.83370  0.43300  0.47010  1.0000 0.6014193268
C   C14       1.0  0.45350  0.51500  0.70110  1.0000 -0.0130674629
C   C15       1.0  0.55190  0.22800  0.58450  1.0000 -0.1106924493
C   C16       1.0  0.35900  0.56150  0.78320  1.0000 -0.1578328042
C   C17       1.0  0.50040  0.14350  0.93090  1.0000 0.5915326708
C   C18       1.0  0.93660  0.44890  0.44430  1.0000 -0.0035740092
C   C19       1.0  0.40350  0.31330  0.90050  1.0000 0.6014193268
C   C20       1.0  0.50720  0.26480  0.61030  1.0000 0.0006329068
C   C21       1.0  0.86560  0.43150  0.03260  1.0000 0.5915326708
C   C22       1.0  0.08450  0.44300  0.02440  1.0000 -0.1011478408
C   C23       1.0  0.35680  0.48530  0.83920  1.0000 0.5789666594
C   C24       1.0  0.50390  0.48810  0.65810  1.0000 0.5745580466
C   C25       1.0  0.22490  0.25410  0.85830  1.0000 -0.1394059522
C   C26       1.0  0.54640  0.31390  0.60030  1.0000 0.5915326708
C   C27       1.0  0.27600  0.17060  0.87200  1.0000 -0.1531439452
C   C28       1.0  0.42380  0.49130  0.74660  1.0000 -0.1219545072
C   C29       1.0  0.44570  0.17350  0.63180  1.0000 -0.1578328042
C   C30       1.0  0.37660  0.58550  0.73500  1.0000 0.0977493254
C   C31       1.0  0.13390  0.47720  0.40060  1.0000 -0.1394059522
C   C32       1.0  0.25460  0.48510  0.10060  1.0000 -0.1394059522
C   C33       1.0  0.04260  0.47460  0.11250  1.0000 -0.1394059522
C   C34       1.0  0.16500  0.49150  0.13270  1.0000 0.0977493254
C   C35       1.0  0.40520  0.21030  0.65750  1.0000 0.0927237886
C   C36       1.0  0.43380  0.25520  0.64860  1.0000 -0.1346409528
C   C37       1.0  0.90670  0.47200  0.38770  1.0000 -0.1578328042
C   C38       1.0  0.00480  0.48530  0.36620  1.0000 0.0977493254
C   C39       1.0  0.18810  0.20740  0.85000  1.0000 0.0927237886
C   C40       1.0  0.30150  0.45020  0.49650  1.0000 0.6057741762
C   C41       1.0  0.59420  0.68170  0.59700  1.0000 -0.0035740092
C   C42       1.0  0.42390  0.64320  0.93430  1.0000 0.5915326708
C   C43       1.0  0.70450  0.95480  0.49260  1.0000 0.6057741762
C   C44       1.0  0.56890  0.06330  0.80560  1.0000 -0.1346409528
C   C45       1.0  0.55700  0.72810  0.58930  1.0000 -0.094727683
C   C46       1.0  0.64300  0.76440  0.61000  1.0000 -0.0212656178
C   C47       1.0  0.00160  0.94930  0.44380  1.0000 -0.0340306527
C   C48       1.0  0.83500  0.95540  0.04190  1.0000 -0.0130674629
C   C49       1.0  0.47870  0.68190  0.90560  1.0000 0.0121875141
C   C50       1.0  0.61820  0.01380  0.71200  1.0000 -0.0035740092
C   C51       1.0  0.79040  0.96120  0.45510  1.0000 -0.0130674629
C   C52       1.0  0.93510  0.94080  0.02090  1.0000 -0.1106924493
C   C53       1.0  0.16630  0.93300  0.02990  1.0000 0.6014193268
C   C54       1.0  0.54650  0.01500  0.79890  1.0000 -0.0212656178
C   C55       1.0  0.44810  0.72800  0.91550  1.0000 -0.1011478408
C   C56       1.0  0.64100  0.06150  0.71680  1.0000 -0.1578328042
C   C57       1.0  0.49960  0.64350  0.56910  1.0000 0.5915326708
C   C58       1.0  0.06340  0.94890  0.05570  1.0000 -0.0035740092
C   C59       1.0  0.59650  0.81330  0.59950  1.0000 0.6014193268
C   C60       1.0  0.49280  0.76480  0.88970  1.0000 0.0006329068
C   C61       1.0  0.13440  0.93150  0.46740  1.0000 0.5915326708
C   C62       1.0  0.91550  0.94300  0.47560  1.0000 -0.1011478408
C   C63       1.0  0.64320  0.98530  0.66080  1.0000 0.5789666594
C   C64       1.0  0.49610  0.98810  0.84190  1.0000 0.5745580466
C   C65       1.0  0.77510  0.75410  0.64170  1.0000 -0.1394059522
C   C66       1.0  0.45360  0.81390  0.89970  1.0000 0.5915326708
C   C67       1.0  0.72400  0.67060  0.62800  1.0000 -0.1531439452
C   C68       1.0  0.57620  0.99130  0.75340  1.0000 -0.1219545072
C   C69       1.0  0.55430  0.67350  0.86820  1.0000 -0.1578328042
C   C70       1.0  0.62340  0.08550  0.76500  1.0000 0.0977493254
C   C71       1.0  0.86610  0.97720  0.09940  1.0000 -0.1394059522
C   C72       1.0  0.74540  0.98510  0.39940  1.0000 -0.1394059522
C   C73       1.0  0.95740  0.97460  0.38750  1.0000 -0.1394059522
C   C74       1.0  0.83500  0.99150  0.36730  1.0000 0.0977493254
C   C75       1.0  0.59480  0.71030  0.84250  1.0000 0.0927237886
C   C76       1.0  0.56620  0.75520  0.85140  1.0000 -0.1394059522
C   C77       1.0  0.09330  0.97200  0.11230  1.0000 -0.1578328042
C   C78       1.0  0.99520  0.98530  0.13380  1.0000 0.0977493254
C   C79       1.0  0.81190  0.70740  0.65000  1.0000 0.0927237886
C   C80       1.0  0.69850  0.95020  0.00350  1.0000 0.6057741762
C   C81       1.0  0.59420  0.81830  0.09700  1.0000 -0.0035740092
C   C82       1.0  0.42390  0.85680  0.43430  1.0000 0.5915326708
C   C83       1.0  0.70450  0.54520  0.99260  1.0000 0.6057741762
C   C84       1.0  0.56890  0.43670  0.30560  1.0000 -0.1346409528
C   C85       1.0  0.55700  0.77190  0.08930  1.0000 -0.1011478408
C   C86       1.0  0.64300  0.73560  0.11000  1.0000 -0.0212656178
C   C87       1.0  0.00160  0.55070  0.94380  1.0000 -0.0340306527
C   C88       1.0  0.83500  0.54460  0.54190  1.0000 -0.0130674629
C   C89       1.0  0.47870  0.81810  0.40560  1.0000 0.0121875141
C   C90       1.0  0.61820  0.48620  0.21200  1.0000 -0.0035740092
C   C91       1.0  0.79040  0.53880  0.95510  1.0000 -0.0130674629
C   C92       1.0  0.93510  0.55920  0.52090  1.0000 -0.1106924493
C   C93       1.0  0.16630  0.56700  0.52990  1.0000 0.6014193268
C   C94       1.0  0.54650  0.48500  0.29890  1.0000 -0.0130674629
C   C95       1.0  0.44810  0.77200  0.41550  1.0000 -0.1011478408
C   C96       1.0  0.64100  0.43850  0.21680  1.0000 -0.1578328042
C   C97       1.0  0.49960  0.85650  0.06910  1.0000 0.5915326708
C   C98       1.0  0.06340  0.55110  0.55570  1.0000 -0.0035740092
C   C99       1.0  0.59650  0.68670  0.09950  1.0000 0.6014193268
C   C100      1.0  0.49280  0.73520  0.38970  1.0000 0.0006329068
C   C101      1.0  0.13440  0.56850  0.96740  1.0000 0.5915326708
C   C102      1.0  0.91550  0.55700  0.97560  1.0000 -0.1011478408
C   C103      1.0  0.64320  0.51470  0.16080  1.0000 0.5789666594
C   C104      1.0  0.49610  0.51190  0.34190  1.0000 0.5745580466
C   C105      1.0  0.77510  0.74590  0.14170  1.0000 -0.1394059522
C   C106      1.0  0.45360  0.68610  0.39970  1.0000 0.5915326708
C   C107      1.0  0.72400  0.82940  0.12800  1.0000 -0.1531439452
C   C108      1.0  0.57620  0.50870  0.25340  1.0000 -0.1219545072
C   C109      1.0  0.55430  0.82650  0.36820  1.0000 -0.1578328042
C   C110      1.0  0.62340  0.41450  0.26500  1.0000 0.0977493254
C   C111      1.0  0.86610  0.52280  0.59940  1.0000 -0.1394059522
C   C112      1.0  0.74540  0.51490  0.89940  1.0000 -0.1394059522
C   C113      1.0  0.95740  0.52540  0.88750  1.0000 -0.1394059522
C   C114      1.0  0.83500  0.50850  0.86730  1.0000 0.0977493254
C   C115      1.0  0.59480  0.78970  0.34250  1.0000 0.0927237886
C   C116      1.0  0.56620  0.74480  0.35140  1.0000 -0.1394059522
C   C117      1.0  0.09330  0.52800  0.61230  1.0000 -0.1578328042
C   C118      1.0  0.99520  0.51470  0.63380  1.0000 0.0977493254
C   C119      1.0  0.81190  0.79260  0.15000  1.0000 0.0927237886
C   C120      1.0  0.69850  0.54980  0.50350  1.0000 0.6057741762
C   C121      1.0  0.40580  0.31830  0.40300  1.0000 -0.0035740092
C   C122      1.0  0.57610  0.35680  0.06570  1.0000 0.5915326708
C   C123      1.0  0.29550  0.04520  0.50740  1.0000 0.6057741762
C   C124      1.0  0.43110  0.93670  0.19440  1.0000 -0.1346409528
C   C125      1.0  0.44300  0.27190  0.41070  1.0000 -0.094727683
C   C126      1.0  0.35700  0.23560  0.39000  1.0000 -0.0212656178
C   C127      1.0  0.99840  0.05070  0.55620  1.0000 -0.0340306527
C   C128      1.0  0.16500  0.04460  0.95810  1.0000 -0.0130674629
C   C129      1.0  0.52130  0.31810  0.09440  1.0000 0.0121875141
C   C130      1.0  0.38180  0.98620  0.28800  1.0000 -0.0035740092
C   C131      1.0  0.20960  0.03880  0.54490  1.0000 -0.0130674629
C   C132      1.0  0.06490  0.05920  0.97910  1.0000 -0.1106924493
C   C133      1.0  0.83370  0.06700  0.97010  1.0000 0.6014193268
C   C134      1.0  0.45350  0.98500  0.20110  1.0000 -0.0130674629
C   C135      1.0  0.55190  0.27200  0.08450  1.0000 -0.1011478408
C   C136      1.0  0.35900  0.93850  0.28320  1.0000 -0.1578328042
C   C137      1.0  0.50040  0.35650  0.43090  1.0000 0.5915326708
C   C138      1.0  0.93660  0.05110  0.94430  1.0000 -0.0035740092
C   C139      1.0  0.40350  0.18670  0.40050  1.0000 0.6014193268
C   C140      1.0  0.50720  0.23520  0.11030  1.0000 0.0006329068
C   C141      1.0  0.86560  0.06850  0.53260  1.0000 0.5915326708
C   C142      1.0  0.08450  0.05700  0.52440  1.0000 -0.1011478408
C   C143      1.0  0.35680  0.01470  0.33920  1.0000 0.5789666594
C   C144      1.0  0.50390  0.01190  0.15810  1.0000 0.5745580466
C   C145      1.0  0.22490  0.24590  0.35830  1.0000 -0.1394059522
C   C146      1.0  0.54640  0.18610  0.10030  1.0000 0.5915326708
C   C147      1.0  0.27600  0.32940  0.37200  1.0000 -0.1531439452
C   C148      1.0  0.42380  0.00870  0.24660  1.0000 -0.1219545072
C   C149      1.0  0.44570  0.32650  0.13180  1.0000 -0.1578328042
C   C150      1.0  0.37660  0.91450  0.23500  1.0000 0.0977493254
C   C151      1.0  0.13390  0.02280  0.90060  1.0000 -0.1394059522
C   C152      1.0  0.25460  0.01490  0.60060  1.0000 -0.1394059522
C   C153      1.0  0.04260  0.02540  0.61250  1.0000 -0.1394059522
C   C154      1.0  0.16500  0.00850  0.63270  1.0000 0.0977493254
C   C155      1.0  0.40520  0.28970  0.15750  1.0000 0.0927237886
C   C156      1.0  0.43380  0.24480  0.14860  1.0000 -0.1394059522
C   C157      1.0  0.90670  0.02800  0.88770  1.0000 -0.1578328042
C   C158      1.0  0.00480  0.01470  0.86620  1.0000 0.0977493254
C   C159      1.0  0.18810  0.29260  0.35000  1.0000 0.0927237886
C   C160      1.0  0.30150  0.04980  0.99650  1.0000 0.6057741762
Br  Br1       1.0  0.33157  0.64897  0.72197  1.0000 -0.0659475951
Br  Br2       1.0  0.22443  0.52422  0.20864  1.0000 -0.0606442823
Br  Br3       1.0  0.31050  0.19797  0.71332  1.0000 -0.1106924493
Br  Br4       1.0  0.01140  0.19223  0.81120  1.0000 -0.0778161092
Br  Br5       1.0  0.96502  0.51403  0.28862  1.0000 -0.0606442823
Br  Br6       1.0  0.66843  0.14897  0.77803  1.0000 -0.0659475951
Br  Br7       1.0  0.77557  0.02422  0.29136  1.0000 -0.0547703459
Br  Br8       1.0  0.68950  0.69797  0.78668  1.0000 -0.1011478408
Br  Br9       1.0  0.98860  0.69223  0.68880  1.0000 -0.0778161092
Br  Br10      1.0  0.03498  0.01403  0.21138  1.0000 -0.0606442823
Br  Br11      1.0  0.66843  0.35103  0.27803  1.0000 -0.0659475951
Br  Br12      1.0  0.77557  0.47578  0.79136  1.0000 -0.0547703459
Br  Br13      1.0  0.68950  0.80203  0.28668  1.0000 -0.1011478408
Br  Br14      1.0  0.98860  0.80777  0.18880  1.0000 -0.0778161092
Br  Br15      1.0  0.03498  0.48597  0.71138  1.0000 -0.0606442823
Br  Br16      1.0  0.33157  0.85103  0.22197  1.0000 -0.0659475951
Br  Br17      1.0  0.22443  0.97578  0.70864  1.0000 -0.0547703459
Br  Br18      1.0  0.31050  0.30203  0.21332  1.0000 -0.1011478408
Br  Br19      1.0  0.01140  0.30777  0.31120  1.0000 -0.0778161092
Br  Br20      1.0  0.96502  0.98597  0.78862  1.0000 -0.0606442823
O   O1        1.0  0.39770  0.48090  0.01820  1.0000 -0.5966362535
O   O2        1.0  0.63450  0.42300  0.55050  1.0000 -0.8909643172
O   O3        1.0  0.38630  0.47720  0.48660  1.0000 -0.5815774976
O   O4        1.0  0.78660  0.44820  0.05740  1.0000 -0.5383411674
O   O5        1.0  0.54890  0.42240  0.95050  1.0000 -0.8728107988
O   O6        1.0  0.26300  0.42580  0.96470  1.0000 -0.512151952
O   O7        1.0  0.53830  0.10290  0.57080  1.0000 -0.5275667338
O   O8        1.0  0.45570  0.10340  0.92940  1.0000 -0.5199798374
O   O9        1.0  0.72310  0.45360  0.44540  1.0000 -0.5702816947
O   O10       1.0  0.32840  0.41850  0.53690  1.0000 -0.512151952
O   O11       1.0  0.65550  0.15400  0.53950  1.0000 -0.5498980908
O   O12       1.0  0.85900  0.40220  0.50930  1.0000 -0.5199798374
O   O13       1.0  0.32030  0.34490  0.89460  1.0000 -0.5199798374
O   O14       1.0  0.35960  0.50310  0.88760  1.0000 -0.4992391644
O   O15       1.0  0.52720  0.50770  0.61440  1.0000 -0.5275667338
O   O16       1.0  0.61920  0.15380  0.95230  1.0000 -0.5498980908
O   O17       1.0  0.52110  0.32020  0.91160  1.0000 -0.5702816947
O   O18       1.0  0.83920  0.40220  0.99050  1.0000 -0.5498980908
O   O19       1.0  0.51610  0.44470  0.66680  1.0000 -0.5199798374
O   O20       1.0  0.49470  0.34660  0.61910  1.0000 -0.4911117806
O   O21       1.0  0.33620  0.44150  0.82900  1.0000 -0.5199798374
O   O22       1.0  0.61680  0.31870  0.56920  1.0000 -0.5595633863
O   O23       1.0  0.60230  0.98090  0.48180  1.0000 -0.5966362535
O   O24       1.0  0.36550  0.92300  0.94950  1.0000 -0.8909643172
O   O25       1.0  0.61370  0.97720  0.01340  1.0000 -0.5815774976
O   O26       1.0  0.21340  0.94820  0.44260  1.0000 -0.5383411674
O   O27       1.0  0.45110  0.92240  0.54950  1.0000 -0.8728107988
O   O28       1.0  0.73700  0.92580  0.53530  1.0000 -0.512151952
O   O29       1.0  0.46170  0.60290  0.92920  1.0000 -0.5275667338
O   O30       1.0  0.54430  0.60340  0.57060  1.0000 -0.5199798374
O   O31       1.0  0.27690  0.95360  0.05460  1.0000 -0.5702816947
O   O32       1.0  0.67160  0.91850  0.96310  1.0000 -0.512151952
O   O33       1.0  0.34450  0.65400  0.96050  1.0000 -0.5498980908
O   O34       1.0  0.14100  0.90220  0.99070  1.0000 -0.5199798374
O   O35       1.0  0.67970  0.84490  0.60540  1.0000 -0.5199798374
O   O36       1.0  0.64040  0.00310  0.61240  1.0000 -0.4992391644
O   O37       1.0  0.47280  0.00770  0.88560  1.0000 -0.5275667338
O   O38       1.0  0.38080  0.65380  0.54770  1.0000 -0.5498980908
O   O39       1.0  0.47890  0.82020  0.58840  1.0000 -0.5702816947
O   O40       1.0  0.16080  0.90220  0.50950  1.0000 -0.5498980908
O   O41       1.0  0.48390  0.94470  0.83320  1.0000 -0.5199798374
O   O42       1.0  0.50530  0.84660  0.88090  1.0000 -0.4911117806
O   O43       1.0  0.66380  0.94150  0.67100  1.0000 -0.5199798374
O   O44       1.0  0.38320  0.81870  0.93080  1.0000 -0.5595633863
O   O45       1.0  0.60230  0.51910  0.98180  1.0000 -0.5966362535
O   O46       1.0  0.36550  0.57700  0.44950  1.0000 -0.8909643172
O   O47       1.0  0.61370  0.52280  0.51340  1.0000 -0.5815774976
O   O48       1.0  0.21340  0.55180  0.94260  1.0000 -0.5383411674
O   O49       1.0  0.45110  0.57760  0.04950  1.0000 -0.8772939025
O   O50       1.0  0.73700  0.57420  0.03530  1.0000 -0.512151952
O   O51       1.0  0.46170  0.89710  0.42920  1.0000 -0.5275667338
O   O52       1.0  0.54430  0.89660  0.07060  1.0000 -0.5199798374
O   O53       1.0  0.27690  0.54640  0.55460  1.0000 -0.5702816947
O   O54       1.0  0.67160  0.58150  0.46310  1.0000 -0.512151952
O   O55       1.0  0.34450  0.84600  0.46050  1.0000 -0.5498980908
O   O56       1.0  0.14100  0.59780  0.49070  1.0000 -0.5199798374
O   O57       1.0  0.67970  0.65510  0.10540  1.0000 -0.5199798374
O   O58       1.0  0.64040  0.49690  0.11240  1.0000 -0.4992391644
O   O59       1.0  0.47280  0.49230  0.38560  1.0000 -0.5275667338
O   O60       1.0  0.38080  0.84620  0.04770  1.0000 -0.5498980908
O   O61       1.0  0.47890  0.67980  0.08840  1.0000 -0.5702816947
O   O62       1.0  0.16080  0.59780  0.00950  1.0000 -0.5498980908
O   O63       1.0  0.48390  0.55530  0.33320  1.0000 -0.5199798374
O   O64       1.0  0.50530  0.65340  0.38090  1.0000 -0.4911117806
O   O65       1.0  0.66380  0.55850  0.17100  1.0000 -0.5199798374
O   O66       1.0  0.38320  0.68130  0.43080  1.0000 -0.5595633863
O   O67       1.0  0.39770  0.01910  0.51820  1.0000 -0.5966362535
O   O68       1.0  0.63450  0.07700  0.05050  1.0000 -0.8909643172
O   O69       1.0  0.38630  0.02280  0.98660  1.0000 -0.5815774976
O   O70       1.0  0.78660  0.05180  0.55740  1.0000 -0.5383411674
O   O71       1.0  0.54890  0.07760  0.45050  1.0000 -0.8772939025
O   O72       1.0  0.26300  0.07420  0.46470  1.0000 -0.512151952
O   O73       1.0  0.53830  0.39710  0.07080  1.0000 -0.5275667338
O   O74       1.0  0.45570  0.39660  0.42940  1.0000 -0.5199798374
O   O75       1.0  0.72310  0.04640  0.94540  1.0000 -0.5702816947
O   O76       1.0  0.32840  0.08150  0.03690  1.0000 -0.512151952
O   O77       1.0  0.65550  0.34600  0.03950  1.0000 -0.5498980908
O   O78       1.0  0.85900  0.09780  0.00930  1.0000 -0.5199798374
O   O79       1.0  0.32030  0.15510  0.39460  1.0000 -0.5199798374
O   O80       1.0  0.35960  0.99690  0.38760  1.0000 -0.4992391644
O   O81       1.0  0.52720  0.99230  0.11440  1.0000 -0.5275667338
O   O82       1.0  0.61920  0.34620  0.45230  1.0000 -0.5498980908
O   O83       1.0  0.52110  0.17980  0.41160  1.0000 -0.5702816947
O   O84       1.0  0.83920  0.09780  0.49050  1.0000 -0.5498980908
O   O85       1.0  0.51610  0.05530  0.16680  1.0000 -0.5199798374
O   O86       1.0  0.49470  0.15340  0.11910  1.0000 -0.4911117806
O   O87       1.0  0.33620  0.05850  0.32900  1.0000 -0.5199798374
O   O88       1.0  0.61680  0.18130  0.06920  1.0000 -0.5595633863
