# DDEC6 charges by PACMAN v1.1 (https://github.com/mtap-research/PACMAN-charge/)
data_2020[Cu][sql]2[ASR]21
_chemical_formula_sum              "Cu4 H32 C68 O16 F24"
_cell_length_a       12.6099
_cell_length_b       6.9479
_cell_length_c       23.6261
_cell_angle_alpha    90
_cell_angle_beta     119.052
_cell_angle_gamma    90

_symmetry_space_group_name_H-M    "P 1"
_symmetry_Int_Tables_number       1

loop_
  _symmetry_equiv_pos_as_xyz
  'x, y, z'

loop_
  _atom_site_type_symbol
  _atom_site_label
  _atom_site_symmetry_multiplicity
  _atom_site_fract_x
  _atom_site_fract_y
  _atom_site_fract_z
  _atom_site_occupancy
  _atom_site_charge
Cu  Cu1       1.0  0.56794  0.15066  0.01941  1.0000 0.8208265144
Cu  Cu2       1.0  0.43206  0.15066  0.48059  1.0000 0.8208265144
Cu  Cu3       1.0  0.43206  0.84934  0.98059  1.0000 0.8208265144
Cu  Cu4       1.0  0.56794  0.84934  0.51941  1.0000 0.8208265144
H   H1        1.0  0.83665  0.96147  0.21023  1.0000 0.1217675159
H   H2        1.0  0.95859  0.81569  0.31023  1.0000 0.11193155
H   H3        1.0  0.73488  0.35339  0.25289  1.0000 0.1217675159
H   H4        1.0  0.61643  0.49564  0.15199  1.0000 0.1299496579
H   H5        1.0  0.73867  0.59723  0.35729  1.0000 0.1217675159
H   H6        1.0  0.61584  0.47183  0.39657  1.0000 0.1299496579
H   H7        1.0  0.81642  0.98352  0.44911  1.0000 0.1217675159
H   H8        1.0  0.94038  0.10982  0.41072  1.0000 0.11193155
H   H9        1.0  0.16335  0.96147  0.28977  1.0000 0.1217675159
H   H10       1.0  0.04141  0.81569  0.18977  1.0000 0.11193155
H   H11       1.0  0.26512  0.35339  0.24711  1.0000 0.1217675159
H   H12       1.0  0.38357  0.49564  0.34801  1.0000 0.1299496579
H   H13       1.0  0.26133  0.59723  0.14271  1.0000 0.1217675159
H   H14       1.0  0.38416  0.47183  0.10343  1.0000 0.1299496579
H   H15       1.0  0.18358  0.98352  0.05089  1.0000 0.1217675159
H   H16       1.0  0.05962  0.10982  0.08928  1.0000 0.11193155
H   H17       1.0  0.16335  0.03853  0.78977  1.0000 0.1217675159
H   H18       1.0  0.04141  0.18431  0.68977  1.0000 0.11193155
H   H19       1.0  0.26512  0.64661  0.74711  1.0000 0.1217675159
H   H20       1.0  0.38357  0.50436  0.84801  1.0000 0.1299496579
H   H21       1.0  0.26133  0.40277  0.64271  1.0000 0.1217675159
H   H22       1.0  0.38416  0.52817  0.60343  1.0000 0.1299496579
H   H23       1.0  0.18358  0.01648  0.55089  1.0000 0.1217675159
H   H24       1.0  0.05962  0.89018  0.58928  1.0000 0.11193155
H   H25       1.0  0.83665  0.03853  0.71023  1.0000 0.1217675159
H   H26       1.0  0.95859  0.18431  0.81023  1.0000 0.11193155
H   H27       1.0  0.73488  0.64661  0.75289  1.0000 0.1217675159
H   H28       1.0  0.61643  0.50436  0.65199  1.0000 0.1299496579
H   H29       1.0  0.73867  0.40277  0.85729  1.0000 0.1217675159
H   H30       1.0  0.61584  0.52817  0.89657  1.0000 0.1299496579
H   H31       1.0  0.81642  0.01648  0.94911  1.0000 0.1217675159
H   H32       1.0  0.94038  0.89018  0.91072  1.0000 0.11193155
C   C1        1.0  0.63589  0.84030  0.10789  1.0000 0.5668956228
C   C2        1.0  0.71401  0.74520  0.17181  1.0000 -0.0103772891
C   C3        1.0  0.81592  0.83760  0.21882  1.0000 -0.0906496927
C   C4        1.0  0.88833  0.75120  0.27853  1.0000 -0.150540517
C   C5        1.0  0.85817  0.57030  0.29207  1.0000 0.0833857736
C   C6        1.0  0.75611  0.47700  0.24431  1.0000 -0.1381445018
C   C7        1.0  0.68491  0.56200  0.18441  1.0000 -0.0840999496
C   C8        1.0  0.93555  0.46550  0.35725  1.0000 -0.2788439256
C   C9        1.0  0.01996  0.60070  0.41266  1.0000 0.6659734594
C   C10       1.0  0.01604  0.32000  0.34574  1.0000 0.6646215307
C   C11       1.0  0.85286  0.36740  0.38026  1.0000 0.0833857736
C   C12       1.0  0.75515  0.47270  0.37625  1.0000 -0.1381445018
C   C13       1.0  0.68182  0.39810  0.39952  1.0000 -0.0840999496
C   C14       1.0  0.70450  0.21480  0.42730  1.0000 -0.0158546933
C   C15       1.0  0.80086  0.10890  0.43076  1.0000 -0.0906496927
C   C16       1.0  0.87455  0.18390  0.40775  1.0000 -0.1560837788
C   C17       1.0  0.62805  0.13610  0.45405  1.0000 0.5646841514
C   C18       1.0  0.36411  0.84030  0.39211  1.0000 0.5668956228
C   C19       1.0  0.28599  0.74520  0.32819  1.0000 -0.0103772891
C   C20       1.0  0.18408  0.83760  0.28118  1.0000 -0.0906496927
C   C21       1.0  0.11167  0.75120  0.22147  1.0000 -0.150540517
C   C22       1.0  0.14183  0.57030  0.20793  1.0000 0.0833857736
C   C23       1.0  0.24389  0.47700  0.25569  1.0000 -0.1381445018
C   C24       1.0  0.31509  0.56200  0.31559  1.0000 -0.0840999496
C   C25       1.0  0.06445  0.46550  0.14275  1.0000 -0.2788439256
C   C26       1.0  0.98004  0.60070  0.08734  1.0000 0.6659734594
C   C27       1.0  0.98396  0.32000  0.15426  1.0000 0.6659734594
C   C28       1.0  0.14714  0.36740  0.11974  1.0000 0.0833857736
C   C29       1.0  0.24485  0.47270  0.12375  1.0000 -0.1381445018
C   C30       1.0  0.31818  0.39810  0.10048  1.0000 -0.0840999496
C   C31       1.0  0.29550  0.21480  0.07270  1.0000 -0.0158546933
C   C32       1.0  0.19914  0.10890  0.06924  1.0000 -0.0906496927
C   C33       1.0  0.12545  0.18390  0.09225  1.0000 -0.1560837788
C   C34       1.0  0.37195  0.13610  0.04595  1.0000 0.5646841514
C   C35       1.0  0.36411  0.15970  0.89211  1.0000 0.5668956228
C   C36       1.0  0.28599  0.25480  0.82819  1.0000 -0.0103772891
C   C37       1.0  0.18408  0.16240  0.78118  1.0000 -0.0906496927
C   C38       1.0  0.11167  0.24880  0.72147  1.0000 -0.150540517
C   C39       1.0  0.14183  0.42970  0.70793  1.0000 0.0833857736
C   C40       1.0  0.24389  0.52300  0.75569  1.0000 -0.1381445018
C   C41       1.0  0.31509  0.43800  0.81559  1.0000 -0.0840999496
C   C42       1.0  0.06445  0.53450  0.64275  1.0000 -0.2788439256
C   C43       1.0  0.98004  0.39930  0.58734  1.0000 0.6659734594
C   C44       1.0  0.98396  0.68000  0.65426  1.0000 0.6646215307
C   C45       1.0  0.14714  0.63260  0.61974  1.0000 0.0833857736
C   C46       1.0  0.24485  0.52730  0.62375  1.0000 -0.1381445018
C   C47       1.0  0.31818  0.60190  0.60048  1.0000 -0.0840999496
C   C48       1.0  0.29550  0.78520  0.57270  1.0000 -0.0158546933
C   C49       1.0  0.19914  0.89110  0.56924  1.0000 -0.0906496927
C   C50       1.0  0.12545  0.81610  0.59225  1.0000 -0.1560837788
C   C51       1.0  0.37195  0.86390  0.54595  1.0000 0.5668956228
C   C52       1.0  0.63589  0.15970  0.60789  1.0000 0.5668956228
C   C53       1.0  0.71401  0.25480  0.67181  1.0000 -0.0103772891
C   C54       1.0  0.81592  0.16240  0.71882  1.0000 -0.0906496927
C   C55       1.0  0.88833  0.24880  0.77853  1.0000 -0.150540517
C   C56       1.0  0.85817  0.42970  0.79207  1.0000 0.0833857736
C   C57       1.0  0.75611  0.52300  0.74431  1.0000 -0.1381445018
C   C58       1.0  0.68491  0.43800  0.68441  1.0000 -0.0840999496
C   C59       1.0  0.93555  0.53450  0.85725  1.0000 -0.2788439256
C   C60       1.0  0.01996  0.39930  0.91266  1.0000 0.6659734594
C   C61       1.0  0.01604  0.68000  0.84574  1.0000 0.6646215307
C   C62       1.0  0.85286  0.63260  0.88026  1.0000 0.0833857736
C   C63       1.0  0.75515  0.52730  0.87625  1.0000 -0.1381445018
C   C64       1.0  0.68182  0.60190  0.89952  1.0000 -0.0840999496
C   C65       1.0  0.70450  0.78520  0.92730  1.0000 -0.0158546933
C   C66       1.0  0.80086  0.89110  0.93076  1.0000 -0.0906496927
C   C67       1.0  0.87455  0.81610  0.90775  1.0000 -0.1560837788
C   C68       1.0  0.62805  0.86390  0.95405  1.0000 0.5668956228
O   O1        1.0  0.66320  0.00840  0.09982  1.0000 -0.5165810225
O   O2        1.0  0.65566  0.97290  0.48051  1.0000 -0.5165810225
O   O3        1.0  0.54838  0.74430  0.06568  1.0000 -0.5072129233
O   O4        1.0  0.54053  0.23770  0.44814  1.0000 -0.5072129233
O   O5        1.0  0.33680  0.00840  0.40018  1.0000 -0.5165810225
O   O6        1.0  0.34434  0.97290  0.01949  1.0000 -0.5165810225
O   O7        1.0  0.45162  0.74430  0.43432  1.0000 -0.5072129233
O   O8        1.0  0.45947  0.23770  0.05186  1.0000 -0.5072129233
O   O9        1.0  0.33680  0.99160  0.90018  1.0000 -0.5165810225
O   O10       1.0  0.34434  0.02710  0.51949  1.0000 -0.5165810225
O   O11       1.0  0.45162  0.25570  0.93432  1.0000 -0.5072129233
O   O12       1.0  0.45947  0.76230  0.55186  1.0000 -0.5072129233
O   O13       1.0  0.66320  0.99160  0.59982  1.0000 -0.5165810225
O   O14       1.0  0.65566  0.02710  0.98051  1.0000 -0.5165810225
O   O15       1.0  0.54838  0.25570  0.56568  1.0000 -0.5072129233
O   O16       1.0  0.54053  0.76230  0.94814  1.0000 -0.5072129233
F   F1        1.0  0.07435  0.50790  0.46938  1.0000 -0.18949544
F   F2        1.0  0.95743  0.74760  0.41924  1.0000 -0.18949544
F   F3        1.0  0.10920  0.67910  0.40451  1.0000 -0.18949544
F   F4        1.0  0.09944  0.23280  0.39994  1.0000 -0.18949544
F   F5        1.0  0.07733  0.40630  0.31970  1.0000 -0.18949544
F   F6        1.0  0.94932  0.18160  0.30467  1.0000 -0.18949544
F   F7        1.0  0.92565  0.50790  0.03062  1.0000 -0.18949544
F   F8        1.0  0.04257  0.74760  0.08076  1.0000 -0.18949544
F   F9        1.0  0.89080  0.67910  0.09549  1.0000 -0.18949544
F   F10       1.0  0.90056  0.23280  0.10006  1.0000 -0.18949544
F   F11       1.0  0.92267  0.40630  0.18030  1.0000 -0.18949544
F   F12       1.0  0.05068  0.18160  0.19533  1.0000 -0.18949544
F   F13       1.0  0.92565  0.49210  0.53062  1.0000 -0.18949544
F   F14       1.0  0.04257  0.25240  0.58076  1.0000 -0.18949544
F   F15       1.0  0.89080  0.32090  0.59549  1.0000 -0.18949544
F   F16       1.0  0.90056  0.76720  0.60006  1.0000 -0.18949544
F   F17       1.0  0.92267  0.59370  0.68030  1.0000 -0.18949544
F   F18       1.0  0.05068  0.81840  0.69533  1.0000 -0.18949544
F   F19       1.0  0.07435  0.49210  0.96938  1.0000 -0.18949544
F   F20       1.0  0.95743  0.25240  0.91924  1.0000 -0.18949544
F   F21       1.0  0.10920  0.32090  0.90451  1.0000 -0.18949544
F   F22       1.0  0.09944  0.76720  0.89994  1.0000 -0.18949544
F   F23       1.0  0.07733  0.59370  0.81970  1.0000 -0.18949544
F   F24       1.0  0.94932  0.81840  0.80467  1.0000 -0.18949544
