# DDEC6 charges by PACMAN v1.1 (https://github.com/mtap-research/PACMAN-charge/)
data_2020[InFe][nan]3[ASR]1
_chemical_formula_sum              "In4 Fe4 C48 O20"
_cell_length_a       10.8002
_cell_length_b       10.8002
_cell_length_c       13.2889
_cell_angle_alpha    89.0322
_cell_angle_beta     90.9678
_cell_angle_gamma    88.0256

_symmetry_space_group_name_H-M    "P 1"
_symmetry_Int_Tables_number       1

loop_
  _symmetry_equiv_pos_as_xyz
  'x, y, z'

loop_
  _atom_site_type_symbol
  _atom_site_label
  _atom_site_symmetry_multiplicity
  _atom_site_fract_x
  _atom_site_fract_y
  _atom_site_fract_z
  _atom_site_occupancy
  _atom_site_charge
In  In1       1.0  0.50000  0.50000  0.50000  1.0000 1.5225274039
In  In2       1.0  0.50000  0.50000  0.00000  1.0000 1.5225274039
In  In3       1.0  0.40692  0.40692  0.25000  1.0000 1.5712253523
In  In4       1.0  0.59308  0.59308  0.75000  1.0000 1.5712253523
Fe  Fe1       1.0  0.50000  0.00000  0.50000  1.0000 0.1889498753
Fe  Fe2       1.0  0.00000  0.50000  0.00000  1.0000 0.1889498753
Fe  Fe3       1.0  0.00000  0.50000  0.50000  1.0000 0.1486919296
Fe  Fe4       1.0  0.50000  0.00000  0.00000  1.0000 0.1486919296
C   C1        1.0  0.38834  0.25834  0.44746  1.0000 0.6182009054
C   C2        1.0  0.35992  0.13276  0.48119  1.0000 -0.1315689164
C   C3        1.0  0.36997  0.08769  0.58432  1.0000 0.049850077
C   C4        1.0  0.35040  0.95648  0.58412  1.0000 -0.0019342422
C   C5        1.0  0.32963  0.92097  0.48130  1.0000 0.0216289523
C   C6        1.0  0.33556  0.02970  0.41782  1.0000 0.049850077
C   C7        1.0  0.24915  0.57971  0.40101  1.0000 0.6364652288
C   C8        1.0  0.11472  0.60894  0.41423  1.0000 -0.091299305
C   C9        1.0  0.01418  0.56292  0.35568  1.0000 0.049850077
C   C10       1.0  0.89935  0.60753  0.39829  1.0000 0.0031008915
C   C11       1.0  0.92906  0.67692  0.48680  1.0000 -0.0074156107
C   C12       1.0  0.06235  0.67407  0.49817  1.0000 0.0284883458
C   C13       1.0  0.25834  0.38834  0.05254  1.0000 0.6182009054
C   C14       1.0  0.13276  0.35992  0.01881  1.0000 -0.1315689164
C   C15       1.0  0.08769  0.36997  0.91568  1.0000 0.049850077
C   C16       1.0  0.95648  0.35040  0.91588  1.0000 -0.0019342422
C   C17       1.0  0.92097  0.32963  0.01870  1.0000 0.0284883458
C   C18       1.0  0.02970  0.33556  0.08218  1.0000 0.049850077
C   C19       1.0  0.57971  0.24915  0.09899  1.0000 0.6364652288
C   C20       1.0  0.60894  0.11472  0.08577  1.0000 -0.091299305
C   C21       1.0  0.56292  0.01418  0.14432  1.0000 0.0439123459
C   C22       1.0  0.60753  0.89935  0.10171  1.0000 0.0031008915
C   C23       1.0  0.67692  0.92906  0.01320  1.0000 -0.0074156107
C   C24       1.0  0.67407  0.06235  0.00183  1.0000 0.0284883458
C   C25       1.0  0.61166  0.74166  0.55254  1.0000 0.6182009054
C   C26       1.0  0.64008  0.86724  0.51881  1.0000 -0.1315689164
C   C27       1.0  0.63003  0.91231  0.41568  1.0000 0.049850077
C   C28       1.0  0.64960  0.04352  0.41588  1.0000 -0.0019342422
C   C29       1.0  0.67037  0.07903  0.51870  1.0000 0.0216289523
C   C30       1.0  0.66444  0.97030  0.58218  1.0000 0.049850077
C   C31       1.0  0.75085  0.42029  0.59899  1.0000 0.6364652288
C   C32       1.0  0.88528  0.39106  0.58577  1.0000 -0.091299305
C   C33       1.0  0.98582  0.43708  0.64432  1.0000 0.0439123459
C   C34       1.0  0.10065  0.39247  0.60171  1.0000 0.0031008915
C   C35       1.0  0.07094  0.32308  0.51320  1.0000 -0.0074156107
C   C36       1.0  0.93765  0.32593  0.50183  1.0000 0.0284883458
C   C37       1.0  0.74166  0.61166  0.94746  1.0000 0.6182009054
C   C38       1.0  0.86724  0.64008  0.98119  1.0000 -0.1315689164
C   C39       1.0  0.91231  0.63003  0.08432  1.0000 0.049850077
C   C40       1.0  0.04352  0.64960  0.08412  1.0000 -0.0019342422
C   C41       1.0  0.07903  0.67037  0.98130  1.0000 0.0284883458
C   C42       1.0  0.97030  0.66444  0.91782  1.0000 0.049850077
C   C43       1.0  0.42029  0.75085  0.90101  1.0000 0.6364652288
C   C44       1.0  0.39106  0.88528  0.91423  1.0000 -0.091299305
C   C45       1.0  0.43708  0.98582  0.85568  1.0000 0.0439123459
C   C46       1.0  0.39247  0.10065  0.89829  1.0000 0.0052378216
C   C47       1.0  0.32308  0.07094  0.98680  1.0000 -0.0074156107
C   C48       1.0  0.32593  0.93765  0.99817  1.0000 0.0284883458
O   O1        1.0  0.54958  0.47658  0.34724  1.0000 -0.7486054826
O   O2        1.0  0.42195  0.32755  0.51680  1.0000 -0.5097753781
O   O3        1.0  0.37130  0.26950  0.35320  1.0000 -0.5691618848
O   O4        1.0  0.26590  0.53450  0.31410  1.0000 -0.5581984821
O   O5        1.0  0.32842  0.59882  0.47110  1.0000 -0.5581984821
O   O6        1.0  0.47658  0.54958  0.15276  1.0000 -0.7415748465
O   O7        1.0  0.32755  0.42195  0.98320  1.0000 -0.5097753781
O   O8        1.0  0.26950  0.37130  0.14680  1.0000 -0.5691618848
O   O9        1.0  0.53450  0.26590  0.18590  1.0000 -0.5581984821
O   O10       1.0  0.59882  0.32842  0.02890  1.0000 -0.5581984821
O   O11       1.0  0.45042  0.52342  0.65276  1.0000 -0.7486054826
O   O12       1.0  0.57805  0.67245  0.48320  1.0000 -0.5097753781
O   O13       1.0  0.62870  0.73050  0.64680  1.0000 -0.5691618848
O   O14       1.0  0.73410  0.46550  0.68590  1.0000 -0.5581984821
O   O15       1.0  0.67158  0.40118  0.52890  1.0000 -0.5581984821
O   O16       1.0  0.52342  0.45042  0.84724  1.0000 -0.7415748465
O   O17       1.0  0.67245  0.57805  0.01680  1.0000 -0.5097753781
O   O18       1.0  0.73050  0.62870  0.85320  1.0000 -0.5691618848
O   O19       1.0  0.46550  0.73410  0.81410  1.0000 -0.5581984821
O   O20       1.0  0.40118  0.67158  0.97110  1.0000 -0.5581984821
