# DDEC6 charges by PACMAN v1.1 (https://github.com/mtap-research/PACMAN-charge/)
data_2020[Cu][nan]3[ASR]5
_chemical_formula_sum              "Cu8 H88 C136 N16 O16"
_cell_length_a       14.9655
_cell_length_b       16.2205
_cell_length_c       20.7353
_cell_angle_alpha    90
_cell_angle_beta     90
_cell_angle_gamma    90

_symmetry_space_group_name_H-M    "P 1"
_symmetry_Int_Tables_number       1

loop_
  _symmetry_equiv_pos_as_xyz
  'x, y, z'

loop_
  _atom_site_type_symbol
  _atom_site_label
  _atom_site_symmetry_multiplicity
  _atom_site_fract_x
  _atom_site_fract_y
  _atom_site_fract_z
  _atom_site_occupancy
  _atom_site_charge
Cu  Cu1       1.0  0.03396  0.60625  0.93390  1.0000 0.4964051756
Cu  Cu2       1.0  0.03396  0.89375  0.56610  1.0000 0.4964051756
Cu  Cu3       1.0  0.46604  0.39375  0.43390  1.0000 0.4964051756
Cu  Cu4       1.0  0.46604  0.10625  0.06610  1.0000 0.4964051756
Cu  Cu5       1.0  0.96604  0.39375  0.06610  1.0000 0.4912994516
Cu  Cu6       1.0  0.96604  0.10625  0.43390  1.0000 0.4912994516
Cu  Cu7       1.0  0.53396  0.60625  0.56610  1.0000 0.4964051756
Cu  Cu8       1.0  0.53396  0.89375  0.93390  1.0000 0.4964051756
H   H1        1.0  0.19310  0.46610  0.17230  1.0000 0.1223503413
H   H2        1.0  0.38430  0.64340  0.18300  1.0000 0.1105594957
H   H3        1.0  0.21840  0.63240  0.02790  1.0000 0.1105594957
H   H4        1.0  0.35390  0.62000  0.29680  1.0000 0.1223503413
H   H5        1.0  0.40960  0.55770  0.38820  1.0000 0.1105594957
H   H6        1.0  0.37480  0.33700  0.31470  1.0000 0.0996190835
H   H7        1.0  0.31580  0.39320  0.22050  1.0000 0.1282102616
H   H8        1.0  0.47830  0.70300  0.11620  1.0000 0.1282102616
H   H9        1.0  0.55610  0.79960  0.05620  1.0000 0.0996190835
H   H10       1.0  0.34380  0.84780  0.95170  1.0000 0.0996190835
H   H11       1.0  0.25880  0.75860  0.01100  1.0000 0.1282102616
H   H12       1.0  0.19310  0.03390  0.32770  1.0000 0.1223503413
H   H13       1.0  0.38430  0.85660  0.31700  1.0000 0.1105594957
H   H14       1.0  0.21840  0.86760  0.47210  1.0000 0.1105594957
H   H15       1.0  0.35390  0.88000  0.20320  1.0000 0.1223503413
H   H16       1.0  0.40960  0.94230  0.11180  1.0000 0.1105594957
H   H17       1.0  0.37480  0.16300  0.18530  1.0000 0.0996190835
H   H18       1.0  0.31580  0.10680  0.27950  1.0000 0.1282102616
H   H19       1.0  0.47830  0.79700  0.38380  1.0000 0.1282102616
H   H20       1.0  0.55610  0.70040  0.44380  1.0000 0.0996190835
H   H21       1.0  0.34380  0.65220  0.54830  1.0000 0.0996190835
H   H22       1.0  0.25880  0.74140  0.48900  1.0000 0.1282102616
H   H23       1.0  0.30690  0.53390  0.67230  1.0000 0.1223503413
H   H24       1.0  0.11570  0.35660  0.68300  1.0000 0.1105594957
H   H25       1.0  0.28160  0.36760  0.52790  1.0000 0.1105594957
H   H26       1.0  0.14610  0.38000  0.79680  1.0000 0.1282102616
H   H27       1.0  0.09040  0.44230  0.88820  1.0000 0.1105594957
H   H28       1.0  0.12520  0.66300  0.81470  1.0000 0.0907324075
H   H29       1.0  0.18420  0.60680  0.72050  1.0000 0.1282102616
H   H30       1.0  0.02170  0.29700  0.61620  1.0000 0.1282102616
H   H31       1.0  0.94390  0.20040  0.55620  1.0000 0.0996190835
H   H32       1.0  0.15620  0.15220  0.45170  1.0000 0.0996190835
H   H33       1.0  0.24120  0.24140  0.51100  1.0000 0.1282102616
H   H34       1.0  0.30690  0.96610  0.82770  1.0000 0.1223503413
H   H35       1.0  0.11570  0.14340  0.81700  1.0000 0.1105594957
H   H36       1.0  0.28160  0.13240  0.97210  1.0000 0.1105594957
H   H37       1.0  0.14610  0.12000  0.70320  1.0000 0.1282102616
H   H38       1.0  0.09040  0.05770  0.61180  1.0000 0.1105594957
H   H39       1.0  0.12520  0.83700  0.68530  1.0000 0.0907324075
H   H40       1.0  0.18420  0.89320  0.77950  1.0000 0.1282102616
H   H41       1.0  0.02170  0.20300  0.88380  1.0000 0.1282102616
H   H42       1.0  0.94390  0.29960  0.94380  1.0000 0.0996190835
H   H43       1.0  0.15620  0.34780  0.04830  1.0000 0.0996190835
H   H44       1.0  0.24120  0.25860  0.98900  1.0000 0.1282102616
H   H45       1.0  0.80690  0.53390  0.82770  1.0000 0.1223503413
H   H46       1.0  0.61570  0.35660  0.81700  1.0000 0.1105594957
H   H47       1.0  0.78160  0.36760  0.97210  1.0000 0.1105594957
H   H48       1.0  0.64610  0.38000  0.70320  1.0000 0.1282102616
H   H49       1.0  0.59040  0.44230  0.61180  1.0000 0.1105594957
H   H50       1.0  0.62520  0.66300  0.68530  1.0000 0.0907324075
H   H51       1.0  0.68420  0.60680  0.77950  1.0000 0.1282102616
H   H52       1.0  0.52170  0.29700  0.88380  1.0000 0.1282102616
H   H53       1.0  0.44390  0.20040  0.94380  1.0000 0.0996190835
H   H54       1.0  0.65620  0.15220  0.04830  1.0000 0.0996190835
H   H55       1.0  0.74120  0.24140  0.98900  1.0000 0.1282102616
H   H56       1.0  0.80690  0.96610  0.67230  1.0000 0.1223503413
H   H57       1.0  0.61570  0.14340  0.68300  1.0000 0.1105594957
H   H58       1.0  0.78160  0.13240  0.52790  1.0000 0.1105594957
H   H59       1.0  0.64610  0.12000  0.79680  1.0000 0.1282102616
H   H60       1.0  0.59040  0.05770  0.88820  1.0000 0.1105594957
H   H61       1.0  0.62520  0.83700  0.81470  1.0000 0.0907324075
H   H62       1.0  0.68420  0.89320  0.72050  1.0000 0.1282102616
H   H63       1.0  0.52170  0.20300  0.61620  1.0000 0.1282102616
H   H64       1.0  0.44390  0.29960  0.55620  1.0000 0.0996190835
H   H65       1.0  0.65620  0.34780  0.45170  1.0000 0.0996190835
H   H66       1.0  0.74120  0.25860  0.51100  1.0000 0.1282102616
H   H67       1.0  0.69310  0.46610  0.32770  1.0000 0.1223503413
H   H68       1.0  0.88430  0.64340  0.31700  1.0000 0.1105594957
H   H69       1.0  0.71840  0.63240  0.47210  1.0000 0.1105594957
H   H70       1.0  0.85390  0.62000  0.20320  1.0000 0.1223503413
H   H71       1.0  0.90960  0.55770  0.11180  1.0000 0.1105594957
H   H72       1.0  0.87480  0.33700  0.18530  1.0000 0.0907324075
H   H73       1.0  0.81580  0.39320  0.27950  1.0000 0.1282102616
H   H74       1.0  0.97830  0.70300  0.38380  1.0000 0.1282102616
H   H75       1.0  0.05610  0.79960  0.44380  1.0000 0.0996190835
H   H76       1.0  0.84380  0.84780  0.54830  1.0000 0.0996190835
H   H77       1.0  0.75880  0.75860  0.48900  1.0000 0.1282102616
H   H78       1.0  0.69310  0.03390  0.17230  1.0000 0.1223503413
H   H79       1.0  0.88430  0.85660  0.18300  1.0000 0.1105594957
H   H80       1.0  0.71840  0.86760  0.02790  1.0000 0.1105594957
H   H81       1.0  0.85390  0.88000  0.29680  1.0000 0.1223503413
H   H82       1.0  0.90960  0.94230  0.38820  1.0000 0.1105594957
H   H83       1.0  0.87480  0.16300  0.31470  1.0000 0.0907324075
H   H84       1.0  0.81580  0.10680  0.22050  1.0000 0.1282102616
H   H85       1.0  0.97830  0.79700  0.11620  1.0000 0.1282102616
H   H86       1.0  0.05610  0.70040  0.05620  1.0000 0.0996190835
H   H87       1.0  0.84380  0.65220  0.95170  1.0000 0.0996190835
H   H88       1.0  0.75880  0.74140  0.01100  1.0000 0.1282102616
C   C1        1.0  0.19330  0.54579  0.09648  1.0000 -0.0123241034
C   C2        1.0  0.22222  0.51290  0.15449  1.0000 -0.1834634046
C   C3        1.0  0.29470  0.54891  0.18691  1.0000 0.0686018735
C   C4        1.0  0.33680  0.61754  0.16031  1.0000 -0.2008975961
C   C5        1.0  0.30973  0.64897  0.10023  1.0000 0.0686018735
C   C6        1.0  0.23740  0.61199  0.06858  1.0000 -0.1922140407
C   C7        1.0  0.11494  0.50853  0.06155  1.0000 0.5511839402
C   C8        1.0  0.32864  0.51290  0.24773  1.0000 0.1105594957
C   C9        1.0  0.35750  0.56163  0.29914  1.0000 -0.2008975961
C   C10       1.0  0.39110  0.52384  0.35321  1.0000 0.0907324075
C   C11       1.0  0.37080  0.39520  0.31069  1.0000 0.0595371606
C   C12       1.0  0.33530  0.42850  0.25427  1.0000 -0.1922140407
C   C13       1.0  0.35860  0.71669  0.06847  1.0000 0.1105594957
C   C14       1.0  0.44920  0.73180  0.08232  1.0000 -0.2008975961
C   C15       1.0  0.49520  0.78932  0.04588  1.0000 0.0595371606
C   C16       1.0  0.37150  0.81791  0.98565  1.0000 0.0686018735
C   C17       1.0  0.32070  0.76385  0.02019  1.0000 -0.2008975961
C   C18       1.0  0.19330  0.95421  0.40352  1.0000 -0.0123241034
C   C19       1.0  0.22222  0.98710  0.34551  1.0000 -0.1834634046
C   C20       1.0  0.29470  0.95109  0.31309  1.0000 0.0686018735
C   C21       1.0  0.33680  0.88246  0.33969  1.0000 -0.2008975961
C   C22       1.0  0.30973  0.85103  0.39977  1.0000 0.0686018735
C   C23       1.0  0.23740  0.88801  0.43142  1.0000 -0.1922140407
C   C24       1.0  0.11494  0.99147  0.43845  1.0000 0.5511839402
C   C25       1.0  0.32864  0.98710  0.25227  1.0000 0.1105594957
C   C26       1.0  0.35750  0.93837  0.20086  1.0000 -0.2008975961
C   C27       1.0  0.39110  0.97616  0.14679  1.0000 0.0907324075
C   C28       1.0  0.37080  0.10480  0.18931  1.0000 0.0595371606
C   C29       1.0  0.33530  0.07150  0.24573  1.0000 -0.1922140407
C   C30       1.0  0.35860  0.78331  0.43153  1.0000 0.1105594957
C   C31       1.0  0.44920  0.76820  0.41768  1.0000 -0.2008975961
C   C32       1.0  0.49520  0.71068  0.45412  1.0000 0.0595371606
C   C33       1.0  0.37150  0.68209  0.51435  1.0000 0.0686018735
C   C34       1.0  0.32070  0.73615  0.47981  1.0000 -0.2008975961
C   C35       1.0  0.30670  0.45421  0.59648  1.0000 -0.0123241034
C   C36       1.0  0.27778  0.48710  0.65449  1.0000 -0.1834634046
C   C37       1.0  0.20530  0.45109  0.68691  1.0000 0.0686018735
C   C38       1.0  0.16320  0.38246  0.66031  1.0000 -0.2008975961
C   C39       1.0  0.19027  0.35103  0.60023  1.0000 0.0686018735
C   C40       1.0  0.26260  0.38801  0.56858  1.0000 -0.1922140407
C   C41       1.0  0.38506  0.49147  0.56155  1.0000 0.5511839402
C   C42       1.0  0.17136  0.48710  0.74773  1.0000 0.1105594957
C   C43       1.0  0.14250  0.43837  0.79914  1.0000 -0.2008975961
C   C44       1.0  0.10890  0.47616  0.85321  1.0000 0.0907324075
C   C45       1.0  0.12920  0.60480  0.81069  1.0000 0.0595371606
C   C46       1.0  0.16470  0.57150  0.75427  1.0000 -0.1922140407
C   C47       1.0  0.14140  0.28331  0.56847  1.0000 0.1105594957
C   C48       1.0  0.05080  0.26820  0.58232  1.0000 -0.2008975961
C   C49       1.0  0.00480  0.21068  0.54588  1.0000 0.0595371606
C   C50       1.0  0.12850  0.18209  0.48565  1.0000 0.0686018735
C   C51       1.0  0.17930  0.23615  0.52019  1.0000 -0.1922140407
C   C52       1.0  0.30670  0.04579  0.90352  1.0000 -0.0123241034
C   C53       1.0  0.27778  0.01290  0.84551  1.0000 -0.1834634046
C   C54       1.0  0.20530  0.04891  0.81309  1.0000 0.0686018735
C   C55       1.0  0.16320  0.11754  0.83969  1.0000 -0.2008975961
C   C56       1.0  0.19027  0.14897  0.89977  1.0000 0.0595371606
C   C57       1.0  0.26260  0.11199  0.93142  1.0000 -0.1922140407
C   C58       1.0  0.38506  0.00853  0.93845  1.0000 0.5511839402
C   C59       1.0  0.17136  0.01290  0.75227  1.0000 0.1105594957
C   C60       1.0  0.14250  0.06163  0.70086  1.0000 -0.2008975961
C   C61       1.0  0.10890  0.02384  0.64679  1.0000 0.0907324075
C   C62       1.0  0.12920  0.89520  0.68931  1.0000 0.0595371606
C   C63       1.0  0.16470  0.92850  0.74573  1.0000 -0.1922140407
C   C64       1.0  0.14140  0.21669  0.93153  1.0000 0.1105594957
C   C65       1.0  0.05080  0.23180  0.91768  1.0000 -0.2008975961
C   C66       1.0  0.00480  0.28932  0.95412  1.0000 0.0595371606
C   C67       1.0  0.12850  0.31791  0.01435  1.0000 0.0686018735
C   C68       1.0  0.17930  0.26385  0.97981  1.0000 -0.1922140407
C   C69       1.0  0.80670  0.45421  0.90352  1.0000 -0.0123241034
C   C70       1.0  0.77778  0.48710  0.84551  1.0000 -0.1834634046
C   C71       1.0  0.70530  0.45109  0.81309  1.0000 0.0686018735
C   C72       1.0  0.66320  0.38246  0.83969  1.0000 -0.2008975961
C   C73       1.0  0.69027  0.35103  0.89977  1.0000 0.0686018735
C   C74       1.0  0.76260  0.38801  0.93142  1.0000 -0.1922140407
C   C75       1.0  0.88506  0.49147  0.93845  1.0000 0.5511839402
C   C76       1.0  0.67136  0.48710  0.75227  1.0000 0.1105594957
C   C77       1.0  0.64250  0.43837  0.70086  1.0000 -0.2008975961
C   C78       1.0  0.60890  0.47616  0.64679  1.0000 0.0907324075
C   C79       1.0  0.62920  0.60480  0.68931  1.0000 0.0595371606
C   C80       1.0  0.66470  0.57150  0.74573  1.0000 -0.1922140407
C   C81       1.0  0.64140  0.28331  0.93153  1.0000 0.1105594957
C   C82       1.0  0.55080  0.26820  0.91768  1.0000 -0.2008975961
C   C83       1.0  0.50480  0.21068  0.95412  1.0000 0.0595371606
C   C84       1.0  0.62850  0.18209  0.01435  1.0000 0.0686018735
C   C85       1.0  0.67930  0.23615  0.97981  1.0000 -0.1922140407
C   C86       1.0  0.80670  0.04579  0.59648  1.0000 -0.0123241034
C   C87       1.0  0.77778  0.01290  0.65449  1.0000 -0.1834634046
C   C88       1.0  0.70530  0.04891  0.68691  1.0000 0.0686018735
C   C89       1.0  0.66320  0.11754  0.66031  1.0000 -0.2008975961
C   C90       1.0  0.69027  0.14897  0.60023  1.0000 0.0595371606
C   C91       1.0  0.76260  0.11199  0.56858  1.0000 -0.1922140407
C   C92       1.0  0.88506  0.00853  0.56155  1.0000 0.5511839402
C   C93       1.0  0.67136  0.01290  0.74773  1.0000 0.1105594957
C   C94       1.0  0.64250  0.06163  0.79914  1.0000 -0.2008975961
C   C95       1.0  0.60890  0.02384  0.85321  1.0000 0.0907324075
C   C96       1.0  0.62920  0.89520  0.81069  1.0000 0.0595371606
C   C97       1.0  0.66470  0.92850  0.75427  1.0000 -0.1922140407
C   C98       1.0  0.64140  0.21669  0.56847  1.0000 0.1105594957
C   C99       1.0  0.55080  0.23180  0.58232  1.0000 -0.2008975961
C   C100      1.0  0.50480  0.28932  0.54588  1.0000 0.0595371606
C   C101      1.0  0.62850  0.31791  0.48565  1.0000 0.0686018735
C   C102      1.0  0.67930  0.26385  0.52019  1.0000 -0.1922140407
C   C103      1.0  0.69330  0.54579  0.40352  1.0000 -0.0123241034
C   C104      1.0  0.72222  0.51290  0.34551  1.0000 -0.1834634046
C   C105      1.0  0.79470  0.54891  0.31309  1.0000 0.0686018735
C   C106      1.0  0.83680  0.61754  0.33969  1.0000 -0.2008975961
C   C107      1.0  0.80973  0.64897  0.39977  1.0000 0.0686018735
C   C108      1.0  0.73740  0.61199  0.43142  1.0000 -0.1922140407
C   C109      1.0  0.61494  0.50853  0.43845  1.0000 0.5511839402
C   C110      1.0  0.82864  0.51290  0.25227  1.0000 0.1105594957
C   C111      1.0  0.85750  0.56163  0.20086  1.0000 -0.2008975961
C   C112      1.0  0.89110  0.52384  0.14679  1.0000 0.0907324075
C   C113      1.0  0.87080  0.39520  0.18931  1.0000 0.0595371606
C   C114      1.0  0.83530  0.42850  0.24573  1.0000 -0.1922140407
C   C115      1.0  0.85860  0.71669  0.43153  1.0000 0.1105594957
C   C116      1.0  0.94920  0.73180  0.41768  1.0000 -0.2008975961
C   C117      1.0  0.99520  0.78932  0.45412  1.0000 0.0595371606
C   C118      1.0  0.87150  0.81791  0.51435  1.0000 0.0686018735
C   C119      1.0  0.82070  0.76385  0.47981  1.0000 -0.2008975961
C   C120      1.0  0.69330  0.95421  0.09648  1.0000 -0.0123241034
C   C121      1.0  0.72222  0.98710  0.15449  1.0000 -0.1834634046
C   C122      1.0  0.79470  0.95109  0.18691  1.0000 0.0686018735
C   C123      1.0  0.83680  0.88246  0.16031  1.0000 -0.2008975961
C   C124      1.0  0.80973  0.85103  0.10023  1.0000 0.0595371606
C   C125      1.0  0.73740  0.88801  0.06858  1.0000 -0.1922140407
C   C126      1.0  0.61494  0.99147  0.06155  1.0000 0.5511839402
C   C127      1.0  0.82864  0.98710  0.24773  1.0000 0.1105594957
C   C128      1.0  0.85750  0.93837  0.29914  1.0000 -0.2008975961
C   C129      1.0  0.89110  0.97616  0.35321  1.0000 0.0907324075
C   C130      1.0  0.87080  0.10480  0.31069  1.0000 0.0595371606
C   C131      1.0  0.83530  0.07150  0.25427  1.0000 -0.1922140407
C   C132      1.0  0.85860  0.78331  0.06847  1.0000 0.1105594957
C   C133      1.0  0.94920  0.76820  0.08232  1.0000 -0.2008975961
C   C134      1.0  0.99520  0.71068  0.04588  1.0000 0.0595371606
C   C135      1.0  0.87150  0.68209  0.98565  1.0000 0.0686018735
C   C136      1.0  0.82070  0.73615  0.02019  1.0000 -0.2008975961
N   N1        1.0  0.39930  0.44231  0.35942  1.0000 -0.2200183595
N   N2        1.0  0.45867  0.83105  0.99703  1.0000 -0.2371377151
N   N3        1.0  0.39930  0.05769  0.14058  1.0000 -0.2200183595
N   N4        1.0  0.45867  0.66895  0.50297  1.0000 -0.2371377151
N   N5        1.0  0.10070  0.55769  0.85942  1.0000 -0.2200183595
N   N6        1.0  0.04133  0.16895  0.49703  1.0000 -0.2371377151
N   N7        1.0  0.10070  0.94231  0.64058  1.0000 -0.2200183595
N   N8        1.0  0.04133  0.33105  0.00297  1.0000 -0.2371377151
N   N9        1.0  0.60070  0.55769  0.64058  1.0000 -0.2200183595
N   N10       1.0  0.54133  0.16895  0.00297  1.0000 -0.2371377151
N   N11       1.0  0.60070  0.94231  0.85942  1.0000 -0.2200183595
N   N12       1.0  0.54133  0.33105  0.49703  1.0000 -0.2371377151
N   N13       1.0  0.89930  0.44231  0.14058  1.0000 -0.2200183595
N   N14       1.0  0.95867  0.83105  0.50297  1.0000 -0.2371377151
N   N15       1.0  0.89930  0.05769  0.35942  1.0000 -0.2200183595
N   N16       1.0  0.95867  0.66895  0.99703  1.0000 -0.2371377151
O   O1        1.0  0.10300  0.52540  0.00356  1.0000 -0.5708473313
O   O2        1.0  0.06781  0.45963  0.09491  1.0000 -0.5283093142
O   O3        1.0  0.10300  0.97460  0.49644  1.0000 -0.5708473313
O   O4        1.0  0.06781  0.04037  0.40509  1.0000 -0.5283093142
O   O5        1.0  0.39700  0.47460  0.50356  1.0000 -0.5708473313
O   O6        1.0  0.43219  0.54037  0.59491  1.0000 -0.5283093142
O   O7        1.0  0.39700  0.02540  0.99644  1.0000 -0.5708473313
O   O8        1.0  0.43219  0.95963  0.90509  1.0000 -0.5283093142
O   O9        1.0  0.89700  0.47460  0.99644  1.0000 -0.5708473313
O   O10       1.0  0.93219  0.54037  0.90509  1.0000 -0.5283093142
O   O11       1.0  0.89700  0.02540  0.50356  1.0000 -0.5708473313
O   O12       1.0  0.93219  0.95963  0.59491  1.0000 -0.5283093142
O   O13       1.0  0.60300  0.52540  0.49644  1.0000 -0.5708473313
O   O14       1.0  0.56781  0.45963  0.40509  1.0000 -0.5283093142
O   O15       1.0  0.60300  0.97460  0.00356  1.0000 -0.5708473313
O   O16       1.0  0.56781  0.04037  0.09491  1.0000 -0.5283093142
