# DDEC6 charges by PACMAN v1.1 (https://github.com/mtap-research/PACMAN-charge/)
data_2020[Cu][mot]3[ASR]1
_chemical_formula_sum              "Cu12 H36 C96 N12 O72"
_cell_length_a       18.4656
_cell_length_b       18.4656
_cell_length_c       18.2863
_cell_angle_alpha    74.2137
_cell_angle_beta     105.786
_cell_angle_gamma    108.488

_symmetry_space_group_name_H-M    "P 1"
_symmetry_Int_Tables_number       1

loop_
  _symmetry_equiv_pos_as_xyz
  'x, y, z'

loop_
  _atom_site_type_symbol
  _atom_site_label
  _atom_site_symmetry_multiplicity
  _atom_site_fract_x
  _atom_site_fract_y
  _atom_site_fract_z
  _atom_site_occupancy
  _atom_site_charge
Cu  Cu1       1.0  0.02197  0.95339  0.06589  1.0000 0.8292411953
Cu  Cu2       1.0  0.05673  0.56015  0.47537  1.0000 0.8616453126
Cu  Cu3       1.0  0.06702  0.52754  0.04666  1.0000 0.8616453126
Cu  Cu4       1.0  0.95339  0.02197  0.43411  1.0000 0.8292411953
Cu  Cu5       1.0  0.56015  0.05673  0.02463  1.0000 0.8616453126
Cu  Cu6       1.0  0.52754  0.06702  0.45334  1.0000 0.8616453126
Cu  Cu7       1.0  0.97803  0.04661  0.93411  1.0000 0.8292411953
Cu  Cu8       1.0  0.94327  0.43985  0.52463  1.0000 0.8616453126
Cu  Cu9       1.0  0.93298  0.47246  0.95334  1.0000 0.8616453126
Cu  Cu10      1.0  0.04661  0.97803  0.56589  1.0000 0.8292411953
Cu  Cu11      1.0  0.43985  0.94327  0.97537  1.0000 0.8616453126
Cu  Cu12      1.0  0.47246  0.93298  0.54666  1.0000 0.8616453126
H   H1        1.0  0.01760  0.76460  0.97330  1.0000 0.148160976
H   H2        1.0  0.02840  0.48900  0.76300  1.0000 0.148160976
H   H3        1.0  0.98210  0.82330  0.70520  1.0000 0.1416795623
H   H4        1.0  0.26040  0.02580  0.01450  1.0000 0.148160976
H   H5        1.0  0.99770  0.91790  0.77120  1.0000 0.1311046049
H   H6        1.0  0.29130  0.49650  0.83300  1.0000 0.1416795623
H   H7        1.0  0.22290  0.49050  0.92380  1.0000 0.148160976
H   H8        1.0  0.42620  0.22360  0.98730  1.0000 0.1416795623
H   H9        1.0  0.34130  0.29270  0.99210  1.0000 0.1416795623
H   H10       1.0  0.76460  0.01760  0.52670  1.0000 0.148160976
H   H11       1.0  0.48900  0.02840  0.73700  1.0000 0.148160976
H   H12       1.0  0.82330  0.98210  0.79480  1.0000 0.1416795623
H   H13       1.0  0.02580  0.26040  0.48550  1.0000 0.148160976
H   H14       1.0  0.91790  0.99770  0.72880  1.0000 0.1311046049
H   H15       1.0  0.49650  0.29130  0.66700  1.0000 0.1416795623
H   H16       1.0  0.49050  0.22290  0.57620  1.0000 0.148160976
H   H17       1.0  0.22360  0.42620  0.51270  1.0000 0.1416795623
H   H18       1.0  0.29270  0.34130  0.50790  1.0000 0.1416795623
H   H19       1.0  0.98240  0.23540  0.02670  1.0000 0.148160976
H   H20       1.0  0.97160  0.51100  0.23700  1.0000 0.148160976
H   H21       1.0  0.01790  0.17670  0.29480  1.0000 0.1416795623
H   H22       1.0  0.73960  0.97420  0.98550  1.0000 0.148160976
H   H23       1.0  0.00230  0.08210  0.22880  1.0000 0.1311046049
H   H24       1.0  0.70870  0.50350  0.16700  1.0000 0.1416795623
H   H25       1.0  0.77710  0.50950  0.07620  1.0000 0.148160976
H   H26       1.0  0.57380  0.77640  0.01270  1.0000 0.1416795623
H   H27       1.0  0.65870  0.70730  0.00790  1.0000 0.1416795623
H   H28       1.0  0.23540  0.98240  0.47330  1.0000 0.148160976
H   H29       1.0  0.51100  0.97160  0.26300  1.0000 0.148160976
H   H30       1.0  0.17670  0.01790  0.20520  1.0000 0.1416795623
H   H31       1.0  0.97420  0.73960  0.51450  1.0000 0.148160976
H   H32       1.0  0.08210  0.00230  0.27120  1.0000 0.1311046049
H   H33       1.0  0.50350  0.70870  0.33300  1.0000 0.1416795623
H   H34       1.0  0.50950  0.77710  0.42380  1.0000 0.148160976
H   H35       1.0  0.77640  0.57380  0.48730  1.0000 0.1416795623
H   H36       1.0  0.70730  0.65870  0.49210  1.0000 0.1416795623
C   C1        1.0  0.01067  0.77603  0.91950  1.0000 -0.0802157511
C   C2        1.0  0.14042  0.07478  0.00350  1.0000 0.5817930714
C   C3        1.0  0.00906  0.90924  0.92280  1.0000 0.5817930714
C   C4        1.0  0.07581  0.50039  0.63720  1.0000 0.5990046129
C   C5        1.0  0.00360  0.63720  0.92590  1.0000 0.5929936111
C   C6        1.0  0.08126  0.49134  0.77610  1.0000 -0.0802157511
C   C7        1.0  0.07611  0.48969  0.91080  1.0000 0.5929936111
C   C8        1.0  0.99020  0.81180  0.75910  1.0000 -0.1407782867
C   C9        1.0  0.00666  0.84974  0.87960  1.0000 0.0013243636
C   C10       1.0  0.40828  0.07372  0.00510  1.0000 0.5990046129
C   C11       1.0  0.27592  0.07988  0.00730  1.0000 -0.0802157511
C   C12       1.0  0.00444  0.71796  0.88090  1.0000 -0.0517492876
C   C13       1.0  0.11929  0.49631  0.71910  1.0000 -0.0621603402
C   C14       1.0  0.35265  0.11895  0.00200  1.0000 -0.0076726864
C   C15       1.0  0.11988  0.48972  0.85210  1.0000 -0.0076726864
C   C16       1.0  0.99802  0.86738  0.79840  1.0000 -0.0802157511
C   C17       1.0  0.99440  0.73860  0.80000  1.0000 0.0472154688
C   C18       1.0  0.22241  0.11919  0.00230  1.0000 -0.0703149218
C   C19       1.0  0.23880  0.49600  0.81860  1.0000 -0.1407782867
C   C20       1.0  0.19900  0.49960  0.74160  1.0000 0.0641077325
C   C21       1.0  0.19749  0.49191  0.87220  1.0000 -0.0621603402
C   C22       1.0  0.37540  0.19700  0.99320  1.0000 -0.0621603402
C   C23       1.0  0.24980  0.20060  0.99380  1.0000 0.0641077325
C   C24       1.0  0.32410  0.23950  0.99290  1.0000 -0.1223744567
C   C25       1.0  0.77603  0.01067  0.58050  1.0000 -0.0802157511
C   C26       1.0  0.07478  0.14042  0.49650  1.0000 0.5817930714
C   C27       1.0  0.90924  0.00906  0.57720  1.0000 0.5817930714
C   C28       1.0  0.50039  0.07581  0.86280  1.0000 0.5990046129
C   C29       1.0  0.63720  0.00360  0.57410  1.0000 0.5929936111
C   C30       1.0  0.49134  0.08126  0.72390  1.0000 -0.0802157511
C   C31       1.0  0.48969  0.07611  0.58920  1.0000 0.5929936111
C   C32       1.0  0.81180  0.99020  0.74090  1.0000 -0.1407782867
C   C33       1.0  0.84974  0.00666  0.62040  1.0000 0.0013243636
C   C34       1.0  0.07372  0.40828  0.49490  1.0000 0.5990046129
C   C35       1.0  0.07988  0.27592  0.49270  1.0000 -0.0802157511
C   C36       1.0  0.71796  0.00444  0.61910  1.0000 -0.0517492876
C   C37       1.0  0.49631  0.11929  0.78090  1.0000 -0.0621603402
C   C38       1.0  0.11895  0.35265  0.49800  1.0000 -0.0076726864
C   C39       1.0  0.48972  0.11988  0.64790  1.0000 -0.0076726864
C   C40       1.0  0.86738  0.99802  0.70160  1.0000 -0.0802157511
C   C41       1.0  0.73860  0.99440  0.70000  1.0000 0.0472154688
C   C42       1.0  0.11919  0.22241  0.49770  1.0000 -0.0703149218
C   C43       1.0  0.49600  0.23880  0.68140  1.0000 -0.1407782867
C   C44       1.0  0.49960  0.19900  0.75840  1.0000 0.0641077325
C   C45       1.0  0.49191  0.19749  0.62780  1.0000 -0.0621603402
C   C46       1.0  0.19700  0.37540  0.50680  1.0000 -0.0621603402
C   C47       1.0  0.20060  0.24980  0.50620  1.0000 0.0641077325
C   C48       1.0  0.23950  0.32410  0.50710  1.0000 -0.1223744567
C   C49       1.0  0.98933  0.22397  0.08050  1.0000 -0.0802157511
C   C50       1.0  0.85958  0.92522  0.99650  1.0000 0.5817930714
C   C51       1.0  0.99094  0.09076  0.07720  1.0000 0.5817930714
C   C52       1.0  0.92419  0.49961  0.36280  1.0000 0.5990046129
C   C53       1.0  0.99640  0.36280  0.07410  1.0000 0.5929936111
C   C54       1.0  0.91874  0.50866  0.22390  1.0000 -0.0802157511
C   C55       1.0  0.92389  0.51031  0.08920  1.0000 0.5929936111
C   C56       1.0  0.00980  0.18820  0.24090  1.0000 -0.1407782867
C   C57       1.0  0.99334  0.15026  0.12040  1.0000 0.0013243636
C   C58       1.0  0.59172  0.92628  0.99490  1.0000 0.5990046129
C   C59       1.0  0.72408  0.92012  0.99270  1.0000 -0.0802157511
C   C60       1.0  0.99556  0.28204  0.11910  1.0000 -0.0517492876
C   C61       1.0  0.88071  0.50369  0.28090  1.0000 -0.0621603402
C   C62       1.0  0.64735  0.88105  0.99800  1.0000 -0.0076726864
C   C63       1.0  0.88012  0.51028  0.14790  1.0000 -0.0076726864
C   C64       1.0  0.00198  0.13262  0.20160  1.0000 -0.0802157511
C   C65       1.0  0.00560  0.26140  0.20000  1.0000 0.0472154688
C   C66       1.0  0.77759  0.88081  0.99770  1.0000 -0.0703149218
C   C67       1.0  0.76120  0.50400  0.18140  1.0000 -0.1407782867
C   C68       1.0  0.80100  0.50040  0.25840  1.0000 0.0656358391
C   C69       1.0  0.80251  0.50809  0.12780  1.0000 -0.0621603402
C   C70       1.0  0.62460  0.80300  0.00680  1.0000 -0.0621603402
C   C71       1.0  0.75020  0.79940  0.00620  1.0000 0.0641077325
C   C72       1.0  0.67590  0.76050  0.00710  1.0000 -0.1223744567
C   C73       1.0  0.22397  0.98933  0.41950  1.0000 -0.0802157511
C   C74       1.0  0.92522  0.85958  0.50350  1.0000 0.5817930714
C   C75       1.0  0.09076  0.99094  0.42280  1.0000 0.5817930714
C   C76       1.0  0.49961  0.92419  0.13720  1.0000 0.5990046129
C   C77       1.0  0.36280  0.99640  0.42590  1.0000 0.5929936111
C   C78       1.0  0.50866  0.91874  0.27610  1.0000 -0.0802157511
C   C79       1.0  0.51031  0.92389  0.41080  1.0000 0.5929936111
C   C80       1.0  0.18820  0.00980  0.25910  1.0000 -0.1407782867
C   C81       1.0  0.15026  0.99334  0.37960  1.0000 0.0013243636
C   C82       1.0  0.92628  0.59172  0.50510  1.0000 0.5990046129
C   C83       1.0  0.92012  0.72408  0.50730  1.0000 -0.0802157511
C   C84       1.0  0.28204  0.99556  0.38090  1.0000 -0.0517492876
C   C85       1.0  0.50369  0.88071  0.21910  1.0000 -0.0621603402
C   C86       1.0  0.88105  0.64735  0.50200  1.0000 -0.0076726864
C   C87       1.0  0.51028  0.88012  0.35210  1.0000 -0.0076726864
C   C88       1.0  0.13262  0.00198  0.29840  1.0000 -0.0802157511
C   C89       1.0  0.26140  0.00560  0.30000  1.0000 0.0472154688
C   C90       1.0  0.88081  0.77759  0.50230  1.0000 -0.0703149218
C   C91       1.0  0.50400  0.76120  0.31860  1.0000 -0.1407782867
C   C92       1.0  0.50040  0.80100  0.24160  1.0000 0.0656358391
C   C93       1.0  0.50809  0.80251  0.37220  1.0000 -0.0621603402
C   C94       1.0  0.80300  0.62460  0.49320  1.0000 -0.0621603402
C   C95       1.0  0.79940  0.75020  0.49380  1.0000 0.0641077325
C   C96       1.0  0.76050  0.67590  0.49290  1.0000 -0.1223744567
N   N1        1.0  0.98760  0.67960  0.75700  1.0000 0.5012720466
N   N2        1.0  0.24370  0.50110  0.68530  1.0000 0.5012720466
N   N3        1.0  0.19120  0.24220  0.99120  1.0000 0.518398577
N   N4        1.0  0.67960  0.98760  0.74300  1.0000 0.5012720466
N   N5        1.0  0.50110  0.24370  0.81470  1.0000 0.5012720466
N   N6        1.0  0.24220  0.19120  0.50880  1.0000 0.518398577
N   N7        1.0  0.01240  0.32040  0.24300  1.0000 0.5012720466
N   N8        1.0  0.75630  0.49890  0.31470  1.0000 0.5012720466
N   N9        1.0  0.80880  0.75780  0.00880  1.0000 0.518398577
N   N10       1.0  0.32040  0.01240  0.25700  1.0000 0.5012720466
N   N11       1.0  0.49890  0.75630  0.18530  1.0000 0.5012720466
N   N12       1.0  0.75780  0.80880  0.49120  1.0000 0.518398577
O   O1        1.0  0.02792  0.89180  0.99563  1.0000 -0.5185117602
O   O2        1.0  0.99018  0.97026  0.88345  1.0000 -0.5185117602
O   O3        1.0  0.47957  0.10453  0.02516  1.0000 -0.5185117602
O   O4        1.0  0.11610  0.51436  0.97026  1.0000 -0.5107068429
O   O5        1.0  0.05944  0.63100  0.98266  1.0000 -0.500504002
O   O6        1.0  0.00292  0.46670  0.89314  1.0000 -0.5185117602
O   O7        1.0  0.12815  0.01855  0.05787  1.0000 -0.492468263
O   O8        1.0  0.09086  0.09748  0.94745  1.0000 -0.492468263
O   O9        1.0  0.94666  0.58398  0.90445  1.0000 -0.5107068429
O   O10       1.0  0.10674  0.55232  0.58594  1.0000 -0.5107068429
O   O11       1.0  0.37855  0.00797  0.98580  1.0000 -0.5279807955
O   O12       1.0  0.03390  0.63950  0.78240  1.0000 -0.3123616351
O   O13       1.0  0.00965  0.45139  0.62678  1.0000 -0.5185117602
O   O14       1.0  0.93960  0.67340  0.69940  1.0000 -0.2971207038
O   O15       1.0  0.21400  0.45400  0.64160  1.0000 -0.3123616351
O   O16       1.0  0.14980  0.21820  0.03680  1.0000 -0.3123616351
O   O17       1.0  0.30740  0.54020  0.68660  1.0000 -0.2811860129
O   O18       1.0  0.19260  0.30200  0.93720  1.0000 -0.3839683145
O   O19       1.0  0.89180  0.02792  0.50437  1.0000 -0.5185117602
O   O20       1.0  0.97026  0.99018  0.61655  1.0000 -0.5185117602
O   O21       1.0  0.10453  0.47957  0.47484  1.0000 -0.5185117602
O   O22       1.0  0.51436  0.11610  0.52974  1.0000 -0.5107068429
O   O23       1.0  0.63100  0.05944  0.51734  1.0000 -0.500504002
O   O24       1.0  0.46670  0.00292  0.60686  1.0000 -0.5185117602
O   O25       1.0  0.01855  0.12815  0.44213  1.0000 -0.492468263
O   O26       1.0  0.09748  0.09086  0.55255  1.0000 -0.492468263
O   O27       1.0  0.58398  0.94666  0.59555  1.0000 -0.5107068429
O   O28       1.0  0.55232  0.10674  0.91406  1.0000 -0.5107068429
O   O29       1.0  0.00797  0.37855  0.51420  1.0000 -0.5279807955
O   O30       1.0  0.63950  0.03390  0.71760  1.0000 -0.3123616351
O   O31       1.0  0.45139  0.00965  0.87322  1.0000 -0.5185117602
O   O32       1.0  0.67340  0.93960  0.80060  1.0000 -0.2971207038
O   O33       1.0  0.45400  0.21400  0.85840  1.0000 -0.3159177512
O   O34       1.0  0.21820  0.14980  0.46320  1.0000 -0.3123616351
O   O35       1.0  0.54020  0.30740  0.81340  1.0000 -0.2811860129
O   O36       1.0  0.30200  0.19260  0.56280  1.0000 -0.3839683145
O   O37       1.0  0.97208  0.10820  0.00437  1.0000 -0.5185117602
O   O38       1.0  0.00982  0.02974  0.11655  1.0000 -0.5185117602
O   O39       1.0  0.52043  0.89547  0.97484  1.0000 -0.5185117602
O   O40       1.0  0.88390  0.48564  0.02974  1.0000 -0.5107068429
O   O41       1.0  0.94056  0.36900  0.01734  1.0000 -0.500504002
O   O42       1.0  0.99708  0.53330  0.10686  1.0000 -0.5185117602
O   O43       1.0  0.87185  0.98145  0.94213  1.0000 -0.492468263
O   O44       1.0  0.90914  0.90252  0.05255  1.0000 -0.492468263
O   O45       1.0  0.05334  0.41602  0.09555  1.0000 -0.5107068429
O   O46       1.0  0.89326  0.44768  0.41406  1.0000 -0.5107068429
O   O47       1.0  0.62145  0.99203  0.01420  1.0000 -0.5279807955
O   O48       1.0  0.96610  0.36050  0.21760  1.0000 -0.3123616351
O   O49       1.0  0.99035  0.54861  0.37322  1.0000 -0.5185117602
O   O50       1.0  0.06040  0.32660  0.30060  1.0000 -0.2971207038
O   O51       1.0  0.78600  0.54600  0.35840  1.0000 -0.3123616351
O   O52       1.0  0.85020  0.78180  0.96320  1.0000 -0.3123616351
O   O53       1.0  0.69260  0.45980  0.31340  1.0000 -0.2811860129
O   O54       1.0  0.80740  0.69800  0.06280  1.0000 -0.3839683145
O   O55       1.0  0.10820  0.97208  0.49563  1.0000 -0.5185117602
O   O56       1.0  0.02974  0.00982  0.38345  1.0000 -0.5185117602
O   O57       1.0  0.89547  0.52043  0.52516  1.0000 -0.5185117602
O   O58       1.0  0.48564  0.88390  0.47026  1.0000 -0.5107068429
O   O59       1.0  0.36900  0.94056  0.48266  1.0000 -0.500504002
O   O60       1.0  0.53330  0.99708  0.39314  1.0000 -0.5185117602
O   O61       1.0  0.98145  0.87185  0.55787  1.0000 -0.492468263
O   O62       1.0  0.90252  0.90914  0.44745  1.0000 -0.500504002
O   O63       1.0  0.41602  0.05334  0.40445  1.0000 -0.5107068429
O   O64       1.0  0.44768  0.89326  0.08594  1.0000 -0.5107068429
O   O65       1.0  0.99203  0.62145  0.48580  1.0000 -0.5279807955
O   O66       1.0  0.36050  0.96610  0.28240  1.0000 -0.3123616351
O   O67       1.0  0.54861  0.99035  0.12678  1.0000 -0.5185117602
O   O68       1.0  0.32660  0.06040  0.19940  1.0000 -0.2971207038
O   O69       1.0  0.54600  0.78600  0.14160  1.0000 -0.3123616351
O   O70       1.0  0.78180  0.85020  0.53680  1.0000 -0.3123616351
O   O71       1.0  0.45980  0.69260  0.18660  1.0000 -0.2811860129
O   O72       1.0  0.69800  0.80740  0.43720  1.0000 -0.3839683145
