# DDEC6 charges by PACMAN v1.1 (https://github.com/mtap-research/PACMAN-charge/)
data_2020[Cd][sql]2[ASR]11
_chemical_formula_sum              "Cd2 H36 C52 N12 O10"
_cell_length_a       9.716
_cell_length_b       12.042
_cell_length_c       15.425
_cell_angle_alpha    76.83
_cell_angle_beta     81.98
_cell_angle_gamma    87.75

_symmetry_space_group_name_H-M    "P 1"
_symmetry_Int_Tables_number       1

loop_
  _symmetry_equiv_pos_as_xyz
  'x, y, z'

loop_
  _atom_site_type_symbol
  _atom_site_label
  _atom_site_symmetry_multiplicity
  _atom_site_fract_x
  _atom_site_fract_y
  _atom_site_fract_z
  _atom_site_occupancy
  _atom_site_charge
Cd  Cd1       1.0  0.61355  0.07013  0.06779  1.0000 0.8509260792
Cd  Cd2       1.0  0.38645  0.92987  0.93221  1.0000 0.8509260792
H   H1        1.0  0.19646  0.70549  0.99481  1.0000 0.2821579951
H   H2        1.0  0.29581  0.60756  0.99959  1.0000 0.2587802487
H   H3        1.0  0.66769  0.83462  0.18949  1.0000 0.108560401
H   H4        1.0  0.88570  0.95780  0.95923  1.0000 0.1042899045
H   H5        1.0  0.01351  0.79229  0.96592  1.0000 0.1395561217
H   H6        1.0  0.78455  0.66567  0.20297  1.0000 0.1395561217
H   H7        1.0  0.17407  0.26087  0.20347  1.0000 0.1395561217
H   H8        1.0  0.34603  0.12864  0.18589  1.0000 0.108560401
H   H9        1.0  0.50957  0.31735  0.95967  1.0000 0.108560401
H   H10       1.0  0.34295  0.45667  0.96869  1.0000 0.1304075667
H   H11       1.0  0.56493  0.12246  0.73345  1.0000 0.1212662337
H   H12       1.0  0.66492  0.13458  0.58670  1.0000 0.1304075667
H   H13       1.0  0.04191  0.12136  0.66478  1.0000 0.1395561217
H   H14       1.0  0.94158  0.12482  0.80866  1.0000 0.1212662337
H   H15       1.0  0.66023  0.97802  0.38277  1.0000 0.1212662337
H   H16       1.0  0.88878  0.24466  0.24444  1.0000 0.1304075667
H   H17       1.0  0.97846  0.25680  0.37337  1.0000 0.1395561217
H   H18       1.0  0.75616  0.98549  0.51033  1.0000 0.1304075667
H   H19       1.0  0.80354  0.29451  0.00519  1.0000 0.2821579951
H   H20       1.0  0.70419  0.39244  0.00041  1.0000 0.2587802487
H   H21       1.0  0.33231  0.16538  0.81051  1.0000 0.108560401
H   H22       1.0  0.11430  0.04220  0.04077  1.0000 0.1042899045
H   H23       1.0  0.98649  0.20771  0.03408  1.0000 0.1395561217
H   H24       1.0  0.21545  0.33433  0.79703  1.0000 0.1395561217
H   H25       1.0  0.82593  0.73913  0.79653  1.0000 0.1395561217
H   H26       1.0  0.65397  0.87136  0.81411  1.0000 0.108560401
H   H27       1.0  0.49043  0.68265  0.04033  1.0000 0.108560401
H   H28       1.0  0.65705  0.54333  0.03131  1.0000 0.1304075667
H   H29       1.0  0.43507  0.87754  0.26655  1.0000 0.1212662337
H   H30       1.0  0.33508  0.86542  0.41330  1.0000 0.1304075667
H   H31       1.0  0.95809  0.87864  0.33522  1.0000 0.1395561217
H   H32       1.0  0.05842  0.87518  0.19134  1.0000 0.1212662337
H   H33       1.0  0.33977  0.02198  0.61723  1.0000 0.1212662337
H   H34       1.0  0.11122  0.75534  0.75556  1.0000 0.1304075667
H   H35       1.0  0.02154  0.74320  0.62663  1.0000 0.1395561217
H   H36       1.0  0.24384  0.01451  0.48967  1.0000 0.1395561217
C   C1        1.0  0.73680  0.82530  0.14340  1.0000 0.0802710034
C   C2        1.0  0.86500  0.89750  0.00860  1.0000 0.0718257095
C   C3        1.0  0.94230  0.79820  0.01170  1.0000 -0.1776916605
C   C4        1.0  0.80660  0.72380  0.15220  1.0000 -0.1734572125
C   C5        1.0  0.91120  0.70770  0.08470  1.0000 0.0802710034
C   C6        1.0  0.97460  0.59310  0.09480  1.0000 0.1586832854
C   C7        1.0  0.11540  0.44960  0.09580  1.0000 0.153763749
C   C8        1.0  0.23610  0.37350  0.08590  1.0000 0.0802710034
C   C9        1.0  0.24040  0.27410  0.15270  1.0000 -0.1734572125
C   C10       1.0  0.34510  0.19560  0.14180  1.0000 0.0876172523
C   C11       1.0  0.44090  0.30610  0.00920  1.0000 0.0718257095
C   C12       1.0  0.34030  0.39020  0.01360  1.0000 -0.1994842934
C   C13       1.0  0.67950  0.11480  0.88120  1.0000 0.5511021692
C   C14       1.0  0.74280  0.12100  0.78620  1.0000 -0.0520638672
C   C15       1.0  0.66120  0.12410  0.71940  1.0000 -0.0810971593
C   C16       1.0  0.72090  0.12970  0.63170  1.0000 -0.2137370889
C   C17       1.0  0.86270  0.12800  0.61140  1.0000 0.2587802487
C   C18       1.0  0.94570  0.12390  0.67830  1.0000 -0.1994842934
C   C19       1.0  0.88570  0.12350  0.76460  1.0000 -0.0958633047
C   C20       1.0  0.87030  0.12600  0.45490  1.0000 0.2415877435
C   C21       1.0  0.70810  0.10380  0.21690  1.0000 0.5511021692
C   C22       1.0  0.76500  0.11180  0.30070  1.0000 -0.0395650339
C   C23       1.0  0.72460  0.03400  0.38070  1.0000 -0.0941616965
C   C24       1.0  0.85990  0.19350  0.29840  1.0000 -0.0810971593
C   C25       1.0  0.91360  0.20110  0.37550  1.0000 -0.1994842934
C   C26       1.0  0.77990  0.03970  0.45730  1.0000 -0.2137370889
C   C27       1.0  0.26320  0.17470  0.85660  1.0000 0.0802710034
C   C28       1.0  0.13500  0.10250  0.99140  1.0000 0.0718257095
C   C29       1.0  0.05770  0.20180  0.98830  1.0000 -0.1776916605
C   C30       1.0  0.19340  0.27620  0.84780  1.0000 -0.1734572125
C   C31       1.0  0.08880  0.29230  0.91530  1.0000 0.0802710034
C   C32       1.0  0.02540  0.40690  0.90520  1.0000 0.1586832854
C   C33       1.0  0.88460  0.55040  0.90420  1.0000 0.153763749
C   C34       1.0  0.76390  0.62650  0.91410  1.0000 0.0802710034
C   C35       1.0  0.75960  0.72590  0.84730  1.0000 -0.1734572125
C   C36       1.0  0.65490  0.80440  0.85820  1.0000 0.0876172523
C   C37       1.0  0.55910  0.69390  0.99080  1.0000 0.0718257095
C   C38       1.0  0.65970  0.60980  0.98640  1.0000 -0.1994842934
C   C39       1.0  0.32050  0.88520  0.11880  1.0000 0.5511021692
C   C40       1.0  0.25720  0.87900  0.21380  1.0000 -0.0520638672
C   C41       1.0  0.33880  0.87590  0.28060  1.0000 -0.0810971593
C   C42       1.0  0.27910  0.87030  0.36830  1.0000 -0.2137370889
C   C43       1.0  0.13730  0.87200  0.38860  1.0000 0.2587802487
C   C44       1.0  0.05430  0.87610  0.32170  1.0000 -0.1994842934
C   C45       1.0  0.11430  0.87650  0.23540  1.0000 -0.0958633047
C   C46       1.0  0.12970  0.87400  0.54510  1.0000 0.2415877435
C   C47       1.0  0.29190  0.89620  0.78310  1.0000 0.5511021692
C   C48       1.0  0.23500  0.88820  0.69930  1.0000 -0.0395650339
C   C49       1.0  0.27540  0.96600  0.61930  1.0000 -0.0941616965
C   C50       1.0  0.14010  0.80650  0.70160  1.0000 -0.0810971593
C   C51       1.0  0.08640  0.79890  0.62450  1.0000 -0.1994842934
C   C52       1.0  0.22010  0.96030  0.54270  1.0000 -0.2137370889
N   N1        1.0  0.76230  0.91180  0.07240  1.0000 -0.2284929191
N   N2        1.0  0.90670  0.50190  0.14060  1.0000 -0.2626090121
N   N3        1.0  0.99630  0.41040  0.14110  1.0000 -0.2507213128
N   N4        1.0  0.10630  0.56410  0.06320  1.0000 0.0876172523
N   N5        1.0  0.21430  0.63400  0.01270  1.0000 -0.4721856934
N   N6        1.0  0.44440  0.21020  0.07200  1.0000 -0.2284929191
N   N7        1.0  0.23770  0.08820  0.92760  1.0000 -0.2284929191
N   N8        1.0  0.09330  0.49810  0.85940  1.0000 -0.2626090121
N   N9        1.0  0.00370  0.58960  0.85890  1.0000 -0.2507213128
N   N10       1.0  0.89370  0.43590  0.93680  1.0000 0.0876172523
N   N11       1.0  0.78570  0.36600  0.98730  1.0000 -0.4721856934
N   N12       1.0  0.55560  0.78980  0.92800  1.0000 -0.2284929191
O   O1        1.0  0.61080  0.03600  0.22268  1.0000 -0.5565190536
O   O2        1.0  0.76070  0.16420  0.14227  1.0000 -0.550816707
O   O3        1.0  0.56320  0.06830  0.91040  1.0000 -0.5714107377
O   O4        1.0  0.74740  0.15220  0.93191  1.0000 -0.550816707
O   O5        1.0  0.93500  0.13580  0.52760  1.0000 -0.2178911564
O   O6        1.0  0.38920  0.96400  0.77732  1.0000 -0.5565190536
O   O7        1.0  0.23930  0.83580  0.85773  1.0000 -0.550816707
O   O8        1.0  0.43680  0.93170  0.08960  1.0000 -0.5714107377
O   O9        1.0  0.25260  0.84780  0.06809  1.0000 -0.550816707
O   O10       1.0  0.06500  0.86420  0.47240  1.0000 -0.2178911564
