# DDEC6 charges by PACMAN v1.1 (https://github.com/mtap-research/PACMAN-charge/)
data_2020[Eu][sql]2[ASR]2
_chemical_formula_sum              "Eu8 H144 C168 O72"
_cell_length_a       18.163
_cell_length_b       19.105
_cell_length_c       22.666
_cell_angle_alpha    112.166
_cell_angle_beta     113.432
_cell_angle_gamma    83.37

_symmetry_space_group_name_H-M    "P 1"
_symmetry_Int_Tables_number       1

loop_
  _symmetry_equiv_pos_as_xyz
  'x, y, z'

loop_
  _atom_site_type_symbol
  _atom_site_label
  _atom_site_symmetry_multiplicity
  _atom_site_fract_x
  _atom_site_fract_y
  _atom_site_fract_z
  _atom_site_occupancy
  _atom_site_charge
Eu  Eu1       1.0  0.95575  0.90399  0.49940  1.0000 2.0060267985
Eu  Eu2       1.0  0.10511  0.03722  0.00140  1.0000 2.0429444851
Eu  Eu3       1.0  0.45253  0.40504  0.40993  1.0000 2.0060267985
Eu  Eu4       1.0  0.39633  0.46097  0.90951  1.0000 2.0221348346
Eu  Eu5       1.0  0.04425  0.09601  0.50060  1.0000 2.0060267985
Eu  Eu6       1.0  0.89489  0.96278  0.99860  1.0000 2.0429444851
Eu  Eu7       1.0  0.54747  0.59496  0.59007  1.0000 2.0060267985
Eu  Eu8       1.0  0.60367  0.53903  0.09049  1.0000 2.0221348346
H   H1        1.0  0.37317  0.49533  0.59654  1.0000 0.1326034812
H   H2        1.0  0.50592  0.35142  0.73175  1.0000 0.1397902292
H   H3        1.0  0.60999  0.31002  0.56930  1.0000 0.1092295817
H   H4        1.0  0.65433  0.27889  0.62881  1.0000 0.0994172065
H   H5        1.0  0.69150  0.43590  0.68733  1.0000 0.1092295817
H   H6        1.0  0.72773  0.30150  0.59240  1.0000 0.1202375105
H   H7        1.0  0.78806  0.37623  0.63540  1.0000 0.1505938514
H   H8        1.0  0.25874  0.52470  0.60600  1.0000 0.0994172065
H   H9        1.0  0.30618  0.60125  0.65941  1.0000 0.1202375105
H   H10       1.0  0.15074  0.61087  0.63453  1.0000 0.0994172065
H   H11       1.0  0.26669  0.56943  0.74508  1.0000 0.2074040414
H   H12       1.0  0.18215  0.60569  0.74843  1.0000 0.1397902292
H   H13       1.0  0.11111  0.76031  0.90697  1.0000 0.1202375105
H   H14       1.0  0.38891  0.73912  0.99000  1.0000 0.1326034812
H   H15       1.0  0.45029  0.85980  0.99425  1.0000 0.1092295817
H   H16       1.0  0.45759  0.83931  0.05737  1.0000 0.0994172065
H   H17       1.0  0.53369  0.96342  0.12423  1.0000 0.0994172065
H   H18       1.0  0.38652  0.97018  0.01389  1.0000 0.159135224
H   H19       1.0  0.44191  0.04600  0.06961  1.0000 0.1505938514
H   H20       1.0  0.04829  0.63111  0.79346  1.0000 0.1092295817
H   H21       1.0  0.03952  0.66041  0.86506  1.0000 0.0994172065
H   H22       1.0  0.96418  0.53794  0.81596  1.0000 0.0994172065
H   H23       1.0  0.10686  0.52138  0.78693  1.0000 0.1505938514
H   H24       1.0  0.05031  0.44848  0.76535  1.0000 0.1505938514
H   H25       1.0  0.75552  0.11905  0.41924  1.0000 0.1202375105
H   H26       1.0  0.73876  0.38100  0.48712  1.0000 0.1326034812
H   H27       1.0  0.86029  0.44197  0.56671  1.0000 0.1092295817
H   H28       1.0  0.85176  0.42212  0.49022  1.0000 0.093354942
H   H29       1.0  0.01967  0.44915  0.57282  1.0000 0.1202375105
H   H30       1.0  0.87469  0.53128  0.54774  1.0000 0.1326034812
H   H31       1.0  0.96227  0.57221  0.57604  1.0000 0.1505938514
H   H32       1.0  0.63765  0.05918  0.37971  1.0000 0.1092295817
H   H33       1.0  0.65892  0.08044  0.32785  1.0000 0.0994172065
H   H34       1.0  0.49566  0.03092  0.26021  1.0000 0.1202375105
H   H35       1.0  0.65215  0.97114  0.30410  1.0000 0.1397902292
H   H36       1.0  0.57548  0.91904  0.24041  1.0000 0.1505938514
H   H37       1.0  0.66505  0.49176  0.77491  1.0000 0.1202375105
H   H38       1.0  0.50512  0.61192  0.89908  1.0000 0.1397902292
H   H39       1.0  0.44969  0.70618  0.87617  1.0000 0.0994172065
H   H40       1.0  0.38334  0.64632  0.81551  1.0000 0.1092295817
H   H41       1.0  0.33835  0.78651  0.83292  1.0000 0.093354942
H   H42       1.0  0.40811  0.69920  0.73528  1.0000 0.1907860876
H   H43       1.0  0.35048  0.76899  0.72466  1.0000 0.1397902292
H   H44       1.0  0.79064  0.42738  0.85771  1.0000 0.1092295817
H   H45       1.0  0.71321  0.38463  0.79487  1.0000 0.0994172065
H   H46       1.0  0.76305  0.27257  0.82774  1.0000 0.1092295817
H   H47       1.0  0.80698  0.41110  0.94607  1.0000 0.1397902292
H   H48       1.0  0.83322  0.32947  0.95353  1.0000 0.1505938514
H   H49       1.0  0.13405  0.01092  0.68537  1.0000 0.1326034812
H   H50       1.0  0.98799  0.14342  0.81929  1.0000 0.1326034812
H   H51       1.0  0.83164  0.16154  0.68315  1.0000 0.0994172065
H   H52       1.0  0.87530  0.08823  0.65663  1.0000 0.093354942
H   H53       1.0  0.83261  0.15861  0.55993  1.0000 0.1092295817
H   H54       1.0  0.76003  0.07346  0.60459  1.0000 0.1202375105
H   H55       1.0  0.71955  0.07633  0.52731  1.0000 0.1505938514
H   H56       1.0  0.24970  0.99042  0.75104  1.0000 0.0994172065
H   H57       1.0  0.21266  0.90887  0.72607  1.0000 0.1202375105
H   H58       1.0  0.36822  0.91935  0.80398  1.0000 0.0994172065
H   H59       1.0  0.24273  0.94221  0.85553  1.0000 0.2301844101
H   H60       1.0  0.33143  0.91700  0.89616  1.0000 0.1397902292
H   H61       1.0  0.83041  0.00211  0.66965  1.0000 0.1202375105
H   H62       1.0  0.00111  0.89330  0.82522  1.0000 0.1326034812
H   H63       1.0  0.06052  0.78733  0.77135  1.0000 0.0994172065
H   H64       1.0  0.10878  0.86556  0.80940  1.0000 0.1092295817
H   H65       1.0  0.21300  0.77228  0.78419  1.0000 0.0994172065
H   H66       1.0  0.08178  0.78438  0.66500  1.0000 0.2474235983
H   H67       1.0  0.16381  0.74339  0.65962  1.0000 0.1397902292
H   H68       1.0  0.70484  0.02148  0.69987  1.0000 0.1092295817
H   H69       1.0  0.75406  0.09331  0.71572  1.0000 0.1092295817
H   H70       1.0  0.66838  0.14213  0.80425  1.0000 0.1202375105
H   H71       1.0  0.63606  0.09183  0.65962  1.0000 0.1326034812
H   H72       1.0  0.57566  0.14623  0.69275  1.0000 0.159135224
H   H73       1.0  0.62683  0.50467  0.40346  1.0000 0.1326034812
H   H74       1.0  0.49408  0.64858  0.26825  1.0000 0.1397902292
H   H75       1.0  0.39001  0.68998  0.43070  1.0000 0.1092295817
H   H76       1.0  0.34567  0.72111  0.37119  1.0000 0.0994172065
H   H77       1.0  0.30850  0.56410  0.31267  1.0000 0.1092295817
H   H78       1.0  0.27227  0.69850  0.40760  1.0000 0.1202375105
H   H79       1.0  0.21194  0.62377  0.36460  1.0000 0.1505938514
H   H80       1.0  0.74126  0.47530  0.39400  1.0000 0.0994172065
H   H81       1.0  0.69382  0.39875  0.34059  1.0000 0.1202375105
H   H82       1.0  0.84926  0.38913  0.36547  1.0000 0.0994172065
H   H83       1.0  0.73331  0.43057  0.25492  1.0000 0.2074040414
H   H84       1.0  0.81785  0.39431  0.25157  1.0000 0.1397902292
H   H85       1.0  0.88889  0.23969  0.09303  1.0000 0.1202375105
H   H86       1.0  0.61109  0.26088  0.01000  1.0000 0.1326034812
H   H87       1.0  0.54971  0.14020  0.00575  1.0000 0.1092295817
H   H88       1.0  0.54241  0.16069  0.94263  1.0000 0.0994172065
H   H89       1.0  0.46631  0.03658  0.87577  1.0000 0.0994172065
H   H90       1.0  0.61348  0.02982  0.98611  1.0000 0.159135224
H   H91       1.0  0.55809  0.95400  0.93039  1.0000 0.1505938514
H   H92       1.0  0.95171  0.36889  0.20654  1.0000 0.1092295817
H   H93       1.0  0.96048  0.33959  0.13494  1.0000 0.0994172065
H   H94       1.0  0.03582  0.46206  0.18404  1.0000 0.0994172065
H   H95       1.0  0.89314  0.47862  0.21307  1.0000 0.1505938514
H   H96       1.0  0.94969  0.55152  0.23465  1.0000 0.1505938514
H   H97       1.0  0.24448  0.88095  0.58076  1.0000 0.1202375105
H   H98       1.0  0.26124  0.61900  0.51288  1.0000 0.1326034812
H   H99       1.0  0.13971  0.55803  0.43329  1.0000 0.1092295817
H   H100      1.0  0.14824  0.57788  0.50978  1.0000 0.093354942
H   H101      1.0  0.98033  0.55085  0.42718  1.0000 0.1202375105
H   H102      1.0  0.12531  0.46872  0.45226  1.0000 0.1326034812
H   H103      1.0  0.03773  0.42779  0.42396  1.0000 0.1505938514
H   H104      1.0  0.36235  0.94082  0.62029  1.0000 0.1092295817
H   H105      1.0  0.34108  0.91956  0.67215  1.0000 0.0994172065
H   H106      1.0  0.50434  0.96908  0.73979  1.0000 0.1202375105
H   H107      1.0  0.34785  0.02886  0.69590  1.0000 0.1397902292
H   H108      1.0  0.42452  0.08096  0.75959  1.0000 0.1505938514
H   H109      1.0  0.33495  0.50824  0.22509  1.0000 0.1202375105
H   H110      1.0  0.49488  0.38808  0.10092  1.0000 0.1397902292
H   H111      1.0  0.55031  0.29382  0.12383  1.0000 0.0994172065
H   H112      1.0  0.61666  0.35368  0.18449  1.0000 0.1092295817
H   H113      1.0  0.66165  0.21349  0.16708  1.0000 0.093354942
H   H114      1.0  0.59189  0.30080  0.26472  1.0000 0.1907860876
H   H115      1.0  0.64952  0.23101  0.27534  1.0000 0.1397902292
H   H116      1.0  0.20936  0.57262  0.14229  1.0000 0.1092295817
H   H117      1.0  0.28679  0.61537  0.20513  1.0000 0.0994172065
H   H118      1.0  0.23695  0.72743  0.17226  1.0000 0.1092295817
H   H119      1.0  0.19302  0.58890  0.05393  1.0000 0.1397902292
H   H120      1.0  0.16678  0.67053  0.04647  1.0000 0.1505938514
H   H121      1.0  0.86595  0.98908  0.31463  1.0000 0.1326034812
H   H122      1.0  0.01201  0.85658  0.18071  1.0000 0.1326034812
H   H123      1.0  0.16836  0.83846  0.31685  1.0000 0.0994172065
H   H124      1.0  0.12470  0.91177  0.34337  1.0000 0.093354942
H   H125      1.0  0.16739  0.84139  0.44007  1.0000 0.1092295817
H   H126      1.0  0.23997  0.92654  0.39541  1.0000 0.1202375105
H   H127      1.0  0.28045  0.92367  0.47269  1.0000 0.1505938514
H   H128      1.0  0.75030  0.00958  0.24896  1.0000 0.0994172065
H   H129      1.0  0.78734  0.09113  0.27393  1.0000 0.1202375105
H   H130      1.0  0.63178  0.08065  0.19602  1.0000 0.0994172065
H   H131      1.0  0.75727  0.05779  0.14447  1.0000 0.2193102232
H   H132      1.0  0.66857  0.08300  0.10384  1.0000 0.1397902292
H   H133      1.0  0.16959  0.99789  0.33035  1.0000 0.1202375105
H   H134      1.0  0.99889  0.10670  0.17478  1.0000 0.1326034812
H   H135      1.0  0.93948  0.21267  0.22865  1.0000 0.0994172065
H   H136      1.0  0.89122  0.13444  0.19060  1.0000 0.1092295817
H   H137      1.0  0.78700  0.22772  0.21581  1.0000 0.0994172065
H   H138      1.0  0.91822  0.21562  0.33500  1.0000 0.2414027069
H   H139      1.0  0.83619  0.25661  0.34038  1.0000 0.1397902292
H   H140      1.0  0.29516  0.97852  0.30013  1.0000 0.1092295817
H   H141      1.0  0.24594  0.90669  0.28428  1.0000 0.1092295817
H   H142      1.0  0.33162  0.85787  0.19575  1.0000 0.1202375105
H   H143      1.0  0.36394  0.90817  0.34038  1.0000 0.1326034812
H   H144      1.0  0.42434  0.85377  0.30725  1.0000 0.159135224
C   C1        1.0  0.40930  0.44230  0.78620  1.0000 0.5682914198
C   C2        1.0  0.42370  0.43210  0.72160  1.0000 -0.097609578
C   C3        1.0  0.38410  0.47500  0.68130  1.0000 0.2414027069
C   C4        1.0  0.39990  0.46630  0.62380  1.0000 -0.2321036815
C   C5        1.0  0.45540  0.41470  0.60670  1.0000 -0.1309858142
C   C6        1.0  0.49500  0.37170  0.64700  1.0000 0.2301844101
C   C7        1.0  0.47910  0.38040  0.70450  1.0000 -0.2100284382
C   C8        1.0  0.46680  0.41010  0.54660  1.0000 0.623450035
C   C9        1.0  0.62570  0.32240  0.61890  1.0000 -0.0605203802
C   C10       1.0  0.68910  0.38700  0.65470  1.0000 -0.0344571567
C   C11       1.0  0.74000  0.35100  0.62450  1.0000 -0.3767584621
C   C12       1.0  0.27410  0.55970  0.65400  1.0000 -0.0500715862
C   C13       1.0  0.19640  0.59340  0.66270  1.0000 -0.0605203802
C   C14       1.0  0.21720  0.58900  0.72490  1.0000 -0.3882582196
C   C15       1.0  0.32000  0.59940  0.92890  1.0000 0.5804050904
C   C16       1.0  0.28270  0.67870  0.93740  1.0000 -0.0694576761
C   C17       1.0  0.19980  0.68500  0.91270  1.0000 0.2074040414
C   C18       1.0  0.16710  0.75600  0.92370  1.0000 -0.2413891724
C   C19       1.0  0.21730  0.82070  0.95950  1.0000 -0.1102219357
C   C20       1.0  0.30020  0.81440  0.98430  1.0000 0.2414027069
C   C21       1.0  0.33290  0.74340  0.97330  1.0000 -0.2688598543
C   C22       1.0  0.17800  0.89440  0.97840  1.0000 0.5804050904
C   C23       1.0  0.43710  0.87670  0.03530  1.0000 -0.0694576761
C   C24       1.0  0.48520  0.95150  0.08530  1.0000 -0.0605203802
C   C25       1.0  0.43300  0.99340  0.05300  1.0000 -0.3622535153
C   C26       1.0  0.06080  0.61960  0.83500  1.0000 -0.0694576761
C   C27       1.0  0.01170  0.54690  0.81200  1.0000 -0.0605203802
C   C28       1.0  0.06100  0.50100  0.78600  1.0000 -0.3541705443
C   C29       1.0  0.59380  0.32540  0.42760  1.0000 0.5804050904
C   C30       1.0  0.67250  0.28230  0.43870  1.0000 -0.0694576761
C   C31       1.0  0.67750  0.20410  0.41840  1.0000 0.2074040414
C   C32       1.0  0.75210  0.17190  0.43290  1.0000 -0.261447058
C   C33       1.0  0.82180  0.21780  0.46770  1.0000 -0.0872091132
C   C34       1.0  0.81680  0.29590  0.48790  1.0000 0.2193102232
C   C35       1.0  0.74210  0.32820  0.47340  1.0000 -0.2521118083
C   C36       1.0  0.89800  0.17300  0.47820  1.0000 0.5682914198
C   C37       1.0  0.88660  0.41700  0.53420  1.0000 -0.0694576761
C   C38       1.0  0.96580  0.46280  0.56100  1.0000 -0.0500715862
C   C39       1.0  0.93100  0.52870  0.56200  1.0000 -0.3712269226
C   C40       1.0  0.61600  0.08160  0.34410  1.0000 -0.0694576761
C   C41       1.0  0.55060  0.02550  0.28400  1.0000 -0.0500715862
C   C42       1.0  0.59700  0.96600  0.27520  1.0000 -0.3712269226
C   C43       1.0  0.59700  0.51930  0.95320  1.0000 0.6383110822
C   C44       1.0  0.59390  0.53750  0.89510  1.0000 -0.1229851752
C   C45       1.0  0.64160  0.50160  0.85810  1.0000 0.2414027069
C   C46       1.0  0.63280  0.51600  0.80000  1.0000 -0.2321036815
C   C47       1.0  0.57630  0.56620  0.77890  1.0000 -0.0872091132
C   C48       1.0  0.52850  0.60210  0.81590  1.0000 0.2474235983
C   C49       1.0  0.53740  0.58770  0.87400  1.0000 -0.2413891724
C   C50       1.0  0.57600  0.57660  0.71390  1.0000 0.5682914198
C   C51       1.0  0.41990  0.68720  0.82600  1.0000 -0.0500715862
C   C52       1.0  0.36720  0.75080  0.80970  1.0000 -0.0605203802
C   C53       1.0  0.37600  0.73840  0.75070  1.0000 -0.3882582196
C   C54       1.0  0.74190  0.39840  0.84480  1.0000 -0.0605203802
C   C55       1.0  0.77000  0.32360  0.85740  1.0000 -0.0500715862
C   C56       1.0  0.80700  0.35800  0.92580  1.0000 -0.3541705443
C   C57       1.0  0.06910  0.07890  0.87340  1.0000 0.4361291469
C   C58       1.0  0.07620  0.06850  0.81430  1.0000 -0.1229851752
C   C59       1.0  0.11980  0.02900  0.77430  1.0000 0.2759514392
C   C60       1.0  0.10460  0.03760  0.71240  1.0000 -0.2521118083
C   C61       1.0  0.04580  0.08580  0.69040  1.0000 -0.0694576761
C   C62       1.0  0.00220  0.12540  0.73030  1.0000 0.1973715515
C   C63       1.0  0.01750  0.11670  0.79230  1.0000 -0.2100284382
C   C64       1.0  0.02710  0.08860  0.61900  1.0000 0.6301016451
C   C65       1.0  0.86910  0.14110  0.65990  1.0000 -0.0694576761
C   C66       1.0  0.82220  0.13600  0.58660  1.0000 -0.0144241213
C   C67       1.0  0.76120  0.09090  0.57130  1.0000 -0.3622535153
C   C68       1.0  0.23810  0.95400  0.76720  1.0000 -0.0605203802
C   C69       1.0  0.31920  0.93000  0.80990  1.0000 -0.0500715862
C   C70       1.0  0.29540  0.93000  0.85870  1.0000 -0.3882582196
C   C71       1.0  0.90160  0.97560  0.87340  1.0000 0.6107303143
C   C72       1.0  0.90870  0.96390  0.81010  1.0000 -0.1309858142
C   C73       1.0  0.85780  0.99640  0.76370  1.0000 0.2414027069
C   C74       1.0  0.86480  0.98020  0.70100  1.0000 -0.2205167658
C   C75       1.0  0.92280  0.93150  0.68480  1.0000 -0.1102219357
C   C76       1.0  0.97370  0.89900  0.73120  1.0000 0.2414027069
C   C77       1.0  0.96670  0.91520  0.79380  1.0000 -0.2205167658
C   C78       1.0  0.93580  0.91580  0.62140  1.0000 0.5682914198
C   C79       1.0  0.08940  0.82280  0.76540  1.0000 -0.0500715862
C   C80       1.0  0.16380  0.78290  0.75410  1.0000 -0.0397655054
C   C81       1.0  0.13340  0.76900  0.68620  1.0000 -0.4045127391
C   C82       1.0  0.73420  0.06760  0.73700  1.0000 -0.0694576761
C   C83       1.0  0.67148  0.11885  0.76067  1.0000 -0.0397655054
C   C84       1.0  0.62290  0.11900  0.69810  1.0000 -0.3712269226
C   C85       1.0  0.59070  0.55770  0.21380  1.0000 0.5682914198
C   C86       1.0  0.57630  0.56790  0.27840  1.0000 -0.097609578
C   C87       1.0  0.61590  0.52500  0.31870  1.0000 0.2414027069
C   C88       1.0  0.60010  0.53370  0.37620  1.0000 -0.2321036815
C   C89       1.0  0.54460  0.58530  0.39330  1.0000 -0.1309858142
C   C90       1.0  0.50500  0.62830  0.35300  1.0000 0.2301844101
C   C91       1.0  0.52090  0.61960  0.29550  1.0000 -0.2100284382
C   C92       1.0  0.53320  0.58990  0.45340  1.0000 0.623450035
C   C93       1.0  0.37430  0.67760  0.38110  1.0000 -0.0605203802
C   C94       1.0  0.31090  0.61300  0.34530  1.0000 -0.0344571567
C   C95       1.0  0.26000  0.64900  0.37550  1.0000 -0.3767584621
C   C96       1.0  0.72590  0.44030  0.34600  1.0000 -0.0500715862
C   C97       1.0  0.80360  0.40660  0.33730  1.0000 -0.0605203802
C   C98       1.0  0.78280  0.41100  0.27510  1.0000 -0.3882582196
C   C99       1.0  0.68000  0.40060  0.07110  1.0000 0.5804050904
C   C100      1.0  0.71730  0.32130  0.06260  1.0000 -0.0694576761
C   C101      1.0  0.80020  0.31500  0.08730  1.0000 0.2074040414
C   C102      1.0  0.83290  0.24400  0.07630  1.0000 -0.2413891724
C   C103      1.0  0.78270  0.17930  0.04050  1.0000 -0.1102219357
C   C104      1.0  0.69980  0.18560  0.01570  1.0000 0.2414027069
C   C105      1.0  0.66710  0.25660  0.02670  1.0000 -0.2688598543
C   C106      1.0  0.82200  0.10560  0.02160  1.0000 0.5804050904
C   C107      1.0  0.56290  0.12330  0.96470  1.0000 -0.0694576761
C   C108      1.0  0.51480  0.04850  0.91470  1.0000 -0.0605203802
C   C109      1.0  0.56700  0.00660  0.94700  1.0000 -0.3622535153
C   C110      1.0  0.93920  0.38040  0.16500  1.0000 -0.0694576761
C   C111      1.0  0.98830  0.45310  0.18800  1.0000 -0.0605203802
C   C112      1.0  0.93900  0.49900  0.21400  1.0000 -0.3541705443
C   C113      1.0  0.40620  0.67460  0.57240  1.0000 0.5804050904
C   C114      1.0  0.32750  0.71770  0.56130  1.0000 -0.0694576761
C   C115      1.0  0.32250  0.79590  0.58160  1.0000 0.2074040414
C   C116      1.0  0.24790  0.82810  0.56710  1.0000 -0.261447058
C   C117      1.0  0.17820  0.78220  0.53230  1.0000 -0.0872091132
C   C118      1.0  0.18320  0.70410  0.51210  1.0000 0.2193102232
C   C119      1.0  0.25790  0.67180  0.52660  1.0000 -0.261447058
C   C120      1.0  0.10200  0.82700  0.52180  1.0000 0.5682914198
C   C121      1.0  0.11340  0.58300  0.46580  1.0000 -0.0694576761
C   C122      1.0  0.03420  0.53720  0.43900  1.0000 -0.0500715862
C   C123      1.0  0.06900  0.47130  0.43800  1.0000 -0.3712269226
C   C124      1.0  0.38400  0.91840  0.65590  1.0000 -0.0694576761
C   C125      1.0  0.44940  0.97450  0.71600  1.0000 -0.0500715862
C   C126      1.0  0.40300  0.03400  0.72480  1.0000 -0.3712269226
C   C127      1.0  0.40300  0.48070  0.04680  1.0000 0.6383110822
C   C128      1.0  0.40610  0.46250  0.10490  1.0000 -0.1229851752
C   C129      1.0  0.35840  0.49840  0.14190  1.0000 0.2414027069
C   C130      1.0  0.36720  0.48400  0.20000  1.0000 -0.2321036815
C   C131      1.0  0.42370  0.43380  0.22110  1.0000 -0.0872091132
C   C132      1.0  0.47150  0.39790  0.18410  1.0000 0.2474235983
C   C133      1.0  0.46260  0.41230  0.12600  1.0000 -0.2413891724
C   C134      1.0  0.42400  0.42340  0.28610  1.0000 0.5682914198
C   C135      1.0  0.58010  0.31280  0.17400  1.0000 -0.0500715862
C   C136      1.0  0.63280  0.24920  0.19030  1.0000 -0.0605203802
C   C137      1.0  0.62400  0.26160  0.24930  1.0000 -0.3882582196
C   C138      1.0  0.25810  0.60160  0.15520  1.0000 -0.0605203802
C   C139      1.0  0.23000  0.67640  0.14260  1.0000 -0.0500715862
C   C140      1.0  0.19300  0.64200  0.07420  1.0000 -0.3541705443
C   C141      1.0  0.93090  0.92110  0.12660  1.0000 0.4361291469
C   C142      1.0  0.92380  0.93150  0.18570  1.0000 -0.1229851752
C   C143      1.0  0.88020  0.97100  0.22570  1.0000 0.2759514392
C   C144      1.0  0.89540  0.96240  0.28760  1.0000 -0.2521118083
C   C145      1.0  0.95420  0.91420  0.30960  1.0000 -0.0694576761
C   C146      1.0  0.99780  0.87460  0.26970  1.0000 0.1973715515
C   C147      1.0  0.98250  0.88330  0.20770  1.0000 -0.2100284382
C   C148      1.0  0.97290  0.91140  0.38100  1.0000 0.6301016451
C   C149      1.0  0.13090  0.85890  0.34010  1.0000 -0.0694576761
C   C150      1.0  0.17780  0.86400  0.41340  1.0000 -0.0144241213
C   C151      1.0  0.23880  0.90910  0.42870  1.0000 -0.3622535153
C   C152      1.0  0.76190  0.04600  0.23280  1.0000 -0.0605203802
C   C153      1.0  0.68080  0.07000  0.19010  1.0000 -0.0500715862
C   C154      1.0  0.70460  0.07000  0.14130  1.0000 -0.3882582196
C   C155      1.0  0.09840  0.02440  0.12660  1.0000 0.6107303143
C   C156      1.0  0.09130  0.03610  0.18990  1.0000 -0.1309858142
C   C157      1.0  0.14220  0.00360  0.23630  1.0000 0.2414027069
C   C158      1.0  0.13520  0.01980  0.29900  1.0000 -0.2205167658
C   C159      1.0  0.07720  0.06850  0.31520  1.0000 -0.1102219357
C   C160      1.0  0.02630  0.10100  0.26880  1.0000 0.2414027069
C   C161      1.0  0.03330  0.08480  0.20620  1.0000 -0.2205167658
C   C162      1.0  0.06420  0.08420  0.37860  1.0000 0.5682914198
C   C163      1.0  0.91060  0.17720  0.23460  1.0000 -0.0500715862
C   C164      1.0  0.83620  0.21710  0.24590  1.0000 -0.0397655054
C   C165      1.0  0.86660  0.23100  0.31380  1.0000 -0.4053610324
C   C166      1.0  0.26580  0.93240  0.26300  1.0000 -0.0694576761
C   C167      1.0  0.32852  0.88115  0.23933  1.0000 -0.0397655054
C   C168      1.0  0.37710  0.88100  0.30190  1.0000 -0.3712269226
O   O1        1.0  0.37120  0.49260  0.81040  1.0000 -0.5549405872
O   O2        1.0  0.44030  0.38970  0.81440  1.0000 -0.7061167269
O   O3        1.0  0.49800  0.46610  0.54280  1.0000 -0.771809703
O   O4        1.0  0.44610  0.34940  0.49170  1.0000 -0.6067810117
O   O5        1.0  0.55180  0.32240  0.62830  1.0000 -0.2100284382
O   O6        1.0  0.32700  0.52020  0.69670  1.0000 -0.1595152582
O   O7        1.0  0.39470  0.59950  0.95520  1.0000 -0.6067810117
O   O8        1.0  0.27290  0.53750  0.89300  1.0000 -0.6514955619
O   O9        1.0  0.22780  0.95850  0.01360  1.0000 -0.6514955619
O   O10       1.0  0.10430  0.89980  0.95780  1.0000 -0.568939791
O   O11       1.0  0.35090  0.87330  0.01180  1.0000 -0.1402529894
O   O12       1.0  0.14690  0.62510  0.86980  1.0000 -0.1595152582
O   O13       1.0  0.60240  0.39390  0.45500  1.0000 -0.560848242
O   O14       1.0  0.52610  0.28550  0.39280  1.0000 -0.6261663495
O   O15       1.0  0.96970  0.21290  0.50820  1.0000 -0.6730340182
O   O16       1.0  0.89560  0.10500  0.45860  1.0000 -0.560848242
O   O17       1.0  0.88760  0.33760  0.52320  1.0000 -0.1462584606
O   O18       1.0  0.60730  0.16040  0.37990  1.0000 -0.1462584606
O   O19       1.0  0.53610  0.49880  0.95750  1.0000 -0.7194137036
O   O20       1.0  0.66020  0.54160  0.00740  1.0000 -0.5976043402
O   O21       1.0  0.51780  0.62070  0.69110  1.0000 -0.6730340182
O   O22       1.0  0.62620  0.55280  0.69130  1.0000 -0.5320816397
O   O23       1.0  0.47760  0.65220  0.79590  1.0000 -0.1402529894
O   O24       1.0  0.69250  0.45010  0.87670  1.0000 -0.1595152582
O   O25       1.0  0.06410  0.11230  0.92590  1.0000 -0.3767584621
O   O26       1.0  0.13100  0.01440  0.89970  1.0000 -0.7383458673
O   O27       1.0  0.04240  0.14980  0.62000  1.0000 -0.5399535357
O   O28       1.0  0.00010  0.03170  0.56390  1.0000 -0.731899774
O   O29       1.0  0.94530  0.17810  0.70990  1.0000 -0.1912534295
O   O30       1.0  0.17870  0.98550  0.79610  1.0000 -0.1402529894
O   O31       1.0  0.96820  0.99790  0.93450  1.0000 -0.8303949594
O   O32       1.0  0.83860  0.96510  0.88000  1.0000 -0.5753187596
O   O33       1.0  0.98770  0.87950  0.60350  1.0000 -0.5320816397
O   O34       1.0  0.87650  0.94370  0.57700  1.0000 -0.7061167269
O   O35       1.0  0.03130  0.85120  0.71540  1.0000 -0.1982380434
O   O36       1.0  0.80380  0.04360  0.78290  1.0000 -0.1595152582
O   O37       1.0  0.62880  0.50740  0.18960  1.0000 -0.5549405872
O   O38       1.0  0.55970  0.61030  0.18560  1.0000 -0.7061167269
O   O39       1.0  0.50200  0.53390  0.45720  1.0000 -0.771809703
O   O40       1.0  0.55390  0.65060  0.50830  1.0000 -0.6067810117
O   O41       1.0  0.44820  0.67760  0.37170  1.0000 -0.2100284382
O   O42       1.0  0.67300  0.47980  0.30330  1.0000 -0.1595152582
O   O43       1.0  0.60530  0.40050  0.04480  1.0000 -0.6067810117
O   O44       1.0  0.72710  0.46250  0.10700  1.0000 -0.6514955619
O   O45       1.0  0.77220  0.04150  0.98640  1.0000 -0.6556648075
O   O46       1.0  0.89570  0.10020  0.04220  1.0000 -0.568939791
O   O47       1.0  0.64910  0.12670  0.98820  1.0000 -0.1309858142
O   O48       1.0  0.85310  0.37490  0.13020  1.0000 -0.1595152582
O   O49       1.0  0.39760  0.60610  0.54500  1.0000 -0.560848242
O   O50       1.0  0.47390  0.71450  0.60720  1.0000 -0.6261663495
O   O51       1.0  0.03030  0.78710  0.49180  1.0000 -0.6730340182
O   O52       1.0  0.10440  0.89500  0.54140  1.0000 -0.560848242
O   O53       1.0  0.11240  0.66240  0.47680  1.0000 -0.1462584606
O   O54       1.0  0.39270  0.83960  0.62010  1.0000 -0.1462584606
O   O55       1.0  0.46390  0.50120  0.04250  1.0000 -0.7194137036
O   O56       1.0  0.33980  0.45840  0.99260  1.0000 -0.5976043402
O   O57       1.0  0.48220  0.37930  0.30890  1.0000 -0.6730340182
O   O58       1.0  0.37380  0.44720  0.30870  1.0000 -0.5320816397
O   O59       1.0  0.52240  0.34780  0.20410  1.0000 -0.1402529894
O   O60       1.0  0.30750  0.54990  0.12330  1.0000 -0.1595152582
O   O61       1.0  0.93590  0.88770  0.07410  1.0000 -0.3767584621
O   O62       1.0  0.86900  0.98560  0.10030  1.0000 -0.7383458673
O   O63       1.0  0.95760  0.85020  0.38000  1.0000 -0.5399535357
O   O64       1.0  0.99990  0.96830  0.43610  1.0000 -0.731899774
O   O65       1.0  0.05470  0.82190  0.29010  1.0000 -0.1912534295
O   O66       1.0  0.82130  0.01450  0.20390  1.0000 -0.1402529894
O   O67       1.0  0.03180  0.00210  0.06550  1.0000 -0.8303949594
O   O68       1.0  0.16140  0.03490  0.12000  1.0000 -0.568939791
O   O69       1.0  0.01230  0.12050  0.39650  1.0000 -0.5320816397
O   O70       1.0  0.12350  0.05630  0.42300  1.0000 -0.7061167269
O   O71       1.0  0.96870  0.14880  0.28460  1.0000 -0.1982380434
O   O72       1.0  0.19620  0.95640  0.21710  1.0000 -0.1595152582
