# DDEC6 charges by PACMAN v1.1 (https://github.com/mtap-research/PACMAN-charge/)
data_2020[Cu][dia]3[ASR]6
_chemical_formula_sum              "Cu2 H68 C72 N8 O12"
_cell_length_a       9.60425
_cell_length_b       9.60425
_cell_length_c       22.6053
_cell_angle_alpha    89.1845
_cell_angle_beta     90.8155
_cell_angle_gamma    93.2486

_symmetry_space_group_name_H-M    "P 1"
_symmetry_Int_Tables_number       1

loop_
  _symmetry_equiv_pos_as_xyz
  'x, y, z'

loop_
  _atom_site_type_symbol
  _atom_site_label
  _atom_site_symmetry_multiplicity
  _atom_site_fract_x
  _atom_site_fract_y
  _atom_site_fract_z
  _atom_site_occupancy
  _atom_site_charge
Cu  Cu1       1.0  0.15282  0.61168  0.74316  1.0000 0.709965819
Cu  Cu2       1.0  0.61168  0.15282  0.25684  1.0000 0.709965819
H   H1        1.0  0.69640  0.96760  0.69130  1.0000 0.1100600585
H   H2        1.0  0.65280  0.81980  0.66430  1.0000 0.1100600585
H   H3        1.0  0.50680  0.91560  0.59230  1.0000 0.1100600585
H   H4        1.0  0.61780  0.04220  0.59740  1.0000 0.1014485057
H   H5        1.0  0.35200  0.06080  0.62080  1.0000 0.1100600585
H   H6        1.0  0.46930  0.17170  0.64180  1.0000 0.1100600585
H   H7        1.0  0.10710  0.04110  0.80190  1.0000 0.1188812328
H   H8        1.0  0.07580  0.98360  0.89820  1.0000 0.1288765906
H   H9        1.0  0.49120  0.98360  0.92270  1.0000 0.1100600585
H   H10       1.0  0.52160  0.03880  0.82560  1.0000 0.1100600585
H   H11       1.0  0.09650  0.79750  0.97470  1.0000 0.1288765906
H   H12       1.0  0.07570  0.72830  0.06860  1.0000 0.1188812328
H   H13       1.0  0.39370  0.99130  0.11650  1.0000 0.1100600585
H   H14       1.0  0.41760  0.05760  0.01860  1.0000 0.1188812328
H   H15       1.0  0.23330  0.61570  0.25540  1.0000 0.0924755572
H   H16       1.0  0.25190  0.76110  0.28680  1.0000 0.1014485057
H   H17       1.0  0.46920  0.73400  0.30830  1.0000 0.1014485057
H   H18       1.0  0.42550  0.57410  0.30170  1.0000 0.1188812328
H   H19       1.0  0.61770  0.67470  0.23730  1.0000 0.1188812328
H   H20       1.0  0.50620  0.56860  0.20810  1.0000 0.1014485057
H   H21       1.0  0.48150  0.75810  0.14470  1.0000 0.0924755572
H   H22       1.0  0.31480  0.73800  0.84350  1.0000 0.1014485057
H   H23       1.0  0.44050  0.67410  0.92560  1.0000 0.1288765906
H   H24       1.0  0.33333  0.27630  0.88890  1.0000 0.1288765906
H   H25       1.0  0.21610  0.34990  0.80610  1.0000 0.1100600585
H   H26       1.0  0.57760  0.45280  0.96950  1.0000 0.1188812328
H   H27       1.0  0.47520  0.32020  0.97580  1.0000 0.1188812328
H   H28       1.0  0.06270  0.88390  0.69870  1.0000 0.1188812328
H   H29       1.0  0.95130  0.97350  0.61800  1.0000 0.1462023198
H   H30       1.0  0.87130  0.59330  0.55910  1.0000 0.1406941614
H   H31       1.0  0.99940  0.50900  0.63840  1.0000 0.1100600585
H   H32       1.0  0.83070  0.95550  0.52920  1.0000 0.1288765906
H   H33       1.0  0.72450  0.82650  0.53200  1.0000 0.1188812328
H   H34       1.0  0.53440  0.89640  0.75550  1.0000 0.1014485057
H   H35       1.0  0.96760  0.69640  0.30870  1.0000 0.1100600585
H   H36       1.0  0.81980  0.65280  0.33570  1.0000 0.1100600585
H   H37       1.0  0.91560  0.50680  0.40770  1.0000 0.1100600585
H   H38       1.0  0.04220  0.61780  0.40260  1.0000 0.1014485057
H   H39       1.0  0.06080  0.35200  0.37920  1.0000 0.1100600585
H   H40       1.0  0.17170  0.46930  0.35820  1.0000 0.1100600585
H   H41       1.0  0.04110  0.10710  0.19810  1.0000 0.1188812328
H   H42       1.0  0.98360  0.07580  0.10180  1.0000 0.1288765906
H   H43       1.0  0.98360  0.49120  0.07730  1.0000 0.1100600585
H   H44       1.0  0.03880  0.52160  0.17440  1.0000 0.1100600585
H   H45       1.0  0.79750  0.09650  0.02530  1.0000 0.1288765906
H   H46       1.0  0.72830  0.07570  0.93140  1.0000 0.1188812328
H   H47       1.0  0.99130  0.39370  0.88350  1.0000 0.1100600585
H   H48       1.0  0.05760  0.41760  0.98140  1.0000 0.1188812328
H   H49       1.0  0.61570  0.23330  0.74460  1.0000 0.0924755572
H   H50       1.0  0.76110  0.25190  0.71320  1.0000 0.1014485057
H   H51       1.0  0.73400  0.46920  0.69170  1.0000 0.1014485057
H   H52       1.0  0.57410  0.42550  0.69830  1.0000 0.1188812328
H   H53       1.0  0.67470  0.61770  0.76270  1.0000 0.1188812328
H   H54       1.0  0.56860  0.50620  0.79190  1.0000 0.1014485057
H   H55       1.0  0.75810  0.48150  0.85530  1.0000 0.0924755572
H   H56       1.0  0.73800  0.31480  0.15650  1.0000 0.1014485057
H   H57       1.0  0.67410  0.44050  0.07440  1.0000 0.1288765906
H   H58       1.0  0.27630  0.33333  0.11110  1.0000 0.1288765906
H   H59       1.0  0.34990  0.21610  0.19390  1.0000 0.1100600585
H   H60       1.0  0.45280  0.57760  0.03050  1.0000 0.1188812328
H   H61       1.0  0.32020  0.47520  0.02420  1.0000 0.1188812328
H   H62       1.0  0.88390  0.06270  0.30130  1.0000 0.1188812328
H   H63       1.0  0.97350  0.95130  0.38200  1.0000 0.1462023198
H   H64       1.0  0.59330  0.87130  0.44090  1.0000 0.1406941614
H   H65       1.0  0.50900  0.99940  0.36160  1.0000 0.1100600585
H   H66       1.0  0.95550  0.83070  0.47080  1.0000 0.1288765906
H   H67       1.0  0.82650  0.72450  0.46800  1.0000 0.1188812328
H   H68       1.0  0.89640  0.53440  0.24450  1.0000 0.1014485057
C   C1        1.0  0.40140  0.76660  0.70690  1.0000 0.5281738727
C   C2        1.0  0.62000  0.91000  0.67450  1.0000 -0.2020703093
C   C3        1.0  0.54880  0.98480  0.61900  1.0000 -0.1708196537
C   C4        1.0  0.43870  0.07370  0.64310  1.0000 -0.0963368178
C   C5        1.0  0.33260  0.08080  0.73950  1.0000 0.3931319653
C   C6        1.0  0.31850  0.03690  0.80270  1.0000 -0.017560249
C   C7        1.0  0.18390  0.02590  0.82620  1.0000 -0.0948830754
C   C8        1.0  0.16580  0.99360  0.88360  1.0000 -0.1323626598
C   C9        1.0  0.27900  0.97460  0.92190  1.0000 0.0597397662
C   C10       1.0  0.41370  0.99330  0.89810  1.0000 -0.1556543023
C   C11       1.0  0.43190  0.02490  0.84030  1.0000 -0.1323626598
C   C12       1.0  0.26040  0.93180  0.98520  1.0000 0.0544005646
C   C13       1.0  0.15870  0.83550  0.00280  1.0000 -0.1391496676
C   C14       1.0  0.14640  0.79480  0.05910  1.0000 -0.1127025024
C   C15       1.0  0.23240  0.84560  0.10420  1.0000 -0.017560249
C   C16       1.0  0.33520  0.95000  0.08780  1.0000 -0.1391496676
C   C17       1.0  0.34870  0.99030  0.02910  1.0000 -0.1391496676
C   C18       1.0  0.20690  0.79670  0.16640  1.0000 0.4026743709
C   C19       1.0  0.29400  0.69920  0.25950  1.0000 -0.0948830754
C   C20       1.0  0.43090  0.66370  0.28130  1.0000 -0.1708196537
C   C21       1.0  0.51970  0.65830  0.22720  1.0000 -0.1900383592
C   C22       1.0  0.46730  0.77770  0.18660  1.0000 -0.048261127
C   C23       1.0  0.54090  0.91270  0.20380  1.0000 0.5281738727
C   C24       1.0  0.32050  0.64350  0.85220  1.0000 0.0924755572
C   C25       1.0  0.39470  0.60610  0.90230  1.0000 -0.2113791355
C   C26       1.0  0.40000  0.46660  0.91740  1.0000 0.1632240354
C   C27       1.0  0.33190  0.37110  0.88030  1.0000 -0.2020703093
C   C28       1.0  0.26150  0.41590  0.83040  1.0000 0.0797036453
C   C29       1.0  0.48020  0.42120  0.97280  1.0000 -0.2376527586
C   C30       1.0  0.02870  0.82390  0.66930  1.0000 0.0924755572
C   C31       1.0  0.95930  0.87750  0.62060  1.0000 -0.2113791355
C   C32       1.0  0.90200  0.79640  0.57590  1.0000 0.1406941614
C   C33       1.0  0.91410  0.65610  0.58550  1.0000 -0.2174036414
C   C34       1.0  0.98980  0.60440  0.63440  1.0000 0.0797036453
C   C35       1.0  0.82210  0.85470  0.52640  1.0000 -0.2174036414
C   C36       1.0  0.49870  0.89650  0.71470  1.0000 -0.048261127
C   C37       1.0  0.76660  0.40140  0.29310  1.0000 0.5281738727
C   C38       1.0  0.91000  0.62000  0.32550  1.0000 -0.2020703093
C   C39       1.0  0.98480  0.54880  0.38100  1.0000 -0.1708196537
C   C40       1.0  0.07370  0.43870  0.35690  1.0000 -0.0963368178
C   C41       1.0  0.08080  0.33260  0.26050  1.0000 0.3931319653
C   C42       1.0  0.03690  0.31850  0.19730  1.0000 -0.017560249
C   C43       1.0  0.02590  0.18390  0.17380  1.0000 -0.0948830754
C   C44       1.0  0.99360  0.16580  0.11640  1.0000 -0.1323626598
C   C45       1.0  0.97460  0.27900  0.07810  1.0000 0.0597397662
C   C46       1.0  0.99330  0.41370  0.10190  1.0000 -0.1548165739
C   C47       1.0  0.02490  0.43190  0.15970  1.0000 -0.1391496676
C   C48       1.0  0.93180  0.26040  0.01480  1.0000 0.0544005646
C   C49       1.0  0.83550  0.15870  0.99720  1.0000 -0.1391496676
C   C50       1.0  0.79480  0.14640  0.94090  1.0000 -0.1127025024
C   C51       1.0  0.84560  0.23240  0.89580  1.0000 -0.017560249
C   C52       1.0  0.95000  0.33520  0.91220  1.0000 -0.1391496676
C   C53       1.0  0.99030  0.34870  0.97090  1.0000 -0.1391496676
C   C54       1.0  0.79670  0.20690  0.83360  1.0000 0.4026743709
C   C55       1.0  0.69920  0.29400  0.74050  1.0000 -0.0948830754
C   C56       1.0  0.66370  0.43090  0.71870  1.0000 -0.1708196537
C   C57       1.0  0.65830  0.51970  0.77280  1.0000 -0.1900383592
C   C58       1.0  0.77770  0.46730  0.81340  1.0000 -0.048261127
C   C59       1.0  0.91270  0.54090  0.79620  1.0000 0.5281738727
C   C60       1.0  0.64350  0.32050  0.14780  1.0000 0.0924755572
C   C61       1.0  0.60610  0.39470  0.09770  1.0000 -0.2113791355
C   C62       1.0  0.46660  0.40000  0.08260  1.0000 0.1632240354
C   C63       1.0  0.37110  0.33190  0.11970  1.0000 -0.2020703093
C   C64       1.0  0.41590  0.26150  0.16960  1.0000 0.0797036453
C   C65       1.0  0.42120  0.48020  0.02720  1.0000 -0.2376527586
C   C66       1.0  0.82390  0.02870  0.33070  1.0000 0.0924755572
C   C67       1.0  0.87750  0.95930  0.37940  1.0000 -0.2113791355
C   C68       1.0  0.79640  0.90200  0.42410  1.0000 0.1406941614
C   C69       1.0  0.65610  0.91410  0.41450  1.0000 -0.2174036414
C   C70       1.0  0.60440  0.98980  0.36560  1.0000 0.0797036453
C   C71       1.0  0.85470  0.82210  0.47360  1.0000 -0.2174036414
C   C72       1.0  0.89650  0.49870  0.28530  1.0000 -0.048261127
N   N1        1.0  0.42100  0.02340  0.70530  1.0000 -0.1195163694
N   N2        1.0  0.25660  0.55200  0.81570  1.0000 -0.2376527586
N   N3        1.0  0.04710  0.68870  0.67440  1.0000 -0.2174036414
N   N4        1.0  0.31540  0.76920  0.20120  1.0000 -0.1195163694
N   N5        1.0  0.02340  0.42100  0.29470  1.0000 -0.1195163694
N   N6        1.0  0.55200  0.25660  0.18430  1.0000 -0.2376527586
N   N7        1.0  0.68870  0.04710  0.32560  1.0000 -0.2174036414
N   N8        1.0  0.76920  0.31540  0.79880  1.0000 -0.1195163694
O   O1        1.0  0.43780  0.66980  0.67740  1.0000 -0.5245850147
O   O2        1.0  0.28900  0.76660  0.73280  1.0000 -0.5245850147
O   O3        1.0  0.25860  0.17620  0.72050  1.0000 -0.5295261802
O   O4        1.0  0.08900  0.77480  0.18250  1.0000 -0.4742607684
O   O5        1.0  0.47800  0.99420  0.23660  1.0000 -0.5295261802
O   O6        1.0  0.65940  0.94020  0.18620  1.0000 -0.5411297143
O   O7        1.0  0.66980  0.43780  0.32260  1.0000 -0.5245850147
O   O8        1.0  0.76660  0.28900  0.26720  1.0000 -0.5245850147
O   O9        1.0  0.17620  0.25860  0.27950  1.0000 -0.5295261802
O   O10       1.0  0.77480  0.08900  0.81750  1.0000 -0.4742607684
O   O11       1.0  0.99420  0.47800  0.76340  1.0000 -0.5295261802
O   O12       1.0  0.94020  0.65940  0.81380  1.0000 -0.5411297143
