# DDEC6 charges by PACMAN v1.1 (https://github.com/mtap-research/PACMAN-charge/)
data_2020[Ce][hex]3[ASR]1
_chemical_formula_sum              "Ce12 C96 O64 F48"
_cell_length_a       15.5719
_cell_length_b       15.5719
_cell_length_c       28.1777
_cell_angle_alpha    90
_cell_angle_beta     90
_cell_angle_gamma    120

_symmetry_space_group_name_H-M    "P 1"
_symmetry_Int_Tables_number       1

loop_
  _symmetry_equiv_pos_as_xyz
  'x, y, z'

loop_
  _atom_site_type_symbol
  _atom_site_label
  _atom_site_symmetry_multiplicity
  _atom_site_fract_x
  _atom_site_fract_y
  _atom_site_fract_z
  _atom_site_occupancy
  _atom_site_charge
Ce  Ce1       1.0  0.82442  0.91221  0.44016  1.0000 2.2062900434
Ce  Ce2       1.0  0.08779  0.17558  0.44016  1.0000 2.2062900434
Ce  Ce3       1.0  0.08779  0.91221  0.44016  1.0000 2.2062900434
Ce  Ce4       1.0  0.17558  0.08779  0.94016  1.0000 2.2062900434
Ce  Ce5       1.0  0.91221  0.82442  0.94016  1.0000 2.2062900434
Ce  Ce6       1.0  0.91221  0.08779  0.94016  1.0000 2.2062900434
Ce  Ce7       1.0  0.91221  0.08779  0.55984  1.0000 2.2062900434
Ce  Ce8       1.0  0.91221  0.82442  0.55984  1.0000 2.2062900434
Ce  Ce9       1.0  0.17558  0.08779  0.55984  1.0000 2.2062900434
Ce  Ce10      1.0  0.08779  0.91221  0.05984  1.0000 2.2043295803
Ce  Ce11      1.0  0.08779  0.17558  0.05984  1.0000 2.2043295803
Ce  Ce12      1.0  0.82442  0.91221  0.05984  1.0000 2.2043295803
C   C1        1.0  0.51690  0.57110  0.46730  1.0000 0.1637036602
C   C2        1.0  0.82670  0.80120  0.27450  1.0000 0.1463116764
C   C3        1.0  0.05420  0.48310  0.46730  1.0000 0.1637036602
C   C4        1.0  0.97450  0.17330  0.27450  1.0000 0.1463116764
C   C5        1.0  0.42890  0.94580  0.46730  1.0000 0.1637036602
C   C6        1.0  0.19880  0.02550  0.27450  1.0000 0.1463116764
C   C7        1.0  0.48310  0.42890  0.96730  1.0000 0.1637036602
C   C8        1.0  0.17330  0.19880  0.77450  1.0000 0.1463116764
C   C9        1.0  0.94580  0.51690  0.96730  1.0000 0.1637036602
C   C10       1.0  0.02550  0.82670  0.77450  1.0000 0.1463116764
C   C11       1.0  0.57110  0.05420  0.96730  1.0000 0.1637036602
C   C12       1.0  0.80120  0.97450  0.77450  1.0000 0.1463116764
C   C13       1.0  0.94580  0.42890  0.53270  1.0000 0.1637036602
C   C14       1.0  0.02550  0.19880  0.72550  1.0000 0.1463116764
C   C15       1.0  0.57110  0.51690  0.53270  1.0000 0.1637036602
C   C16       1.0  0.80120  0.82670  0.72550  1.0000 0.1463116764
C   C17       1.0  0.48310  0.05420  0.53270  1.0000 0.1637036602
C   C18       1.0  0.17330  0.97450  0.72550  1.0000 0.1463116764
C   C19       1.0  0.05420  0.57110  0.03270  1.0000 0.1650113913
C   C20       1.0  0.97450  0.80120  0.22550  1.0000 0.1463116764
C   C21       1.0  0.42890  0.48310  0.03270  1.0000 0.1637036602
C   C22       1.0  0.19880  0.17330  0.22550  1.0000 0.1463116764
C   C23       1.0  0.51690  0.94580  0.03270  1.0000 0.1650113913
C   C24       1.0  0.82670  0.02550  0.22550  1.0000 0.1463116764
C   C25       1.0  0.48310  0.42890  0.53270  1.0000 0.1637036602
C   C26       1.0  0.17330  0.19880  0.72550  1.0000 0.1463116764
C   C27       1.0  0.94580  0.51690  0.53270  1.0000 0.1637036602
C   C28       1.0  0.02550  0.82670  0.72550  1.0000 0.1463116764
C   C29       1.0  0.57110  0.05420  0.53270  1.0000 0.1637036602
C   C30       1.0  0.80120  0.97450  0.72550  1.0000 0.1463116764
C   C31       1.0  0.51690  0.57110  0.03270  1.0000 0.1650113913
C   C32       1.0  0.82670  0.80120  0.22550  1.0000 0.1463116764
C   C33       1.0  0.05420  0.48310  0.03270  1.0000 0.1650113913
C   C34       1.0  0.97450  0.17330  0.22550  1.0000 0.1463116764
C   C35       1.0  0.42890  0.94580  0.03270  1.0000 0.1637036602
C   C36       1.0  0.19880  0.02550  0.22550  1.0000 0.1463116764
C   C37       1.0  0.05420  0.57110  0.46730  1.0000 0.1637036602
C   C38       1.0  0.97450  0.80120  0.27450  1.0000 0.1463116764
C   C39       1.0  0.42890  0.48310  0.46730  1.0000 0.1637036602
C   C40       1.0  0.19880  0.17330  0.27450  1.0000 0.1463116764
C   C41       1.0  0.51690  0.94580  0.46730  1.0000 0.1637036602
C   C42       1.0  0.82670  0.02550  0.27450  1.0000 0.1463116764
C   C43       1.0  0.94580  0.42890  0.96730  1.0000 0.1637036602
C   C44       1.0  0.02550  0.19880  0.77450  1.0000 0.1463116764
C   C45       1.0  0.57110  0.51690  0.96730  1.0000 0.1637036602
C   C46       1.0  0.80120  0.82670  0.77450  1.0000 0.1463116764
C   C47       1.0  0.48310  0.05420  0.96730  1.0000 0.1637036602
C   C48       1.0  0.17330  0.97450  0.77450  1.0000 0.1463116764
C   C49       1.0  0.68620  0.68620  0.50000  1.0000 0.6959765655
C   C50       1.0  0.58960  0.58960  0.50000  1.0000 -0.1846960035
C   C51       1.0  0.00000  0.31380  0.50000  1.0000 0.6959765655
C   C52       1.0  0.00000  0.41040  0.50000  1.0000 -0.1846960035
C   C53       1.0  0.31380  0.00000  0.50000  1.0000 0.6959765655
C   C54       1.0  0.41040  0.00000  0.50000  1.0000 -0.1846960035
C   C55       1.0  0.31380  0.31380  0.00000  1.0000 0.6959765655
C   C56       1.0  0.41040  0.41040  0.00000  1.0000 -0.1865130958
C   C57       1.0  0.00000  0.68620  0.00000  1.0000 0.6959765655
C   C58       1.0  0.00000  0.58960  0.00000  1.0000 -0.1865130958
C   C59       1.0  0.68620  0.00000  0.00000  1.0000 0.6959765655
C   C60       1.0  0.58960  0.00000  0.00000  1.0000 -0.1865130958
C   C61       1.0  0.31380  0.31380  0.50000  1.0000 0.6959765655
C   C62       1.0  0.41040  0.41040  0.50000  1.0000 -0.1846960035
C   C63       1.0  0.00000  0.68620  0.50000  1.0000 0.6959765655
C   C64       1.0  0.00000  0.58960  0.50000  1.0000 -0.1846960035
C   C65       1.0  0.68620  0.00000  0.50000  1.0000 0.6959765655
C   C66       1.0  0.58960  0.00000  0.50000  1.0000 -0.1846960035
C   C67       1.0  0.68620  0.68620  0.00000  1.0000 0.6959765655
C   C68       1.0  0.58960  0.58960  0.00000  1.0000 -0.1865130958
C   C69       1.0  0.00000  0.31380  0.00000  1.0000 0.6959765655
C   C70       1.0  0.00000  0.41040  0.00000  1.0000 -0.1865130958
C   C71       1.0  0.31380  0.00000  0.00000  1.0000 0.6959765655
C   C72       1.0  0.41040  0.00000  0.00000  1.0000 -0.1846960035
C   C73       1.0  0.90550  0.81100  0.35290  1.0000 0.6808064881
C   C74       1.0  0.90120  0.80240  0.29980  1.0000 -0.1517777055
C   C75       1.0  0.90550  0.09450  0.35290  1.0000 0.6808064881
C   C76       1.0  0.90120  0.09880  0.29980  1.0000 -0.1517777055
C   C77       1.0  0.18900  0.09450  0.35290  1.0000 0.6808064881
C   C78       1.0  0.19760  0.09880  0.29980  1.0000 -0.1517777055
C   C79       1.0  0.09450  0.18900  0.85290  1.0000 0.6808064881
C   C80       1.0  0.09880  0.19760  0.79980  1.0000 -0.1517777055
C   C81       1.0  0.09450  0.90550  0.85290  1.0000 0.6808064881
C   C82       1.0  0.09880  0.90120  0.79980  1.0000 -0.1517777055
C   C83       1.0  0.81100  0.90550  0.85290  1.0000 0.6808064881
C   C84       1.0  0.80240  0.90120  0.79980  1.0000 -0.1517777055
C   C85       1.0  0.09450  0.18900  0.64710  1.0000 0.6808064881
C   C86       1.0  0.09880  0.19760  0.70020  1.0000 -0.1517777055
C   C87       1.0  0.81100  0.90550  0.64710  1.0000 0.6808064881
C   C88       1.0  0.80240  0.90120  0.70020  1.0000 -0.1517777055
C   C89       1.0  0.09450  0.90550  0.64710  1.0000 0.6808064881
C   C90       1.0  0.09880  0.90120  0.70020  1.0000 -0.1517777055
C   C91       1.0  0.90550  0.81100  0.14710  1.0000 0.6808064881
C   C92       1.0  0.90120  0.80240  0.20020  1.0000 -0.1517777055
C   C93       1.0  0.18900  0.09450  0.14710  1.0000 0.6808064881
C   C94       1.0  0.19760  0.09880  0.20020  1.0000 -0.1517777055
C   C95       1.0  0.90550  0.09450  0.14710  1.0000 0.6808064881
C   C96       1.0  0.90120  0.09880  0.20020  1.0000 -0.1517777055
O   O1        1.0  0.69810  0.74670  0.46677  1.0000 -0.5567534014
O   O2        1.0  0.83570  0.81540  0.37340  1.0000 -0.5546722707
O   O3        1.0  0.04860  0.30190  0.46677  1.0000 -0.5567534014
O   O4        1.0  0.97970  0.16430  0.37340  1.0000 -0.5567534014
O   O5        1.0  0.25330  0.95140  0.46677  1.0000 -0.5567534014
O   O6        1.0  0.18460  0.02030  0.37340  1.0000 -0.5567534014
O   O7        1.0  0.30190  0.25330  0.96677  1.0000 -0.5567534014
O   O8        1.0  0.16430  0.18460  0.87340  1.0000 -0.5567534014
O   O9        1.0  0.95140  0.69810  0.96677  1.0000 -0.5567534014
O   O10       1.0  0.02030  0.83570  0.87340  1.0000 -0.5567534014
O   O11       1.0  0.74670  0.04860  0.96677  1.0000 -0.5567534014
O   O12       1.0  0.81540  0.97970  0.87340  1.0000 -0.5567534014
O   O13       1.0  0.95140  0.25330  0.53323  1.0000 -0.5567534014
O   O14       1.0  0.02030  0.18460  0.62660  1.0000 -0.5546722707
O   O15       1.0  0.74670  0.69810  0.53323  1.0000 -0.5567534014
O   O16       1.0  0.81540  0.83570  0.62660  1.0000 -0.5546722707
O   O17       1.0  0.30190  0.04860  0.53323  1.0000 -0.5567534014
O   O18       1.0  0.16430  0.97970  0.62660  1.0000 -0.5567534014
O   O19       1.0  0.04860  0.74670  0.03323  1.0000 -0.5567534014
O   O20       1.0  0.97970  0.81540  0.12660  1.0000 -0.5567534014
O   O21       1.0  0.25330  0.30190  0.03323  1.0000 -0.5567534014
O   O22       1.0  0.18460  0.16430  0.12660  1.0000 -0.5567534014
O   O23       1.0  0.69810  0.95140  0.03323  1.0000 -0.5567534014
O   O24       1.0  0.83570  0.02030  0.12660  1.0000 -0.5546722707
O   O25       1.0  0.30190  0.25330  0.53323  1.0000 -0.5567534014
O   O26       1.0  0.16430  0.18460  0.62660  1.0000 -0.5546722707
O   O27       1.0  0.95140  0.69810  0.53323  1.0000 -0.5567534014
O   O28       1.0  0.02030  0.83570  0.62660  1.0000 -0.5567534014
O   O29       1.0  0.74670  0.04860  0.53323  1.0000 -0.5567534014
O   O30       1.0  0.81540  0.97970  0.62660  1.0000 -0.5546722707
O   O31       1.0  0.69810  0.74670  0.03323  1.0000 -0.5567534014
O   O32       1.0  0.83570  0.81540  0.12660  1.0000 -0.5546722707
O   O33       1.0  0.04860  0.30190  0.03323  1.0000 -0.5567534014
O   O34       1.0  0.97970  0.16430  0.12660  1.0000 -0.5546722707
O   O35       1.0  0.25330  0.95140  0.03323  1.0000 -0.5567534014
O   O36       1.0  0.18460  0.02030  0.12660  1.0000 -0.5546722707
O   O37       1.0  0.04860  0.74670  0.46677  1.0000 -0.5567534014
O   O38       1.0  0.97970  0.81540  0.37340  1.0000 -0.5546722707
O   O39       1.0  0.25330  0.30190  0.46677  1.0000 -0.5567534014
O   O40       1.0  0.18460  0.16430  0.37340  1.0000 -0.5567534014
O   O41       1.0  0.69810  0.95140  0.46677  1.0000 -0.5567534014
O   O42       1.0  0.83570  0.02030  0.37340  1.0000 -0.5567534014
O   O43       1.0  0.95140  0.25330  0.96677  1.0000 -0.5567534014
O   O44       1.0  0.02030  0.18460  0.87340  1.0000 -0.5567534014
O   O45       1.0  0.74670  0.69810  0.96677  1.0000 -0.5567534014
O   O46       1.0  0.81540  0.83570  0.87340  1.0000 -0.5567534014
O   O47       1.0  0.30190  0.04860  0.96677  1.0000 -0.5567534014
O   O48       1.0  0.16430  0.97970  0.87340  1.0000 -0.5567534014
O   O49       1.0  0.84120  0.92060  0.52723  1.0000 -0.9925090502
O   O50       1.0  0.07940  0.15880  0.52723  1.0000 -0.9925090502
O   O51       1.0  0.07940  0.92060  0.52723  1.0000 -0.9925090502
O   O52       1.0  0.15880  0.07940  0.02723  1.0000 -0.9925090502
O   O53       1.0  0.92060  0.84120  0.02723  1.0000 -0.9925090502
O   O54       1.0  0.92060  0.07940  0.02723  1.0000 -0.9925090502
O   O55       1.0  0.92060  0.07940  0.47277  1.0000 -0.9955208597
O   O56       1.0  0.92060  0.84120  0.47277  1.0000 -0.9925090502
O   O57       1.0  0.15880  0.07940  0.47277  1.0000 -0.9955208597
O   O58       1.0  0.07940  0.92060  0.97277  1.0000 -0.9925090502
O   O59       1.0  0.07940  0.15880  0.97277  1.0000 -0.9955208597
O   O60       1.0  0.84120  0.92060  0.97277  1.0000 -0.9925090502
O   O61       1.0  0.00000  0.00000  0.41693  1.0000 -1.0202205476
O   O62       1.0  0.00000  0.00000  0.91693  1.0000 -1.0306379296
O   O63       1.0  0.00000  0.00000  0.58307  1.0000 -1.0306379296
O   O64       1.0  0.00000  0.00000  0.08307  1.0000 -1.0306379296
F   F1        1.0  0.72910  0.74920  0.29450  1.0000 -0.0693955779
F   F2        1.0  0.51600  0.63500  0.43460  1.0000 -0.082904192
F   F3        1.0  0.02010  0.27090  0.29450  1.0000 -0.0693955779
F   F4        1.0  0.11900  0.48400  0.43460  1.0000 -0.082904192
F   F5        1.0  0.25080  0.97990  0.29450  1.0000 -0.0693955779
F   F6        1.0  0.36500  0.88100  0.43460  1.0000 -0.082904192
F   F7        1.0  0.27090  0.25080  0.79450  1.0000 -0.0693955779
F   F8        1.0  0.48400  0.36500  0.93460  1.0000 -0.082904192
F   F9        1.0  0.97990  0.72910  0.79450  1.0000 -0.0693955779
F   F10       1.0  0.88100  0.51600  0.93460  1.0000 -0.082904192
F   F11       1.0  0.74920  0.02010  0.79450  1.0000 -0.0693955779
F   F12       1.0  0.63500  0.11900  0.93460  1.0000 -0.082904192
F   F13       1.0  0.97990  0.25080  0.70550  1.0000 -0.0693955779
F   F14       1.0  0.88100  0.36500  0.56540  1.0000 -0.082904192
F   F15       1.0  0.74920  0.72910  0.70550  1.0000 -0.0693955779
F   F16       1.0  0.63500  0.51600  0.56540  1.0000 -0.082904192
F   F17       1.0  0.27090  0.02010  0.70550  1.0000 -0.0693955779
F   F18       1.0  0.48400  0.11900  0.56540  1.0000 -0.082904192
F   F19       1.0  0.02010  0.74920  0.20550  1.0000 -0.0693955779
F   F20       1.0  0.11900  0.63500  0.06540  1.0000 -0.082904192
F   F21       1.0  0.25080  0.27090  0.20550  1.0000 -0.0693955779
F   F22       1.0  0.36500  0.48400  0.06540  1.0000 -0.082904192
F   F23       1.0  0.72910  0.97990  0.20550  1.0000 -0.0693955779
F   F24       1.0  0.51600  0.88100  0.06540  1.0000 -0.082904192
F   F25       1.0  0.27090  0.25080  0.70550  1.0000 -0.0693955779
F   F26       1.0  0.48400  0.36500  0.56540  1.0000 -0.082904192
F   F27       1.0  0.97990  0.72910  0.70550  1.0000 -0.0693955779
F   F28       1.0  0.88100  0.51600  0.56540  1.0000 -0.082904192
F   F29       1.0  0.74920  0.02010  0.70550  1.0000 -0.0693955779
F   F30       1.0  0.63500  0.11900  0.56540  1.0000 -0.082904192
F   F31       1.0  0.72910  0.74920  0.20550  1.0000 -0.0693955779
F   F32       1.0  0.51600  0.63500  0.06540  1.0000 -0.082904192
F   F33       1.0  0.02010  0.27090  0.20550  1.0000 -0.0693955779
F   F34       1.0  0.11900  0.48400  0.06540  1.0000 -0.082904192
F   F35       1.0  0.25080  0.97990  0.20550  1.0000 -0.0693955779
F   F36       1.0  0.36500  0.88100  0.06540  1.0000 -0.082904192
F   F37       1.0  0.02010  0.74920  0.29450  1.0000 -0.0693955779
F   F38       1.0  0.11900  0.63500  0.43460  1.0000 -0.082904192
F   F39       1.0  0.25080  0.27090  0.29450  1.0000 -0.0693955779
F   F40       1.0  0.36500  0.48400  0.43460  1.0000 -0.082904192
F   F41       1.0  0.72910  0.97990  0.29450  1.0000 -0.0693955779
F   F42       1.0  0.51600  0.88100  0.43460  1.0000 -0.082904192
F   F43       1.0  0.97990  0.25080  0.79450  1.0000 -0.0693955779
F   F44       1.0  0.88100  0.36500  0.93460  1.0000 -0.082904192
F   F45       1.0  0.74920  0.72910  0.79450  1.0000 -0.0693955779
F   F46       1.0  0.63500  0.51600  0.93460  1.0000 -0.082904192
F   F47       1.0  0.27090  0.02010  0.79450  1.0000 -0.0693955779
F   F48       1.0  0.48400  0.11900  0.93460  1.0000 -0.082904192
