# DDEC6 charges by PACMAN v1.1 (https://github.com/mtap-research/PACMAN-charge/)
data_2020[Co][sab]3[ASR]1
_chemical_formula_sum              "Co12 H24 C72 O52"
_cell_length_a       16.8478
_cell_length_b       16.8478
_cell_length_c       16.8478
_cell_angle_alpha    116.254
_cell_angle_beta     110.551
_cell_angle_gamma    101.924

_symmetry_space_group_name_H-M    "P 1"
_symmetry_Int_Tables_number       1

loop_
  _symmetry_equiv_pos_as_xyz
  'x, y, z'

loop_
  _atom_site_type_symbol
  _atom_site_label
  _atom_site_symmetry_multiplicity
  _atom_site_fract_x
  _atom_site_fract_y
  _atom_site_fract_z
  _atom_site_occupancy
  _atom_site_charge
Co  Co1       1.0  0.69027  0.08216  0.05089  1.0000 1.1060858507
Co  Co2       1.0  0.64075  0.15046  0.23201  1.0000 1.0722061137
Co  Co3       1.0  0.64002  0.27889  0.10683  1.0000 1.1060858507
Co  Co4       1.0  0.30973  0.36062  0.39189  1.0000 1.1047219375
Co  Co5       1.0  0.35925  0.59126  0.50971  1.0000 1.0722061137
Co  Co6       1.0  0.35998  0.46681  0.63887  1.0000 1.1047219375
Co  Co7       1.0  0.96873  0.86062  0.55089  1.0000 1.1047219375
Co  Co8       1.0  0.08155  0.09126  0.73201  1.0000 1.0722061137
Co  Co9       1.0  0.82794  0.96681  0.60683  1.0000 1.1060858507
Co  Co10      1.0  0.03127  0.58216  0.89189  1.0000 1.1047219375
Co  Co11      1.0  0.91845  0.65046  0.00971  1.0000 1.0722061137
Co  Co12      1.0  0.17206  0.77889  0.13887  1.0000 1.1047219375
H   H1        1.0  0.78592  0.01476  0.36502  1.0000 0.1378191714
H   H2        1.0  0.87285  0.80046  0.27137  1.0000 0.1378191714
H   H3        1.0  0.82372  0.93240  0.11962  1.0000 0.1349934974
H   H4        1.0  0.36021  0.91097  0.05654  1.0000 0.1378191714
H   H5        1.0  0.21856  0.62745  0.80725  1.0000 0.1378191714
H   H6        1.0  0.47309  0.80214  0.87987  1.0000 0.1378191714
H   H7        1.0  0.21408  0.57910  0.22884  1.0000 0.1378191714
H   H8        1.0  0.12715  0.39852  0.92761  1.0000 0.1378191714
H   H9        1.0  0.17628  0.29590  0.10868  1.0000 0.1378191714
H   H10       1.0  0.63979  0.69633  0.55076  1.0000 0.1378191714
H   H11       1.0  0.78144  0.58869  0.40889  1.0000 0.1378191714
H   H12       1.0  0.52691  0.40678  0.32905  1.0000 0.1378191714
H   H13       1.0  0.35026  0.07910  0.86502  1.0000 0.1378191714
H   H14       1.0  0.47091  0.89852  0.77137  1.0000 0.1378191714
H   H15       1.0  0.18722  0.79590  0.61962  1.0000 0.1378191714
H   H16       1.0  0.14557  0.19633  0.55654  1.0000 0.1378191714
H   H17       1.0  0.17980  0.08869  0.30725  1.0000 0.1378191714
H   H18       1.0  0.07773  0.90678  0.37987  1.0000 0.1378191714
H   H19       1.0  0.64974  0.51476  0.72884  1.0000 0.1378191714
H   H20       1.0  0.52909  0.30046  0.42761  1.0000 0.1378191714
H   H21       1.0  0.81278  0.43240  0.60868  1.0000 0.1378191714
H   H22       1.0  0.85443  0.41097  0.05076  1.0000 0.1378191714
H   H23       1.0  0.82020  0.12745  0.90889  1.0000 0.1349934974
H   H24       1.0  0.92227  0.30214  0.82905  1.0000 0.1378191714
C   C1        1.0  0.76390  0.05290  0.22180  1.0000 0.5965438971
C   C2        1.0  0.79790  0.98300  0.23910  1.0000 0.0006068141
C   C3        1.0  0.80210  0.97420  0.31890  1.0000 -0.1027786047
C   C4        1.0  0.83010  0.90640  0.33130  1.0000 -0.002774755
C   C5        1.0  0.85440  0.84740  0.26360  1.0000 -0.1027786047
C   C6        1.0  0.85190  0.85690  0.18540  1.0000 -0.002774755
C   C7        1.0  0.82440  0.92520  0.17260  1.0000 -0.1027786047
C   C8        1.0  0.83700  0.89890  0.41930  1.0000 0.5918445254
C   C9        1.0  0.87970  0.79420  0.11310  1.0000 0.5507264027
C   C10       1.0  0.51480  0.96660  0.04580  1.0000 0.5918445254
C   C11       1.0  0.42870  0.87050  0.97800  1.0000 -0.002774755
C   C12       1.0  0.35650  0.85810  0.99920  1.0000 -0.1067523079
C   C13       1.0  0.27750  0.76650  0.93540  1.0000 0.0071363553
C   C14       1.0  0.27230  0.68890  0.85120  1.0000 -0.1067523079
C   C15       1.0  0.34640  0.70210  0.83190  1.0000 0.0071363553
C   C16       1.0  0.42360  0.79290  0.89430  1.0000 -0.1027786047
C   C17       1.0  0.34770  0.61570  0.75180  1.0000 0.5428841004
C   C18       1.0  0.20280  0.74690  0.96190  1.0000 0.5965438971
C   C19       1.0  0.23610  0.45790  0.28900  1.0000 0.5965438971
C   C20       1.0  0.20210  0.44120  0.18510  1.0000 0.0006068141
C   C21       1.0  0.19790  0.51680  0.17210  1.0000 -0.1027786047
C   C22       1.0  0.16990  0.50120  0.07630  1.0000 -0.002774755
C   C23       1.0  0.14560  0.40920  0.99300  1.0000 -0.1067523079
C   C24       1.0  0.14810  0.33350  0.00500  1.0000 -0.002774755
C   C25       1.0  0.17560  0.34820  0.10080  1.0000 -0.1027786047
C   C26       1.0  0.16300  0.58230  0.06190  1.0000 0.5918445254
C   C27       1.0  0.12030  0.23340  0.91450  1.0000 0.5507264027
C   C28       1.0  0.48520  0.53100  0.45180  1.0000 0.5918445254
C   C29       1.0  0.57130  0.54930  0.44180  1.0000 -0.002774755
C   C30       1.0  0.64350  0.64270  0.50160  1.0000 -0.1067523079
C   C31       1.0  0.72250  0.65790  0.48900  1.0000 0.0071363553
C   C32       1.0  0.72770  0.57890  0.41660  1.0000 -0.1067523079
C   C33       1.0  0.65360  0.48550  0.35570  1.0000 0.0071363553
C   C34       1.0  0.57640  0.47070  0.36930  1.0000 -0.1027786047
C   C35       1.0  0.65230  0.40410  0.26800  1.0000 0.5428841004
C   C36       1.0  0.79720  0.75910  0.54410  1.0000 0.5965438971
C   C37       1.0  0.16890  0.95790  0.72180  1.0000 0.5965438971
C   C38       1.0  0.25610  0.94120  0.73910  1.0000 0.0006068141
C   C39       1.0  0.34470  0.01680  0.81890  1.0000 -0.1027786047
C   C40       1.0  0.42490  0.00120  0.83130  1.0000 -0.002774755
C   C41       1.0  0.41620  0.90920  0.76360  1.0000 -0.1067523079
C   C42       1.0  0.32850  0.83350  0.68540  1.0000 -0.002774755
C   C43       1.0  0.24740  0.84820  0.67260  1.0000 -0.1027786047
C   C44       1.0  0.52040  0.08230  0.91930  1.0000 0.5918445254
C   C45       1.0  0.31890  0.73340  0.61310  1.0000 0.5507264027
C   C46       1.0  0.07920  0.03100  0.54580  1.0000 0.5918445254
C   C47       1.0  0.10750  0.04930  0.47800  1.0000 -0.002774755
C   C48       1.0  0.14110  0.14270  0.49920  1.0000 -0.1067523079
C   C49       1.0  0.16890  0.15790  0.43540  1.0000 0.0071363553
C   C50       1.0  0.16230  0.07890  0.35120  1.0000 -0.1067523079
C   C51       1.0  0.12980  0.98550  0.33190  1.0000 0.0071363553
C   C52       1.0  0.10140  0.97070  0.39430  1.0000 -0.1027786047
C   C53       1.0  0.13610  0.90410  0.25180  1.0000 0.5428841004
C   C54       1.0  0.21500  0.25910  0.46190  1.0000 0.5965438971
C   C55       1.0  0.83110  0.55290  0.78900  1.0000 0.5965438971
C   C56       1.0  0.74390  0.48300  0.68510  1.0000 0.0006068141
C   C57       1.0  0.65530  0.47420  0.67210  1.0000 -0.1027786047
C   C58       1.0  0.57510  0.40640  0.57630  1.0000 -0.002774755
C   C59       1.0  0.58380  0.34740  0.49300  1.0000 -0.1067523079
C   C60       1.0  0.67150  0.35690  0.50500  1.0000 -0.002774755
C   C61       1.0  0.75260  0.42520  0.60080  1.0000 -0.1067523079
C   C62       1.0  0.47960  0.39890  0.56190  1.0000 0.5918445254
C   C63       1.0  0.68110  0.29420  0.41450  1.0000 0.5507264027
C   C64       1.0  0.92080  0.46660  0.95180  1.0000 0.5918445254
C   C65       1.0  0.89250  0.37050  0.94180  1.0000 -0.002774755
C   C66       1.0  0.85890  0.35810  0.00160  1.0000 -0.1067523079
C   C67       1.0  0.83110  0.26650  0.98900  1.0000 0.0071363553
C   C68       1.0  0.83770  0.18890  0.91660  1.0000 -0.1067523079
C   C69       1.0  0.87020  0.20210  0.85570  1.0000 0.0071363553
C   C70       1.0  0.89860  0.29290  0.86930  1.0000 -0.1027786047
C   C71       1.0  0.86390  0.11570  0.76800  1.0000 0.5428841004
C   C72       1.0  0.78500  0.24690  0.04410  1.0000 0.5965438971
O   O1        1.0  0.68690  0.20090  0.16440  1.0000 -0.8708839079
O   O2        1.0  0.78160  0.07340  0.16540  1.0000 -0.5124755761
O   O3        1.0  0.71880  0.08430  0.26550  1.0000 -0.5124755761
O   O4        1.0  0.82520  0.96370  0.48410  1.0000 -0.5379820725
O   O5        1.0  0.85550  0.83290  0.42400  1.0000 -0.5308372488
O   O6        1.0  0.88640  0.72070  0.11390  1.0000 -0.4869312158
O   O7        1.0  0.89070  0.81250  0.05340  1.0000 -0.4455397761
O   O8        1.0  0.57750  0.97250  0.02340  1.0000 -0.5379820725
O   O9        1.0  0.51730  0.03510  0.12240  1.0000 -0.4995844698
O   O10       1.0  0.22730  0.79730  0.05460  1.0000 -0.5230796596
O   O11       1.0  0.12170  0.68230  0.88820  1.0000 -0.4995844698
O   O12       1.0  0.27590  0.53290  0.69340  1.0000 -0.4995844698
O   O13       1.0  0.42040  0.62400  0.74580  1.0000 -0.4995844698
O   O14       1.0  0.31310  0.47750  0.51400  1.0000 -0.8708839079
O   O15       1.0  0.21840  0.38380  0.29180  1.0000 -0.5124755761
O   O16       1.0  0.28120  0.54670  0.36550  1.0000 -0.5124755761
O   O17       1.0  0.17480  0.65890  0.13850  1.0000 -0.5379820725
O   O18       1.0  0.14450  0.56850  0.97740  1.0000 -0.5308372488
O   O19       1.0  0.11360  0.22750  0.83430  1.0000 -0.4869312158
O   O20       1.0  0.10930  0.16270  0.92180  1.0000 -0.4455397761
O   O21       1.0  0.42250  0.44590  0.39500  1.0000 -0.5379820725
O   O22       1.0  0.48270  0.60510  0.51780  1.0000 -0.4995844698
O   O23       1.0  0.77270  0.82730  0.57000  1.0000 -0.5230796596
O   O24       1.0  0.87830  0.76650  0.56060  1.0000 -0.4995844698
O   O25       1.0  0.72410  0.41750  0.25700  1.0000 -0.4995844698
O   O26       1.0  0.57960  0.32540  0.20360  1.0000 -0.4995844698
O   O27       1.0  0.96350  0.97750  0.66440  1.0000 -0.8708839079
O   O28       1.0  0.09200  0.88380  0.66540  1.0000 -0.5124755761
O   O29       1.0  0.18120  0.04670  0.76550  1.0000 -0.5124755761
O   O30       1.0  0.52040  0.15890  0.98410  1.0000 -0.5379820725
O   O31       1.0  0.59110  0.06850  0.92400  1.0000 -0.5308372488
O   O32       1.0  0.39320  0.72750  0.61390  1.0000 -0.4869312158
O   O33       1.0  0.24090  0.66270  0.55340  1.0000 -0.4455397761
O   O34       1.0  0.05090  0.94590  0.52340  1.0000 -0.5379820725
O   O35       1.0  0.08730  0.10510  0.62240  1.0000 -0.4995844698
O   O36       1.0  0.25730  0.32730  0.55460  1.0000 -0.5230796596
O   O37       1.0  0.20590  0.26650  0.38820  1.0000 -0.4995844698
O   O38       1.0  0.16050  0.91750  0.19340  1.0000 -0.4995844698
O   O39       1.0  0.12180  0.82540  0.24580  1.0000 -0.4995844698
O   O40       1.0  0.03650  0.70090  0.01400  1.0000 -0.8708839079
O   O41       1.0  0.90800  0.57340  0.79180  1.0000 -0.5124755761
O   O42       1.0  0.81880  0.58430  0.86550  1.0000 -0.5124755761
O   O43       1.0  0.47960  0.46370  0.63850  1.0000 -0.5379820725
O   O44       1.0  0.40890  0.33290  0.47740  1.0000 -0.5308372488
O   O45       1.0  0.60680  0.22070  0.33430  1.0000 -0.4869312158
O   O46       1.0  0.75910  0.31250  0.42180  1.0000 -0.4455397761
O   O47       1.0  0.94910  0.47250  0.89500  1.0000 -0.5379820725
O   O48       1.0  0.91270  0.53510  0.01780  1.0000 -0.4995844698
O   O49       1.0  0.74270  0.29730  0.07000  1.0000 -0.5230796596
O   O50       1.0  0.79410  0.18230  0.06060  1.0000 -0.4995844698
O   O51       1.0  0.83950  0.03290  0.75700  1.0000 -0.4995844698
O   O52       1.0  0.87820  0.12400  0.70360  1.0000 -0.4995844698
