# DDEC6 charges by PACMAN v1.1 (https://github.com/mtap-research/PACMAN-charge/)
data_2020[Cd][sql]2[ASR]7
_chemical_formula_sum              "Cd2 H42 C56 N14 O12"
_cell_length_a       10.1383
_cell_length_b       10.3748
_cell_length_c       17.7897
_cell_angle_alpha    82.663
_cell_angle_beta     79.554
_cell_angle_gamma    75.94

_symmetry_space_group_name_H-M    "P 1"
_symmetry_Int_Tables_number       1

loop_
  _symmetry_equiv_pos_as_xyz
  'x, y, z'

loop_
  _atom_site_type_symbol
  _atom_site_label
  _atom_site_symmetry_multiplicity
  _atom_site_fract_x
  _atom_site_fract_y
  _atom_site_fract_z
  _atom_site_occupancy
  _atom_site_charge
Cd  Cd1       1.0  0.59027  0.10781  0.05471  1.0000 0.8690120663
Cd  Cd2       1.0  0.40973  0.89219  0.94529  1.0000 0.8690120663
H   H1        1.0  0.58782  0.57683  0.05519  1.0000 0.1287579175
H   H2        1.0  0.27754  0.92622  0.29663  1.0000 0.1287579175
H   H3        1.0  0.79136  0.72931  0.18549  1.0000 0.1191651141
H   H4        1.0  0.80348  0.33323  0.21078  1.0000 0.1191651141
H   H5        1.0  0.46475  0.92551  0.20285  1.0000 0.1118489117
H   H6        1.0  0.94618  0.83221  0.44373  1.0000 0.1118489117
H   H7        1.0  0.39309  0.82485  0.70925  1.0000 0.1191651141
H   H8        1.0  0.30125  0.28291  0.11760  1.0000 0.1191651141
H   H9        1.0  0.48699  0.11108  0.59737  1.0000 0.1191651141
H   H10       1.0  0.79598  0.71101  0.54009  1.0000 0.1287579175
H   H11       1.0  0.87269  0.92014  0.97506  1.0000 0.1118489117
H   H12       1.0  0.68235  0.11386  0.50939  1.0000 0.1191651141
H   H13       1.0  0.10889  0.29778  0.21053  1.0000 0.1287579175
H   H14       1.0  0.88486  0.29149  0.80951  1.0000 0.1287579175
H   H15       1.0  0.60248  0.71003  0.63025  1.0000 0.1287579175
H   H16       1.0  0.70826  0.28840  0.91128  1.0000 0.1191651141
H   H17       1.0  0.05027  0.91150  0.87507  1.0000 0.1424221407
H   H18       1.0  0.09497  0.94517  0.35961  1.0000 0.2628763404
H   H19       1.0  0.21994  0.92199  0.78943  1.0000 0.2697839227
H   H20       1.0  0.92333  0.42277  0.29124  1.0000 0.2963404592
H   H21       1.0  0.95035  0.56901  0.28412  1.0000 0.309012444
H   H22       1.0  0.41218  0.42317  0.94481  1.0000 0.1287579175
H   H23       1.0  0.72246  0.07378  0.70337  1.0000 0.1287579175
H   H24       1.0  0.20864  0.27069  0.81451  1.0000 0.1191651141
H   H25       1.0  0.19652  0.66677  0.78922  1.0000 0.1191651141
H   H26       1.0  0.53525  0.07449  0.79715  1.0000 0.1118489117
H   H27       1.0  0.05382  0.16779  0.55627  1.0000 0.1118489117
H   H28       1.0  0.60691  0.17515  0.29075  1.0000 0.1191651141
H   H29       1.0  0.69875  0.71709  0.88240  1.0000 0.1191651141
H   H30       1.0  0.51301  0.88892  0.40263  1.0000 0.1191651141
H   H31       1.0  0.20402  0.28899  0.45991  1.0000 0.1287579175
H   H32       1.0  0.12731  0.07986  0.02494  1.0000 0.1118489117
H   H33       1.0  0.31765  0.88614  0.49061  1.0000 0.1191651141
H   H34       1.0  0.89111  0.70222  0.78947  1.0000 0.1287579175
H   H35       1.0  0.11514  0.70851  0.19049  1.0000 0.1287579175
H   H36       1.0  0.39752  0.28997  0.36975  1.0000 0.1287579175
H   H37       1.0  0.29174  0.71160  0.08872  1.0000 0.1191651141
H   H38       1.0  0.94973  0.08850  0.12493  1.0000 0.1424221407
H   H39       1.0  0.90503  0.05483  0.64039  1.0000 0.2628763404
H   H40       1.0  0.78006  0.07801  0.21057  1.0000 0.2697839227
H   H41       1.0  0.07667  0.57723  0.70876  1.0000 0.2963404592
H   H42       1.0  0.04965  0.43099  0.71588  1.0000 0.309012444
C   C1        1.0  0.69050  0.43880  0.13030  1.0000 -0.0015548332
C   C2        1.0  0.64410  0.56490  0.09390  1.0000 -0.1804665515
C   C3        1.0  0.68260  0.67290  0.11610  1.0000 -0.0153688181
C   C4        1.0  0.81410  0.52830  0.20830  1.0000 0.309012444
C   C5        1.0  0.65130  0.31910  0.10690  1.0000 0.5461040225
C   C6        1.0  0.09250  0.10900  0.75960  1.0000 0.447229543
C   C7        1.0  0.98430  0.10060  0.82890  1.0000 0.0256677132
C   C8        1.0  0.76030  0.91320  0.51450  1.0000 0.0864582743
C   C9        1.0  0.52360  0.90920  0.62360  1.0000 0.0771214017
C   C10       1.0  0.28010  0.00230  0.26100  1.0000 -0.1804665515
C   C11       1.0  0.76590  0.65430  0.17170  1.0000 -0.2175900292
C   C12       1.0  0.77370  0.42010  0.18670  1.0000 -0.2311626736
C   C13       1.0  0.39140  0.00260  0.20490  1.0000 0.0771214017
C   C14       1.0  0.63940  0.81230  0.07800  1.0000 0.5602374162
C   C15       1.0  0.88370  0.91380  0.45610  1.0000 -0.0096428573
C   C16       1.0  0.17140  0.11180  0.26610  1.0000 0.0115923259
C   C17       1.0  0.40380  0.90630  0.68050  1.0000 -0.0096428573
C   C18       1.0  0.29680  0.21030  0.15560  1.0000 0.0771214017
C   C19       1.0  0.55040  0.02950  0.58610  1.0000 -0.1290437494
C   C20       1.0  0.73360  0.79290  0.55190  1.0000 -0.1485844318
C   C21       1.0  0.87350  0.99690  0.93970  1.0000 0.064035752
C   C22       1.0  0.04380  0.12590  0.32360  1.0000 0.430183896
C   C23       1.0  0.66580  0.03100  0.53360  1.0000 -0.1412347172
C   C24       1.0  0.18110  0.21980  0.21030  1.0000 -0.167820162
C   C25       1.0  0.88320  0.21190  0.84230  1.0000 -0.1617613945
C   C26       1.0  0.61820  0.79260  0.60520  1.0000 -0.1412347172
C   C27       1.0  0.77830  0.20970  0.90340  1.0000 0.0735209819
C   C28       1.0  0.98000  0.99060  0.88060  1.0000 -0.1804665515
C   C29       1.0  0.30950  0.56120  0.86970  1.0000 -0.0015548332
C   C30       1.0  0.35590  0.43510  0.90610  1.0000 -0.1804665515
C   C31       1.0  0.31740  0.32710  0.88390  1.0000 -0.0153688181
C   C32       1.0  0.18590  0.47170  0.79170  1.0000 0.309012444
C   C33       1.0  0.34870  0.68090  0.89310  1.0000 0.5461040225
C   C34       1.0  0.90750  0.89100  0.24040  1.0000 0.447229543
C   C35       1.0  0.01570  0.89940  0.17110  1.0000 0.0256677132
C   C36       1.0  0.23970  0.08680  0.48550  1.0000 0.0864582743
C   C37       1.0  0.47640  0.09080  0.37640  1.0000 0.0771214017
C   C38       1.0  0.71990  0.99770  0.73900  1.0000 -0.1804665515
C   C39       1.0  0.23410  0.34570  0.82830  1.0000 -0.2175900292
C   C40       1.0  0.22630  0.57990  0.81330  1.0000 -0.2311626736
C   C41       1.0  0.60860  0.99740  0.79510  1.0000 0.0771214017
C   C42       1.0  0.36060  0.18770  0.92200  1.0000 0.5602374162
C   C43       1.0  0.11630  0.08620  0.54390  1.0000 -0.0096428573
C   C44       1.0  0.82860  0.88820  0.73390  1.0000 0.0115923259
C   C45       1.0  0.59620  0.09370  0.31950  1.0000 -0.0096428573
C   C46       1.0  0.70320  0.78970  0.84440  1.0000 0.0771214017
C   C47       1.0  0.44960  0.97050  0.41390  1.0000 -0.1290437494
C   C48       1.0  0.26640  0.20710  0.44810  1.0000 -0.1485844318
C   C49       1.0  0.12650  0.00310  0.06030  1.0000 0.064035752
C   C50       1.0  0.95620  0.87410  0.67640  1.0000 0.430183896
C   C51       1.0  0.33420  0.96900  0.46640  1.0000 -0.1412347172
C   C52       1.0  0.81890  0.78020  0.78970  1.0000 -0.167820162
C   C53       1.0  0.11680  0.78810  0.15770  1.0000 -0.1617613945
C   C54       1.0  0.38180  0.20740  0.39480  1.0000 -0.1412347172
C   C55       1.0  0.22170  0.79030  0.09660  1.0000 0.0735209819
C   C56       1.0  0.02000  0.00940  0.11940  1.0000 -0.1804665515
N   N1        1.0  0.20260  0.00290  0.75180  1.0000 -0.25081168
N   N2        1.0  0.40260  0.10560  0.15270  1.0000 -0.2175900292
N   N3        1.0  0.77110  0.10230  0.95140  1.0000 -0.210338733
N   N4        1.0  0.02280  0.01410  0.36870  1.0000 -0.2311626736
N   N5        1.0  0.90630  0.02380  0.42220  1.0000 -0.1175908137
N   N6        1.0  0.31100  0.01410  0.69250  1.0000 -0.1175908137
N   N7        1.0  0.90400  0.51190  0.26010  1.0000 -0.6518912826
N   N8        1.0  0.79740  0.99710  0.24820  1.0000 -0.25081168
N   N9        1.0  0.59740  0.89440  0.84730  1.0000 -0.2175900292
N   N10       1.0  0.22890  0.89770  0.04860  1.0000 -0.210338733
N   N11       1.0  0.97720  0.98590  0.63130  1.0000 -0.2311626736
N   N12       1.0  0.09370  0.97620  0.57780  1.0000 -0.1175908137
N   N13       1.0  0.68900  0.98590  0.30750  1.0000 -0.1175908137
N   N14       1.0  0.09600  0.48810  0.73990  1.0000 -0.6518912826
O   O1        1.0  0.70880  0.20250  0.13440  1.0000 -0.5982379232
O   O2        1.0  0.57090  0.33600  0.05930  1.0000 -0.5311660085
O   O3        1.0  0.69030  0.90100  0.09680  1.0000 -0.5536920044
O   O4        1.0  0.55720  0.83540  0.03190  1.0000 -0.5658976946
O   O5        1.0  0.07900  0.20740  0.71320  1.0000 -0.4721870634
O   O6        1.0  0.96060  0.23260  0.32940  1.0000 -0.4429063711
O   O7        1.0  0.29120  0.79750  0.86560  1.0000 -0.5982379232
O   O8        1.0  0.42910  0.66400  0.94070  1.0000 -0.5311660085
O   O9        1.0  0.30970  0.09900  0.90320  1.0000 -0.5536920044
O   O10       1.0  0.44280  0.16460  0.96810  1.0000 -0.5658976946
O   O11       1.0  0.92100  0.79260  0.28680  1.0000 -0.4721870634
O   O12       1.0  0.03940  0.76740  0.67060  1.0000 -0.4429063711
