# DDEC6 charges by PACMAN v1.1 (https://github.com/mtap-research/PACMAN-charge/)
data_2020[Zn][fes]2[ASR]2
_chemical_formula_sum              "Zn4 H48 C60 N24"
_cell_length_a       10.0732
_cell_length_b       14.79
_cell_length_c       20.613
_cell_angle_alpha    90
_cell_angle_beta     112.192
_cell_angle_gamma    90

_symmetry_space_group_name_H-M    "P 1"
_symmetry_Int_Tables_number       1

loop_
  _symmetry_equiv_pos_as_xyz
  'x, y, z'

loop_
  _atom_site_type_symbol
  _atom_site_label
  _atom_site_symmetry_multiplicity
  _atom_site_fract_x
  _atom_site_fract_y
  _atom_site_fract_z
  _atom_site_occupancy
  _atom_site_charge
Zn  Zn1       1.0  0.07091  0.50464  0.78695  1.0000 0.4630519382
Zn  Zn2       1.0  0.92909  0.00464  0.71305  1.0000 0.4732138248
Zn  Zn3       1.0  0.92909  0.49536  0.21305  1.0000 0.4630519382
Zn  Zn4       1.0  0.07091  0.99536  0.28695  1.0000 0.4630519382
H   H1        1.0  0.14140  0.67380  0.71520  1.0000 0.111533704
H   H2        1.0  0.37610  0.74380  0.74590  1.0000 0.1190876817
H   H3        1.0  0.41130  0.53030  0.86640  1.0000 0.0954567598
H   H4        1.0  0.10190  0.62320  0.03950  1.0000 0.111533704
H   H5        1.0  0.15260  0.55220  0.15280  1.0000 0.111533704
H   H6        1.0  0.73990  0.53880  0.04770  1.0000 0.0946599724
H   H7        1.0  0.09550  0.73030  0.86180  1.0000 0.1190876817
H   H8        1.0  0.14400  0.85080  0.79440  1.0000 0.111533704
H   H9        1.0  0.74340  0.87670  0.77360  1.0000 0.111533704
H   H10       1.0  0.62180  0.58170  0.93910  1.0000 0.111533704
H   H11       1.0  0.98650  0.69880  0.94580  1.0000 0.1190876817
H   H12       1.0  0.62040  0.73580  0.77840  1.0000 0.1190876817
H   H13       1.0  0.85860  0.17380  0.78480  1.0000 0.111533704
H   H14       1.0  0.62390  0.24380  0.75410  1.0000 0.1190876817
H   H15       1.0  0.58870  0.03030  0.63360  1.0000 0.0954567598
H   H16       1.0  0.89810  0.12320  0.46050  1.0000 0.111533704
H   H17       1.0  0.84740  0.05220  0.34720  1.0000 0.111533704
H   H18       1.0  0.26010  0.03880  0.45230  1.0000 0.0946599724
H   H19       1.0  0.90450  0.23030  0.63820  1.0000 0.1190876817
H   H20       1.0  0.85600  0.35080  0.70560  1.0000 0.111533704
H   H21       1.0  0.25660  0.37670  0.72640  1.0000 0.111533704
H   H22       1.0  0.37820  0.08170  0.56090  1.0000 0.111533704
H   H23       1.0  0.01350  0.19880  0.55420  1.0000 0.1190876817
H   H24       1.0  0.37960  0.23580  0.72160  1.0000 0.1190876817
H   H25       1.0  0.85860  0.32620  0.28480  1.0000 0.111533704
H   H26       1.0  0.62390  0.25620  0.25410  1.0000 0.1190876817
H   H27       1.0  0.58870  0.46970  0.13360  1.0000 0.0954567598
H   H28       1.0  0.89810  0.37680  0.96050  1.0000 0.111533704
H   H29       1.0  0.84740  0.44780  0.84720  1.0000 0.111533704
H   H30       1.0  0.26010  0.46120  0.95230  1.0000 0.0946599724
H   H31       1.0  0.90450  0.26970  0.13820  1.0000 0.1190876817
H   H32       1.0  0.85600  0.14920  0.20560  1.0000 0.1190876817
H   H33       1.0  0.25660  0.12330  0.22640  1.0000 0.111533704
H   H34       1.0  0.37820  0.41830  0.06090  1.0000 0.111533704
H   H35       1.0  0.01350  0.30120  0.05420  1.0000 0.1190876817
H   H36       1.0  0.37960  0.26420  0.22160  1.0000 0.1190876817
H   H37       1.0  0.14140  0.82620  0.21520  1.0000 0.111533704
H   H38       1.0  0.37610  0.75620  0.24590  1.0000 0.1190876817
H   H39       1.0  0.41130  0.96970  0.36640  1.0000 0.0946599724
H   H40       1.0  0.10190  0.87680  0.53950  1.0000 0.111533704
H   H41       1.0  0.15260  0.94780  0.65280  1.0000 0.111533704
H   H42       1.0  0.73990  0.96120  0.54770  1.0000 0.0946599724
H   H43       1.0  0.09550  0.76970  0.36180  1.0000 0.1190876817
H   H44       1.0  0.14400  0.64920  0.29440  1.0000 0.111533704
H   H45       1.0  0.74340  0.62330  0.27360  1.0000 0.111533704
H   H46       1.0  0.62180  0.91830  0.43910  1.0000 0.111533704
H   H47       1.0  0.98650  0.80120  0.44580  1.0000 0.1190876817
H   H48       1.0  0.62040  0.76420  0.27840  1.0000 0.1190876817
C   C1        1.0  0.22610  0.65350  0.74970  1.0000 -0.0696114652
C   C2        1.0  0.35500  0.69240  0.76630  1.0000 -0.1388947336
C   C3        1.0  0.37290  0.57450  0.83230  1.0000 -0.0062119553
C   C4        1.0  0.03480  0.59830  0.05530  1.0000 -0.1323216898
C   C5        1.0  0.06220  0.55910  0.11770  1.0000 -0.0924849925
C   C6        1.0  0.83670  0.55210  0.06050  1.0000 0.0109319509
C   C7        1.0  0.03100  0.77410  0.83590  1.0000 -0.1388947336
C   C8        1.0  0.05670  0.84080  0.79880  1.0000 -0.0634787871
C   C9        1.0  0.83690  0.85560  0.78700  1.0000 0.0221124169
C   C10       1.0  0.59870  0.65780  0.85380  1.0000 0.170048923
C   C11       1.0  0.67080  0.61790  0.91860  1.0000 -0.3098314671
C   C12       1.0  0.81500  0.63250  0.95200  1.0000 0.170048923
C   C13       1.0  0.88890  0.68800  0.92260  1.0000 -0.2789816484
C   C14       1.0  0.81460  0.72610  0.85850  1.0000 0.170048923
C   C15       1.0  0.66880  0.71080  0.82240  1.0000 -0.2973524822
C   C16       1.0  0.77390  0.15350  0.75030  1.0000 -0.0696114652
C   C17       1.0  0.64500  0.19240  0.73370  1.0000 -0.1388947336
C   C18       1.0  0.62710  0.07450  0.66770  1.0000 -0.0062119553
C   C19       1.0  0.96520  0.09830  0.44470  1.0000 -0.1323216898
C   C20       1.0  0.93780  0.05910  0.38230  1.0000 -0.0924849925
C   C21       1.0  0.16330  0.05210  0.43950  1.0000 0.0109319509
C   C22       1.0  0.96900  0.27410  0.66410  1.0000 -0.1388947336
C   C23       1.0  0.94330  0.34080  0.70120  1.0000 -0.0634787871
C   C24       1.0  0.16310  0.35560  0.71300  1.0000 0.0221124169
C   C25       1.0  0.40130  0.15780  0.64620  1.0000 0.170048923
C   C26       1.0  0.32920  0.11790  0.58140  1.0000 -0.3098314671
C   C27       1.0  0.18500  0.13250  0.54800  1.0000 0.170048923
C   C28       1.0  0.11110  0.18800  0.57740  1.0000 -0.2789816484
C   C29       1.0  0.18540  0.22610  0.64150  1.0000 0.170048923
C   C30       1.0  0.33120  0.21080  0.67760  1.0000 -0.2973524822
C   C31       1.0  0.77390  0.34650  0.25030  1.0000 -0.0696114652
C   C32       1.0  0.64500  0.30760  0.23370  1.0000 -0.1388947336
C   C33       1.0  0.62710  0.42550  0.16770  1.0000 -0.0062119553
C   C34       1.0  0.96520  0.40170  0.94470  1.0000 -0.1323216898
C   C35       1.0  0.93780  0.44090  0.88230  1.0000 -0.0924849925
C   C36       1.0  0.16330  0.44790  0.93950  1.0000 0.0109319509
C   C37       1.0  0.96900  0.22590  0.16410  1.0000 -0.1388947336
C   C38       1.0  0.94330  0.15920  0.20120  1.0000 -0.0634787871
C   C39       1.0  0.16310  0.14440  0.21300  1.0000 0.0221124169
C   C40       1.0  0.40130  0.34220  0.14620  1.0000 0.170048923
C   C41       1.0  0.32920  0.38210  0.08140  1.0000 -0.3098314671
C   C42       1.0  0.18500  0.36750  0.04800  1.0000 0.170048923
C   C43       1.0  0.11110  0.31200  0.07740  1.0000 -0.2789816484
C   C44       1.0  0.18540  0.27390  0.14150  1.0000 0.170048923
C   C45       1.0  0.33120  0.28920  0.17760  1.0000 -0.2973524822
C   C46       1.0  0.22610  0.84650  0.24970  1.0000 -0.0696114652
C   C47       1.0  0.35500  0.80760  0.26630  1.0000 -0.1388947336
C   C48       1.0  0.37290  0.92550  0.33230  1.0000 -0.0062119553
C   C49       1.0  0.03480  0.90170  0.55530  1.0000 -0.1323216898
C   C50       1.0  0.06220  0.94090  0.61770  1.0000 -0.0924849925
C   C51       1.0  0.83670  0.94790  0.56050  1.0000 0.0109319509
C   C52       1.0  0.03100  0.72590  0.33590  1.0000 -0.1388947336
C   C53       1.0  0.05670  0.65920  0.29880  1.0000 -0.0634787871
C   C54       1.0  0.83690  0.64440  0.28700  1.0000 0.0221124169
C   C55       1.0  0.59870  0.84220  0.35380  1.0000 0.170048923
C   C56       1.0  0.67080  0.88210  0.41860  1.0000 -0.3098314671
C   C57       1.0  0.81500  0.86750  0.45200  1.0000 0.170048923
C   C58       1.0  0.88890  0.81200  0.42260  1.0000 -0.2789816484
C   C59       1.0  0.81460  0.77390  0.35850  1.0000 0.170048923
C   C60       1.0  0.66880  0.78920  0.32240  1.0000 -0.2973524822
N   N1        1.0  0.23810  0.57910  0.79135  1.0000 -0.2789816484
N   N2        1.0  0.44970  0.64140  0.81934  1.0000 0.0109319509
N   N3        1.0  0.93630  0.53080  0.12147  1.0000 -0.2874585358
N   N4        1.0  0.89080  0.59480  0.01956  1.0000 0.0032805255
N   N5        1.0  0.93560  0.89290  0.76792  1.0000 -0.2711014417
N   N6        1.0  0.88940  0.78300  0.82829  1.0000 0.0032805255
N   N7        1.0  0.76190  0.07910  0.70865  1.0000 -0.2711014417
N   N8        1.0  0.55030  0.14140  0.68066  1.0000 0.0109319509
N   N9        1.0  0.06370  0.03080  0.37853  1.0000 -0.2874585358
N   N10       1.0  0.10920  0.09480  0.48044  1.0000 0.0032805255
N   N11       1.0  0.06440  0.39290  0.73208  1.0000 -0.2711014417
N   N12       1.0  0.11060  0.28300  0.67171  1.0000 0.0032805255
N   N13       1.0  0.76190  0.42090  0.20865  1.0000 -0.2789816484
N   N14       1.0  0.55030  0.35860  0.18066  1.0000 0.0109319509
N   N15       1.0  0.06370  0.46920  0.87853  1.0000 -0.2874585358
N   N16       1.0  0.10920  0.40520  0.98044  1.0000 0.0032805255
N   N17       1.0  0.06440  0.10710  0.23208  1.0000 -0.2711014417
N   N18       1.0  0.11060  0.21700  0.17171  1.0000 0.0032805255
N   N19       1.0  0.23810  0.92090  0.29135  1.0000 -0.2789816484
N   N20       1.0  0.44970  0.85860  0.31934  1.0000 0.0109319509
N   N21       1.0  0.93630  0.96920  0.62147  1.0000 -0.2874585358
N   N22       1.0  0.89080  0.90520  0.51956  1.0000 0.0032805255
N   N23       1.0  0.93560  0.60710  0.26792  1.0000 -0.2711014417
N   N24       1.0  0.88940  0.71700  0.32829  1.0000 0.0032805255
