# DDEC6 charges by PACMAN v1.1 (https://github.com/mtap-research/PACMAN-charge/)
data_2020[CuMo][pcu]3[ASR]1
_chemical_formula_sum              "Cu4 Mo16 H50 C54 N42 O28"
_cell_length_a       10.9825
_cell_length_b       10.9825
_cell_length_c       24.981
_cell_angle_alpha    85.1028
_cell_angle_beta     94.8972
_cell_angle_gamma    64.5134

_symmetry_space_group_name_H-M    "P 1"
_symmetry_Int_Tables_number       1

loop_
  _symmetry_equiv_pos_as_xyz
  'x, y, z'

loop_
  _atom_site_type_symbol
  _atom_site_label
  _atom_site_symmetry_multiplicity
  _atom_site_fract_x
  _atom_site_fract_y
  _atom_site_fract_z
  _atom_site_occupancy
  _atom_site_charge
Cu  Cu1       1.0  0.19869  0.68603  0.36148  1.0000 0.3361238285
Cu  Cu2       1.0  0.68603  0.19869  0.13852  1.0000 0.3361238285
Cu  Cu3       1.0  0.80131  0.31397  0.63852  1.0000 0.3361238285
Cu  Cu4       1.0  0.31397  0.80131  0.86148  1.0000 0.3304535691
Mo  Mo1       1.0  0.22451  0.95857  0.41308  1.0000 1.328123395
Mo  Mo2       1.0  0.50183  0.83727  0.50725  1.0000 1.9113072995
Mo  Mo3       1.0  0.23988  0.09978  0.54468  1.0000 1.1023388151
Mo  Mo4       1.0  0.49884  0.05416  0.63046  1.0000 1.1023388151
Mo  Mo5       1.0  0.95857  0.22451  0.08692  1.0000 1.328123395
Mo  Mo6       1.0  0.83727  0.50183  0.99275  1.0000 1.9199007396
Mo  Mo7       1.0  0.09978  0.23988  0.95532  1.0000 1.1023388151
Mo  Mo8       1.0  0.05416  0.49884  0.86954  1.0000 1.1023388151
Mo  Mo9       1.0  0.77549  0.04143  0.58692  1.0000 1.328123395
Mo  Mo10      1.0  0.49817  0.16273  0.49275  1.0000 1.9199007396
Mo  Mo11      1.0  0.76012  0.90022  0.45532  1.0000 1.1062454227
Mo  Mo12      1.0  0.50116  0.94584  0.36954  1.0000 1.1023388151
Mo  Mo13      1.0  0.04143  0.77549  0.91308  1.0000 1.322845364
Mo  Mo14      1.0  0.16273  0.49817  0.00725  1.0000 1.9113072995
Mo  Mo15      1.0  0.90022  0.76012  0.04468  1.0000 1.1062454227
Mo  Mo16      1.0  0.94584  0.50116  0.13046  1.0000 1.1023388151
H   H1        1.0  0.19420  0.83160  0.54130  1.0000 0.1106229897
H   H2        1.0  0.20000  0.51120  0.47960  1.0000 0.1313799415
H   H3        1.0  0.17990  0.42410  0.56840  1.0000 0.1313799415
H   H4        1.0  0.19550  0.34510  0.65930  1.0000 0.1106229897
H   H5        1.0  0.23140  0.46700  0.72670  1.0000 0.1106229897
H   H6        1.0  0.30270  0.58970  0.78640  1.0000 0.0994781698
H   H7        1.0  0.22690  0.86690  0.66240  1.0000 0.1179289216
H   H8        1.0  0.11390  0.28630  0.39410  1.0000 0.1179289216
H   H9        1.0  0.19700  0.48700  0.27750  1.0000 0.1179289216
H   H10       1.0  0.01880  0.20340  0.31180  1.0000 0.0994781698
H   H11       1.0  0.14230  0.91510  0.33910  1.0000 0.2188261766
H   H12       1.0  0.29790  0.83350  0.34950  1.0000 0.2103775535
H   H13       1.0  0.83160  0.19420  0.95870  1.0000 0.1106229897
H   H14       1.0  0.51120  0.20000  0.02040  1.0000 0.1313799415
H   H15       1.0  0.42410  0.17990  0.93160  1.0000 0.1313799415
H   H16       1.0  0.34510  0.19550  0.84070  1.0000 0.1106229897
H   H17       1.0  0.46700  0.23140  0.77330  1.0000 0.1106229897
H   H18       1.0  0.58970  0.30270  0.71360  1.0000 0.0994781698
H   H19       1.0  0.86690  0.22690  0.83760  1.0000 0.1179289216
H   H20       1.0  0.28630  0.11390  0.10590  1.0000 0.1179289216
H   H21       1.0  0.48700  0.19700  0.22250  1.0000 0.1179289216
H   H22       1.0  0.20340  0.01880  0.18820  1.0000 0.0994781698
H   H23       1.0  0.91510  0.14230  0.16090  1.0000 0.2188261766
H   H24       1.0  0.83350  0.29790  0.15050  1.0000 0.2103775535
H   H25       1.0  0.80580  0.16840  0.45870  1.0000 0.1106229897
H   H26       1.0  0.80000  0.48880  0.52040  1.0000 0.1313799415
H   H27       1.0  0.82010  0.57590  0.43160  1.0000 0.1313799415
H   H28       1.0  0.80450  0.65490  0.34070  1.0000 0.1106229897
H   H29       1.0  0.76860  0.53300  0.27330  1.0000 0.1106229897
H   H30       1.0  0.69730  0.41030  0.21360  1.0000 0.0994781698
H   H31       1.0  0.77310  0.13310  0.33760  1.0000 0.1179289216
H   H32       1.0  0.88610  0.71370  0.60590  1.0000 0.1179289216
H   H33       1.0  0.80300  0.51300  0.72250  1.0000 0.1179289216
H   H34       1.0  0.98120  0.79660  0.68820  1.0000 0.0994781698
H   H35       1.0  0.85770  0.08490  0.66090  1.0000 0.2188261766
H   H36       1.0  0.70210  0.16650  0.65050  1.0000 0.2103775535
H   H37       1.0  0.16840  0.80580  0.04130  1.0000 0.1106229897
H   H38       1.0  0.48880  0.80000  0.97960  1.0000 0.1313799415
H   H39       1.0  0.57590  0.82010  0.06840  1.0000 0.1313799415
H   H40       1.0  0.65490  0.80450  0.15930  1.0000 0.1106229897
H   H41       1.0  0.53300  0.76860  0.22670  1.0000 0.1106229897
H   H42       1.0  0.41030  0.69730  0.28640  1.0000 0.0994781698
H   H43       1.0  0.13310  0.77310  0.16240  1.0000 0.1179289216
H   H44       1.0  0.71370  0.88610  0.89410  1.0000 0.1179289216
H   H45       1.0  0.51300  0.80300  0.77750  1.0000 0.1179289216
H   H46       1.0  0.79660  0.98120  0.81180  1.0000 0.0994781698
H   H47       1.0  0.08490  0.85770  0.83910  1.0000 0.2188261766
H   H48       1.0  0.16650  0.70210  0.84950  1.0000 0.2103775535
H   H49       1.0  0.04740  0.04740  0.25000  1.0000 0.0680918861
H   H50       1.0  0.95260  0.95260  0.75000  1.0000 0.0680918861
C   C1        1.0  0.19590  0.77150  0.51700  1.0000 0.0484264759
C   C2        1.0  0.19890  0.59530  0.48300  1.0000 0.0994781698
C   C3        1.0  0.20800  0.58840  0.58500  1.0000 0.2700086031
C   C4        1.0  0.19450  0.47030  0.59580  1.0000 -0.2419721987
C   C5        1.0  0.20380  0.42460  0.64970  1.0000 -0.0076526912
C   C6        1.0  0.22580  0.49620  0.69020  1.0000 -0.2886942025
C   C7        1.0  0.23830  0.61090  0.67320  1.0000 0.263055617
C   C8        1.0  0.28800  0.66980  0.76520  1.0000 0.0066768374
C   C9        1.0  0.24710  0.82150  0.69750  1.0000 0.0484264759
C   C10       1.0  0.13250  0.35110  0.37490  1.0000 0.0994781698
C   C11       1.0  0.17810  0.45990  0.31080  1.0000 0.0928978305
C   C12       1.0  0.16000  0.25740  0.28520  1.0000 0.2871293817
C   C13       1.0  0.08060  0.18900  0.28700  1.0000 -0.2837344265
C   C14       1.0  0.77150  0.19590  0.98300  1.0000 0.0484264759
C   C15       1.0  0.59530  0.19890  0.01700  1.0000 0.0994781698
C   C16       1.0  0.58840  0.20800  0.91500  1.0000 0.2700086031
C   C17       1.0  0.47030  0.19450  0.90420  1.0000 -0.2419721987
C   C18       1.0  0.42460  0.20380  0.85030  1.0000 -0.0076526912
C   C19       1.0  0.49620  0.22580  0.80980  1.0000 -0.2886942025
C   C20       1.0  0.61090  0.23830  0.82680  1.0000 0.263055617
C   C21       1.0  0.66980  0.28800  0.73480  1.0000 0.0037669344
C   C22       1.0  0.82150  0.24710  0.80250  1.0000 0.0484264759
C   C23       1.0  0.35110  0.13250  0.12510  1.0000 0.0994781698
C   C24       1.0  0.45990  0.17810  0.18920  1.0000 0.0928978305
C   C25       1.0  0.25740  0.16000  0.21480  1.0000 0.2871293817
C   C26       1.0  0.18900  0.08060  0.21300  1.0000 -0.2837344265
C   C27       1.0  0.80410  0.22850  0.48300  1.0000 0.0484264759
C   C28       1.0  0.80110  0.40470  0.51700  1.0000 0.0994781698
C   C29       1.0  0.79200  0.41160  0.41500  1.0000 0.2700086031
C   C30       1.0  0.80550  0.52970  0.40420  1.0000 -0.2419721987
C   C31       1.0  0.79620  0.57540  0.35030  1.0000 -0.0076526912
C   C32       1.0  0.77420  0.50380  0.30980  1.0000 -0.2886942025
C   C33       1.0  0.76170  0.38910  0.32680  1.0000 0.263055617
C   C34       1.0  0.71200  0.33020  0.23480  1.0000 0.0066768374
C   C35       1.0  0.75290  0.17850  0.30250  1.0000 0.0484264759
C   C36       1.0  0.86750  0.64890  0.62510  1.0000 0.0994781698
C   C37       1.0  0.82190  0.54010  0.68920  1.0000 0.0928978305
C   C38       1.0  0.84000  0.74260  0.71480  1.0000 0.2871293817
C   C39       1.0  0.91940  0.81100  0.71300  1.0000 -0.2837344265
C   C40       1.0  0.22850  0.80410  0.01700  1.0000 0.0484264759
C   C41       1.0  0.40470  0.80110  0.98300  1.0000 0.0994781698
C   C42       1.0  0.41160  0.79200  0.08500  1.0000 0.2700086031
C   C43       1.0  0.52970  0.80550  0.09580  1.0000 -0.2419721987
C   C44       1.0  0.57540  0.79620  0.14970  1.0000 -0.0076526912
C   C45       1.0  0.50380  0.77420  0.19020  1.0000 -0.2886942025
C   C46       1.0  0.38910  0.76170  0.17320  1.0000 0.263055617
C   C47       1.0  0.33020  0.71200  0.26520  1.0000 0.0037669344
C   C48       1.0  0.17850  0.75290  0.19750  1.0000 0.0484264759
C   C49       1.0  0.64890  0.86750  0.87490  1.0000 0.0994781698
C   C50       1.0  0.54010  0.82190  0.81080  1.0000 0.0928978305
C   C51       1.0  0.74260  0.84000  0.78520  1.0000 0.2871293817
C   C52       1.0  0.81100  0.91940  0.78700  1.0000 -0.2886942025
C   C53       1.0  0.09750  0.09750  0.25000  1.0000 -0.0906449575
C   C54       1.0  0.90250  0.90250  0.75000  1.0000 -0.0906449575
N   N1        1.0  0.19420  0.79420  0.46474  1.0000 -0.3072141167
N   N2        1.0  0.19550  0.68150  0.44299  1.0000 -0.1992945485
N   N3        1.0  0.20050  0.64750  0.53051  1.0000 -0.0368808973
N   N4        1.0  0.25930  0.69370  0.71061  1.0000 -0.0479520429
N   N5        1.0  0.29220  0.77480  0.78360  1.0000 -0.1992945485
N   N6        1.0  0.26750  0.87170  0.74070  1.0000 -0.2186640259
N   N7        1.0  0.17160  0.52220  0.35380  1.0000 -0.2077853623
N   N8        1.0  0.14170  0.45250  0.39510  1.0000 -0.2077853623
N   N9        1.0  0.15350  0.35170  0.32210  1.0000 -0.0479520429
N   N10       1.0  0.23100  0.65860  0.62196  1.0000 -0.3968161102
N   N11       1.0  0.79420  0.19420  0.03526  1.0000 -0.3072141167
N   N12       1.0  0.68150  0.19550  0.05701  1.0000 -0.1992945485
N   N13       1.0  0.64750  0.20050  0.96949  1.0000 -0.0368808973
N   N14       1.0  0.69370  0.25930  0.78939  1.0000 -0.0479520429
N   N15       1.0  0.77480  0.29220  0.71640  1.0000 -0.1992945485
N   N16       1.0  0.87170  0.26750  0.75930  1.0000 -0.2186640259
N   N17       1.0  0.52220  0.17160  0.14620  1.0000 -0.2077853623
N   N18       1.0  0.45250  0.14170  0.10490  1.0000 -0.2077853623
N   N19       1.0  0.35170  0.15350  0.17790  1.0000 -0.0479520429
N   N20       1.0  0.65860  0.23100  0.87804  1.0000 -0.3968161102
N   N21       1.0  0.80580  0.20580  0.53526  1.0000 -0.3072141167
N   N22       1.0  0.80450  0.31850  0.55701  1.0000 -0.1992945485
N   N23       1.0  0.79950  0.35250  0.46949  1.0000 -0.0368808973
N   N24       1.0  0.74070  0.30630  0.28939  1.0000 -0.0479520429
N   N25       1.0  0.70780  0.22520  0.21640  1.0000 -0.1992945485
N   N26       1.0  0.73250  0.12830  0.25930  1.0000 -0.2186640259
N   N27       1.0  0.82840  0.47780  0.64620  1.0000 -0.2077853623
N   N28       1.0  0.85830  0.54750  0.60490  1.0000 -0.2077853623
N   N29       1.0  0.84650  0.64830  0.67790  1.0000 -0.0479520429
N   N30       1.0  0.76900  0.34140  0.37804  1.0000 -0.3968161102
N   N31       1.0  0.20580  0.80580  0.96474  1.0000 -0.3072141167
N   N32       1.0  0.31850  0.80450  0.94299  1.0000 -0.1992945485
N   N33       1.0  0.35250  0.79950  0.03051  1.0000 -0.0368808973
N   N34       1.0  0.30630  0.74070  0.21061  1.0000 -0.0479520429
N   N35       1.0  0.22520  0.70780  0.28360  1.0000 -0.1992945485
N   N36       1.0  0.12830  0.73250  0.24070  1.0000 -0.2186640259
N   N37       1.0  0.47780  0.82840  0.85380  1.0000 -0.2077853623
N   N38       1.0  0.54750  0.85830  0.89510  1.0000 -0.2077853623
N   N39       1.0  0.64830  0.84650  0.82210  1.0000 -0.0479520429
N   N40       1.0  0.34140  0.76900  0.12196  1.0000 -0.3943996485
N   N41       1.0  0.24650  0.24650  0.25000  1.0000 -0.3968161102
N   N42       1.0  0.75350  0.75350  0.75000  1.0000 -0.3968161102
O   O1        1.0  0.21630  0.85170  0.36611  1.0000 -0.5124202724
O   O2        1.0  0.30520  0.05180  0.37786  1.0000 -0.7579372581
O   O3        1.0  0.45130  0.81770  0.43579  1.0000 -0.9213408735
O   O4        1.0  0.28380  0.97980  0.48776  1.0000 -0.9483560826
O   O5        1.0  0.67730  0.77530  0.50979  1.0000 -0.7293861266
O   O6        1.0  0.46670  0.98250  0.55131  1.0000 -1.0318871792
O   O7        1.0  0.31290  0.16850  0.59985  1.0000 -0.7711026128
O   O8        1.0  0.85170  0.21630  0.13389  1.0000 -0.5124202724
O   O9        1.0  0.05180  0.30520  0.12214  1.0000 -0.7579372581
O   O10       1.0  0.81770  0.45130  0.06421  1.0000 -0.9213408735
O   O11       1.0  0.97980  0.28380  0.01224  1.0000 -0.9483560826
O   O12       1.0  0.77530  0.67730  0.99021  1.0000 -0.7293861266
O   O13       1.0  0.98250  0.46670  0.94869  1.0000 -1.0318871792
O   O14       1.0  0.16850  0.31290  0.90015  1.0000 -0.7711026128
O   O15       1.0  0.78370  0.14830  0.63389  1.0000 -0.5124202724
O   O16       1.0  0.69480  0.94820  0.62214  1.0000 -0.7579372581
O   O17       1.0  0.54870  0.18230  0.56421  1.0000 -0.9213408735
O   O18       1.0  0.71620  0.02020  0.51224  1.0000 -0.9483560826
O   O19       1.0  0.32270  0.22470  0.49021  1.0000 -0.7293861266
O   O20       1.0  0.53330  0.01750  0.44869  1.0000 -1.0318871792
O   O21       1.0  0.68710  0.83150  0.40015  1.0000 -0.7711026128
O   O22       1.0  0.14830  0.78370  0.86611  1.0000 -0.5124202724
O   O23       1.0  0.94820  0.69480  0.87786  1.0000 -0.7579372581
O   O24       1.0  0.18230  0.54870  0.93579  1.0000 -0.9213408735
O   O25       1.0  0.02020  0.71620  0.98776  1.0000 -0.9483560826
O   O26       1.0  0.22470  0.32270  0.00979  1.0000 -0.7293861266
O   O27       1.0  0.01750  0.53330  0.05131  1.0000 -1.0318871792
O   O28       1.0  0.83150  0.68710  0.09985  1.0000 -0.7711026128
