# DDEC6 charges by PACMAN v1.1 (https://github.com/mtap-research/PACMAN-charge/)
data_2020[La][nan]2[ASR]1
_chemical_formula_sum              "La2 H26 C40 N4 O14"
_cell_length_a       14.0369
_cell_length_b       14.0369
_cell_length_c       19.0822
_cell_angle_alpha    50.2597
_cell_angle_beta     129.74
_cell_angle_gamma    141.568

_symmetry_space_group_name_H-M    "P 1"
_symmetry_Int_Tables_number       1

loop_
  _symmetry_equiv_pos_as_xyz
  'x, y, z'

loop_
  _atom_site_type_symbol
  _atom_site_label
  _atom_site_symmetry_multiplicity
  _atom_site_fract_x
  _atom_site_fract_y
  _atom_site_fract_z
  _atom_site_occupancy
  _atom_site_charge
La  La1       1.0  0.67749  0.23415  0.46646  1.0000 1.9045372657
La  La2       1.0  0.23415  0.67749  0.53354  1.0000 1.9045372657
H   H1        1.0  0.87195  0.34541  0.12884  1.0000 0.112183766
H   H2        1.0  0.85977  0.39213  0.21763  1.0000 0.1212014131
H   H3        1.0  0.60205  0.92607  0.35557  1.0000 0.1212014131
H   H4        1.0  0.62838  0.88320  0.27192  1.0000 0.112183766
H   H5        1.0  0.64577  0.21625  0.01783  1.0000 0.1212014131
H   H6        1.0  0.55587  0.26789  0.85400  1.0000 0.1212014131
H   H7        1.0  0.77564  0.16250  0.88063  1.0000 0.1312855292
H   H8        1.0  0.86554  0.11086  0.04446  1.0000 0.1312855292
H   H9        1.0  0.02775  0.11281  0.28028  1.0000 0.1312855292
H   H10       1.0  0.07389  0.93093  0.37687  1.0000 0.1378311268
H   H11       1.0  0.63036  0.60408  0.24455  1.0000 0.1212014131
H   H12       1.0  0.58420  0.78596  0.14797  1.0000 0.1312855292
H   H13       1.0  0.96086  0.36630  0.62957  1.0000 0.3903213493
H   H14       1.0  0.34541  0.87195  0.87116  1.0000 0.112183766
H   H15       1.0  0.39213  0.85977  0.78237  1.0000 0.1212014131
H   H16       1.0  0.92607  0.60205  0.64443  1.0000 0.1212014131
H   H17       1.0  0.88320  0.62838  0.72808  1.0000 0.112183766
H   H18       1.0  0.21625  0.64577  0.98217  1.0000 0.1212014131
H   H19       1.0  0.26789  0.55587  0.14600  1.0000 0.1212014131
H   H20       1.0  0.16250  0.77564  0.11937  1.0000 0.1312855292
H   H21       1.0  0.11086  0.86554  0.95554  1.0000 0.1312855292
H   H22       1.0  0.11281  0.02775  0.71972  1.0000 0.1312855292
H   H23       1.0  0.93093  0.07389  0.62313  1.0000 0.1378311268
H   H24       1.0  0.60408  0.63036  0.75545  1.0000 0.1212014131
H   H25       1.0  0.78596  0.58420  0.85203  1.0000 0.1312855292
H   H26       1.0  0.36630  0.96086  0.37043  1.0000 0.3903213493
C   C1        1.0  0.77330  0.12470  0.19560  1.0000 0.1797819115
C   C2        1.0  0.82510  0.26090  0.17820  1.0000 -0.1802765288
C   C3        1.0  0.81520  0.28880  0.23110  1.0000 -0.0786793208
C   C4        1.0  0.74560  0.17440  0.29900  1.0000 -0.032472244
C   C5        1.0  0.66290  0.01110  0.31300  1.0000 -0.0786793208
C   C6        1.0  0.67790  0.98610  0.26300  1.0000 -0.189113714
C   C7        1.0  0.72660  0.19540  0.35570  1.0000 0.5643155329
C   C8        1.0  0.76410  0.15790  0.04740  1.0000 0.1797819115
C   C9        1.0  0.67220  0.20580  0.99030  1.0000 -0.189113714
C   C10       1.0  0.61780  0.23620  0.89220  1.0000 -0.1473694839
C   C11       1.0  0.65730  0.22070  0.85110  1.0000 0.0329465936
C   C12       1.0  0.74920  0.17280  0.90810  1.0000 -0.1278283023
C   C13       1.0  0.80360  0.14240  0.00630  1.0000 -0.1802765288
C   C14       1.0  0.80140  0.96740  0.20450  1.0000 0.173240935
C   C15       1.0  0.94810  0.01090  0.27310  1.0000 -0.189113714
C   C16       1.0  0.97570  0.90190  0.33100  1.0000 -0.0786793208
C   C17       1.0  0.85670  0.74950  0.32030  1.0000 -0.0564815127
C   C18       1.0  0.71000  0.70600  0.25170  1.0000 -0.0786793208
C   C19       1.0  0.68240  0.81500  0.19380  1.0000 -0.1961150118
C   C20       1.0  0.87540  0.62260  0.38190  1.0000 0.6292242459
C   C21       1.0  0.12470  0.77330  0.80440  1.0000 0.1797819115
C   C22       1.0  0.26090  0.82510  0.82180  1.0000 -0.1802765288
C   C23       1.0  0.28880  0.81520  0.76890  1.0000 -0.0786793208
C   C24       1.0  0.17440  0.74560  0.70100  1.0000 -0.032472244
C   C25       1.0  0.01110  0.66290  0.68700  1.0000 -0.0786793208
C   C26       1.0  0.98610  0.67790  0.73700  1.0000 -0.189113714
C   C27       1.0  0.19540  0.72660  0.64430  1.0000 0.5643155329
C   C28       1.0  0.15790  0.76410  0.95260  1.0000 0.1797819115
C   C29       1.0  0.20580  0.67220  0.00970  1.0000 -0.189113714
C   C30       1.0  0.23620  0.61780  0.10780  1.0000 -0.1473694839
C   C31       1.0  0.22070  0.65730  0.14890  1.0000 0.0329465936
C   C32       1.0  0.17280  0.74920  0.09190  1.0000 -0.1278283023
C   C33       1.0  0.14240  0.80360  0.99370  1.0000 -0.1802765288
C   C34       1.0  0.96740  0.80140  0.79550  1.0000 0.173240935
C   C35       1.0  0.01090  0.94810  0.72690  1.0000 -0.189113714
C   C36       1.0  0.90190  0.97570  0.66900  1.0000 -0.0786793208
C   C37       1.0  0.74950  0.85670  0.67970  1.0000 -0.0564815127
C   C38       1.0  0.70600  0.71000  0.74830  1.0000 -0.0786793208
C   C39       1.0  0.81500  0.68240  0.80620  1.0000 -0.1961150118
C   C40       1.0  0.62260  0.87540  0.61810  1.0000 0.6292242459
N   N1        1.0  0.63840  0.28960  0.74710  1.0000 0.4834164433
N   N2        1.0  0.78810  0.09390  0.14740  1.0000 -0.189113714
N   N3        1.0  0.28960  0.63840  0.25290  1.0000 0.4834164433
N   N4        1.0  0.09390  0.78810  0.85260  1.0000 -0.1802765288
O   O1        1.0  0.63250  0.06950  0.41160  1.0000 -0.6014776178
O   O2        1.0  0.79330  0.33290  0.34670  1.0000 -0.5812765606
O   O3        1.0  0.55270  0.32330  0.69960  1.0000 -0.332702572
O   O4        1.0  0.68210  0.27590  0.71660  1.0000 -0.354154373
O   O5        1.0  0.00790  0.65810  0.43950  1.0000 -0.5871359952
O   O6        1.0  0.76160  0.49440  0.36420  1.0000 -0.6056157001
O   O7        1.0  0.95840  0.34960  0.59260  1.0000 -0.9775749989
O   O8        1.0  0.06950  0.63250  0.58840  1.0000 -0.6014776178
O   O9        1.0  0.33290  0.79330  0.65330  1.0000 -0.5812765606
O   O10       1.0  0.32330  0.55270  0.30040  1.0000 -0.3359264084
O   O11       1.0  0.27590  0.68210  0.28340  1.0000 -0.357736642
O   O12       1.0  0.65810  0.00790  0.56050  1.0000 -0.5871359952
O   O13       1.0  0.49440  0.76160  0.63580  1.0000 -0.6056157001
O   O14       1.0  0.34960  0.95840  0.40740  1.0000 -0.9775749989
