# DDEC6 charges by PACMAN v1.1 (https://github.com/mtap-research/PACMAN-charge/)
data_2020[Cu][dia]3[ASR]2
_chemical_formula_sum              "Cu2 H70 C50 N20"
_cell_length_a       12.4586
_cell_length_b       14.1036
_cell_length_c       14.1893
_cell_angle_alpha    89.749
_cell_angle_beta     114.018
_cell_angle_gamma    96.139

_symmetry_space_group_name_H-M    "P 1"
_symmetry_Int_Tables_number       1

loop_
  _symmetry_equiv_pos_as_xyz
  'x, y, z'

loop_
  _atom_site_type_symbol
  _atom_site_label
  _atom_site_symmetry_multiplicity
  _atom_site_fract_x
  _atom_site_fract_y
  _atom_site_fract_z
  _atom_site_occupancy
  _atom_site_charge
Cu  Cu1       1.0  0.86891  0.21587  0.87182  1.0000 0.3653093616
Cu  Cu2       1.0  0.13109  0.78413  0.12818  1.0000 0.3647920529
H   H1        1.0  0.79219  0.14040  0.05360  1.0000 0.0915012161
H   H2        1.0  0.74621  0.00029  0.80175  1.0000 0.1085899996
H   H3        1.0  0.64890  0.25421  0.92968  1.0000 0.0996377598
H   H4        1.0  0.93488  0.42387  0.97021  1.0000 0.1085899996
H   H5        1.0  0.68109  0.34100  0.72282  1.0000 0.1085899996
H   H6        1.0  0.99364  0.32373  0.72705  1.0000 0.1187414991
H   H7        1.0  0.03598  0.04833  0.91692  1.0000 0.1187414991
H   H8        1.0  0.83221  0.14078  0.65053  1.0000 0.1085899996
H   H9        1.0  0.65113  0.89781  0.89078  1.0000 0.1187414991
H   H10       1.0  0.81913  0.50912  0.03704  1.0000 0.1187414991
H   H11       1.0  0.89851  0.44128  0.60290  1.0000 0.1187414991
H   H12       1.0  0.04467  0.94658  0.78380  1.0000 0.1085899996
H   H13       1.0  0.68637  0.02525  0.13217  1.0000 0.0996377598
H   H14       1.0  0.69521  0.91879  0.10756  1.0000 0.0996377598
H   H15       1.0  0.63883  0.41047  0.10075  1.0000 0.0996377598
H   H16       1.0  0.54479  0.35032  0.00425  1.0000 0.0996377598
H   H17       1.0  0.65358  0.46165  0.50339  1.0000 0.1085899996
H   H18       1.0  0.59126  0.44466  0.57921  1.0000 0.0996377598
H   H19       1.0  0.83861  0.01882  0.52656  1.0000 0.0996377598
H   H20       1.0  0.88828  0.92358  0.57302  1.0000 0.0996377598
H   H21       1.0  0.50165  0.94097  0.08118  1.0000 0.0915012161
H   H22       1.0  0.50665  0.90337  0.97946  1.0000 0.0915012161
H   H23       1.0  0.51744  0.48940  0.90751  1.0000 0.0996377598
H   H24       1.0  0.60892  0.54907  0.00606  1.0000 0.0915012161
H   H25       1.0  0.62321  0.60110  0.56937  1.0000 0.0915012161
H   H26       1.0  0.75470  0.59631  0.58643  1.0000 0.0915012161
H   H27       1.0  0.07915  0.99102  0.60345  1.0000 0.0915012161
H   H28       1.0  0.03033  0.08702  0.55837  1.0000 0.0915012161
H   H29       1.0  0.67153  0.56290  0.74207  1.0000 0.0996377598
H   H30       1.0  0.80394  0.56173  0.75860  1.0000 0.0996377598
H   H31       1.0  0.67881  0.72021  0.71293  1.0000 0.0996377598
H   H32       1.0  0.80341  0.72189  0.70983  1.0000 0.0915012161
H   H33       1.0  0.68012  0.69972  0.90995  1.0000 0.1085899996
H   H34       1.0  0.98269  0.74528  0.88010  1.0000 0.0996377598
H   H35       1.0  0.83605  0.74036  0.07647  1.0000 0.1085899996
H   H36       1.0  0.20781  0.85960  0.94640  1.0000 0.0915012161
H   H37       1.0  0.25379  0.99971  0.19825  1.0000 0.1085899996
H   H38       1.0  0.35110  0.74579  0.07032  1.0000 0.0996377598
H   H39       1.0  0.06512  0.57613  0.02979  1.0000 0.1085899996
H   H40       1.0  0.31891  0.65900  0.27718  1.0000 0.1085899996
H   H41       1.0  0.00636  0.67627  0.27295  1.0000 0.1187414991
H   H42       1.0  0.96402  0.95167  0.08308  1.0000 0.1187414991
H   H43       1.0  0.16779  0.85922  0.34947  1.0000 0.1085899996
H   H44       1.0  0.34887  0.10219  0.10922  1.0000 0.1187414991
H   H45       1.0  0.18087  0.49088  0.96296  1.0000 0.1187414991
H   H46       1.0  0.10149  0.55872  0.39710  1.0000 0.1187414991
H   H47       1.0  0.95533  0.05342  0.21620  1.0000 0.1085899996
H   H48       1.0  0.31363  0.97475  0.86783  1.0000 0.0996377598
H   H49       1.0  0.30479  0.08121  0.89244  1.0000 0.0996377598
H   H50       1.0  0.36117  0.58953  0.89925  1.0000 0.0996377598
H   H51       1.0  0.45521  0.64968  0.99575  1.0000 0.0996377598
H   H52       1.0  0.34642  0.53835  0.49661  1.0000 0.1085899996
H   H53       1.0  0.40874  0.55534  0.42079  1.0000 0.0996377598
H   H54       1.0  0.16139  0.98118  0.47344  1.0000 0.0996377598
H   H55       1.0  0.11172  0.07642  0.42698  1.0000 0.0996377598
H   H56       1.0  0.49835  0.05903  0.91882  1.0000 0.0915012161
H   H57       1.0  0.49335  0.09663  0.02054  1.0000 0.0915012161
H   H58       1.0  0.48256  0.51060  0.09249  1.0000 0.0996377598
H   H59       1.0  0.39108  0.45093  0.99394  1.0000 0.0915012161
H   H60       1.0  0.37679  0.39890  0.43063  1.0000 0.0843141267
H   H61       1.0  0.24530  0.40369  0.41357  1.0000 0.0915012161
H   H62       1.0  0.92085  0.00898  0.39655  1.0000 0.0915012161
H   H63       1.0  0.96967  0.91298  0.44163  1.0000 0.0996377598
H   H64       1.0  0.32847  0.43710  0.25793  1.0000 0.0996377598
H   H65       1.0  0.19606  0.43827  0.24140  1.0000 0.0996377598
H   H66       1.0  0.32119  0.27979  0.28707  1.0000 0.0996377598
H   H67       1.0  0.19659  0.27811  0.29017  1.0000 0.0915012161
H   H68       1.0  0.31988  0.30028  0.09005  1.0000 0.1085899996
H   H69       1.0  0.01731  0.25472  0.11990  1.0000 0.0996377598
H   H70       1.0  0.16395  0.25964  0.92353  1.0000 0.1085899996
C   C1        1.0  0.76900  0.09300  0.00160  1.0000 0.0038092683
C   C2        1.0  0.74290  0.01620  0.86400  1.0000 -0.044922143
C   C3        1.0  0.70650  0.30660  0.94910  1.0000 0.0371766647
C   C4        1.0  0.86310  0.39970  0.97150  1.0000 -0.0679747032
C   C5        1.0  0.74800  0.35110  0.70880  1.0000 0.0208439735
C   C6        1.0  0.91890  0.34180  0.71200  1.0000 -0.0679747032
C   C7        1.0  0.99650  0.05460  0.84610  1.0000 -0.0516853269
C   C8        1.0  0.88390  0.10510  0.70040  1.0000 0.0282412782
C   C9        1.0  0.69140  0.95850  0.91300  1.0000 -0.140434294
C   C10       1.0  0.79930  0.44750  0.00760  1.0000 -0.1589278428
C   C11       1.0  0.86570  0.40590  0.64210  1.0000 -0.1109336538
C   C12       1.0  0.00000  0.99750  0.77320  1.0000 -0.1589278428
C   C13       1.0  0.66260  0.97660  0.07720  1.0000 -0.1472773751
C   C14       1.0  0.60540  0.40460  0.02590  1.0000 -0.1472773751
C   C15       1.0  0.66500  0.46860  0.57490  1.0000 -0.1664274966
C   C16       1.0  0.90630  0.99250  0.57750  1.0000 -0.1472773751
C   C17       1.0  0.52970  0.95770  0.02810  1.0000 -0.2180216392
C   C18       1.0  0.54960  0.49400  0.98230  1.0000 -0.2180216392
C   C19       1.0  0.69270  0.56920  0.60670  1.0000 -0.1884193903
C   C20       1.0  0.01160  0.01820  0.55330  1.0000 -0.2111852279
C   C21       1.0  0.73200  0.59040  0.72030  1.0000 -0.2491769304
C   C22       1.0  0.75350  0.69340  0.74240  1.0000 -0.140434294
C   C23       1.0  0.76000  0.71450  0.92450  1.0000 -0.1772122269
C   C24       1.0  0.92730  0.73970  0.90880  1.0000 0.0371766647
C   C25       1.0  0.84610  0.73630  0.01520  1.0000 -0.0565920582
C   C26       1.0  0.23100  0.90700  0.99840  1.0000 0.0038092683
C   C27       1.0  0.25710  0.98380  0.13600  1.0000 -0.0516853269
C   C28       1.0  0.29350  0.69340  0.05090  1.0000 0.0371766647
C   C29       1.0  0.13690  0.60030  0.02850  1.0000 -0.0679747032
C   C30       1.0  0.25200  0.64890  0.29120  1.0000 0.0208439735
C   C31       1.0  0.08110  0.65820  0.28800  1.0000 -0.0679747032
C   C32       1.0  0.00350  0.94540  0.15390  1.0000 -0.0516853269
C   C33       1.0  0.11610  0.89490  0.29960  1.0000 0.0282412782
C   C34       1.0  0.30860  0.04150  0.08700  1.0000 -0.140434294
C   C35       1.0  0.20070  0.55250  0.99240  1.0000 -0.1589278428
C   C36       1.0  0.13430  0.59410  0.35790  1.0000 -0.1109336538
C   C37       1.0  0.00000  0.00250  0.22680  1.0000 -0.1589278428
C   C38       1.0  0.33740  0.02340  0.92280  1.0000 -0.1472773751
C   C39       1.0  0.39460  0.59540  0.97410  1.0000 -0.140434294
C   C40       1.0  0.33500  0.53140  0.42510  1.0000 -0.1664274966
C   C41       1.0  0.09370  0.00750  0.42250  1.0000 -0.1472773751
C   C42       1.0  0.47030  0.04230  0.97190  1.0000 -0.2180216392
C   C43       1.0  0.45040  0.50600  0.01770  1.0000 -0.2180216392
C   C44       1.0  0.30730  0.43080  0.39330  1.0000 -0.1884193903
C   C45       1.0  0.98840  0.98180  0.44670  1.0000 -0.2180216392
C   C46       1.0  0.26800  0.40960  0.27970  1.0000 -0.2491769304
C   C47       1.0  0.24650  0.30660  0.25760  1.0000 -0.140434294
C   C48       1.0  0.24000  0.28550  0.07550  1.0000 -0.1772122269
C   C49       1.0  0.07270  0.26030  0.09120  1.0000 0.0371766647
C   C50       1.0  0.15390  0.26370  0.98480  1.0000 -0.0565920582
N   N1        1.0  0.78950  0.10140  0.91760  1.0000 -0.2779946288
N   N2        1.0  0.80670  0.31010  0.93710  1.0000 -0.2779946288
N   N3        1.0  0.84580  0.30840  0.75610  1.0000 -0.2594156561
N   N4        1.0  0.92550  0.12390  0.80040  1.0000 -0.2594156561
N   N5        1.0  0.04660  0.24770  0.99190  1.0000 -0.3047075828
N   N6        1.0  0.71090  0.00800  0.00300  1.0000 0.0282412782
N   N7        1.0  0.69830  0.38720  0.99230  1.0000 0.0371766647
N   N8        1.0  0.75920  0.40960  0.63920  1.0000 0.0479683319
N   N9        1.0  0.92570  0.02780  0.67950  1.0000 0.0371766647
N   N10       1.0  0.81120  0.71780  0.85480  1.0000 0.0282412782
N   N11       1.0  0.21050  0.89860  0.08240  1.0000 -0.2779946288
N   N12       1.0  0.19330  0.68990  0.06290  1.0000 -0.2779946288
N   N13       1.0  0.15420  0.69160  0.24390  1.0000 -0.2594156561
N   N14       1.0  0.07450  0.87610  0.19960  1.0000 -0.2594156561
N   N15       1.0  0.95340  0.75230  0.00810  1.0000 -0.3063013216
N   N16       1.0  0.28910  0.99200  0.99700  1.0000 0.0282412782
N   N17       1.0  0.30170  0.61280  0.00770  1.0000 0.0371766647
N   N18       1.0  0.24080  0.59040  0.36080  1.0000 0.0479683319
N   N19       1.0  0.07430  0.97220  0.32050  1.0000 0.0371766647
N   N20       1.0  0.18880  0.28220  0.14520  1.0000 0.0282412782
