# DDEC6 charges by PACMAN v1.1 (https://github.com/mtap-research/PACMAN-charge/)
data_2020[Cd][nan]3[ASR]5
_chemical_formula_sum              "Cd8 H96 C176 N80 O24"
_cell_length_a       30.3835
_cell_length_b       8.4739
_cell_length_c       32.1445
_cell_angle_alpha    90
_cell_angle_beta     117.571
_cell_angle_gamma    90

_symmetry_space_group_name_H-M    "P 1"
_symmetry_Int_Tables_number       1

loop_
  _symmetry_equiv_pos_as_xyz
  'x, y, z'

loop_
  _atom_site_type_symbol
  _atom_site_label
  _atom_site_symmetry_multiplicity
  _atom_site_fract_x
  _atom_site_fract_y
  _atom_site_fract_z
  _atom_site_occupancy
  _atom_site_charge
Cd  Cd1       1.0  0.43800  0.37446  0.96177  1.0000 0.7526090233
Cd  Cd2       1.0  0.43429  0.34420  0.46721  1.0000 0.742140138
Cd  Cd3       1.0  0.06200  0.37446  0.03823  1.0000 0.7526090233
Cd  Cd4       1.0  0.06571  0.34420  0.53279  1.0000 0.742140138
Cd  Cd5       1.0  0.56200  0.62554  0.03823  1.0000 0.7526090233
Cd  Cd6       1.0  0.56571  0.65580  0.53279  1.0000 0.742140138
Cd  Cd7       1.0  0.93800  0.62554  0.96177  1.0000 0.7526090233
Cd  Cd8       1.0  0.93429  0.65580  0.46721  1.0000 0.742140138
H   H1        1.0  0.44147  0.25793  0.06362  1.0000 0.0930618132
H   H2        1.0  0.17486  0.90852  0.04097  1.0000 0.1305425359
H   H3        1.0  0.12951  0.20320  0.13572  1.0000 0.0930618132
H   H4        1.0  0.53256  0.01676  0.90262  1.0000 0.1305425359
H   H5        1.0  0.35368  0.72191  0.03593  1.0000 0.1401769513
H   H6        1.0  0.70044  0.71240  0.76873  1.0000 0.1305425359
H   H7        1.0  0.10861  0.08259  0.00959  1.0000 0.0930618132
H   H8        1.0  0.78128  0.59989  0.92647  1.0000 0.0930618132
H   H9        1.0  0.45924  0.50450  0.87611  1.0000 0.0999258192
H   H10       1.0  0.71079  0.75838  0.89779  1.0000 0.1305425359
H   H11       1.0  0.49505  0.10489  0.94536  1.0000 0.0930618132
H   H12       1.0  0.40596  0.31822  0.10986  1.0000 0.1456091342
H   H13       1.0  0.38610  0.64352  0.98675  1.0000 0.0999258192
H   H14       1.0  0.19511  0.02690  0.17078  1.0000 0.1401769513
H   H15       1.0  0.77065  0.55404  0.80125  1.0000 0.0999258192
H   H16       1.0  0.49399  0.42002  0.82815  1.0000 0.1401769513
H   H17       1.0  0.46924  0.35405  0.64150  1.0000 0.1401769513
H   H18       1.0  0.35396  0.72892  0.32743  1.0000 0.1401769513
H   H19       1.0  0.37939  0.62613  0.40135  1.0000 0.0930618132
H   H20       1.0  0.42320  0.37011  0.29811  1.0000 0.1401769513
H   H21       1.0  0.50553  0.09846  0.53628  1.0000 0.0828673834
H   H22       1.0  0.54294  0.01051  0.61357  1.0000 0.1305425359
H   H23       1.0  0.45319  0.28347  0.37484  1.0000 0.0999258192
H   H24       1.0  0.42804  0.41517  0.56338  1.0000 0.1055983597
H   H25       1.0  0.05853  0.25793  0.93638  1.0000 0.0930618132
H   H26       1.0  0.32514  0.90852  0.95903  1.0000 0.1305425359
H   H27       1.0  0.37049  0.20320  0.86428  1.0000 0.0930618132
H   H28       1.0  0.96744  0.01676  0.09738  1.0000 0.1305425359
H   H29       1.0  0.14632  0.72191  0.96407  1.0000 0.1401769513
H   H30       1.0  0.79956  0.71240  0.23127  1.0000 0.1305425359
H   H31       1.0  0.39139  0.08259  0.99041  1.0000 0.0930618132
H   H32       1.0  0.71872  0.59989  0.07353  1.0000 0.0930618132
H   H33       1.0  0.04076  0.50450  0.12389  1.0000 0.0999258192
H   H34       1.0  0.78921  0.75838  0.10221  1.0000 0.1305425359
H   H35       1.0  0.00495  0.10489  0.05464  1.0000 0.0930618132
H   H36       1.0  0.09404  0.31822  0.89014  1.0000 0.1456091342
H   H37       1.0  0.11390  0.64352  0.01325  1.0000 0.0999258192
H   H38       1.0  0.30489  0.02690  0.82922  1.0000 0.1401769513
H   H39       1.0  0.72935  0.55404  0.19875  1.0000 0.0999258192
H   H40       1.0  0.00601  0.42002  0.17185  1.0000 0.1401769513
H   H41       1.0  0.03076  0.35405  0.35850  1.0000 0.1401769513
H   H42       1.0  0.14604  0.72892  0.67257  1.0000 0.1401769513
H   H43       1.0  0.12061  0.62613  0.59865  1.0000 0.0930618132
H   H44       1.0  0.07680  0.37011  0.70189  1.0000 0.1401769513
H   H45       1.0  0.99447  0.09846  0.46372  1.0000 0.0828673834
H   H46       1.0  0.95706  0.01051  0.38643  1.0000 0.1305425359
H   H47       1.0  0.04681  0.28347  0.62516  1.0000 0.0999258192
H   H48       1.0  0.07196  0.41517  0.43662  1.0000 0.1055983597
H   H49       1.0  0.55853  0.74207  0.93638  1.0000 0.0930618132
H   H50       1.0  0.82514  0.09148  0.95903  1.0000 0.1305425359
H   H51       1.0  0.87049  0.79680  0.86428  1.0000 0.0930618132
H   H52       1.0  0.46744  0.98324  0.09738  1.0000 0.1305425359
H   H53       1.0  0.64632  0.27809  0.96407  1.0000 0.1401769513
H   H54       1.0  0.29956  0.28760  0.23127  1.0000 0.1305425359
H   H55       1.0  0.89139  0.91741  0.99041  1.0000 0.0930618132
H   H56       1.0  0.21872  0.40011  0.07353  1.0000 0.0930618132
H   H57       1.0  0.54076  0.49550  0.12389  1.0000 0.0999258192
H   H58       1.0  0.28921  0.24162  0.10221  1.0000 0.1305425359
H   H59       1.0  0.50495  0.89511  0.05464  1.0000 0.0930618132
H   H60       1.0  0.59404  0.68178  0.89014  1.0000 0.1456091342
H   H61       1.0  0.61390  0.35648  0.01325  1.0000 0.0999258192
H   H62       1.0  0.80489  0.97310  0.82922  1.0000 0.1401769513
H   H63       1.0  0.22935  0.44596  0.19875  1.0000 0.0999258192
H   H64       1.0  0.50601  0.57998  0.17185  1.0000 0.1401769513
H   H65       1.0  0.53076  0.64595  0.35850  1.0000 0.1401769513
H   H66       1.0  0.64604  0.27108  0.67257  1.0000 0.1401769513
H   H67       1.0  0.62061  0.37387  0.59865  1.0000 0.0930618132
H   H68       1.0  0.57680  0.62989  0.70189  1.0000 0.1401769513
H   H69       1.0  0.49447  0.90154  0.46372  1.0000 0.0828673834
H   H70       1.0  0.45706  0.98949  0.38643  1.0000 0.1305425359
H   H71       1.0  0.54681  0.71653  0.62516  1.0000 0.0999258192
H   H72       1.0  0.57196  0.58483  0.43662  1.0000 0.1055983597
H   H73       1.0  0.94147  0.74207  0.06362  1.0000 0.0930618132
H   H74       1.0  0.67486  0.09148  0.04097  1.0000 0.1305425359
H   H75       1.0  0.62951  0.79680  0.13572  1.0000 0.0930618132
H   H76       1.0  0.03256  0.98324  0.90262  1.0000 0.1305425359
H   H77       1.0  0.85368  0.27809  0.03593  1.0000 0.1401769513
H   H78       1.0  0.20044  0.28760  0.76873  1.0000 0.1305425359
H   H79       1.0  0.60861  0.91741  0.00959  1.0000 0.0930618132
H   H80       1.0  0.28128  0.40011  0.92647  1.0000 0.0930618132
H   H81       1.0  0.95924  0.49550  0.87611  1.0000 0.0999258192
H   H82       1.0  0.21079  0.24162  0.89779  1.0000 0.1305425359
H   H83       1.0  0.99505  0.89511  0.94536  1.0000 0.0930618132
H   H84       1.0  0.90596  0.68178  0.10986  1.0000 0.1456091342
H   H85       1.0  0.88610  0.35648  0.98675  1.0000 0.0999258192
H   H86       1.0  0.69511  0.97310  0.17078  1.0000 0.1401769513
H   H87       1.0  0.27065  0.44596  0.80125  1.0000 0.0999258192
H   H88       1.0  0.99399  0.57998  0.82815  1.0000 0.1401769513
H   H89       1.0  0.96924  0.64595  0.64150  1.0000 0.1401769513
H   H90       1.0  0.85396  0.27108  0.32743  1.0000 0.1401769513
H   H91       1.0  0.87939  0.37387  0.40135  1.0000 0.0930618132
H   H92       1.0  0.92320  0.62989  0.29811  1.0000 0.1401769513
H   H93       1.0  0.00553  0.90154  0.53628  1.0000 0.0828673834
H   H94       1.0  0.04294  0.98949  0.61357  1.0000 0.1305425359
H   H95       1.0  0.95319  0.71653  0.37484  1.0000 0.0999258192
H   H96       1.0  0.92804  0.58483  0.56338  1.0000 0.1055983597
C   C1        1.0  0.42160  0.35030  0.05680  1.0000 0.0274917426
C   C2        1.0  0.29750  0.72320  0.11850  1.0000 0.3719623437
C   C3        1.0  0.53790  0.14960  0.82990  1.0000 0.3483121408
C   C4        1.0  0.59790  0.00040  0.82250  1.0000 0.3719623437
C   C5        1.0  0.51650  0.20810  0.85990  1.0000 0.0515771111
C   C6        1.0  0.32150  0.68820  0.16650  1.0000 -0.2056080015
C   C7        1.0  0.23860  0.85540  0.13020  1.0000 0.3483121408
C   C8        1.0  0.35820  0.58440  0.11160  1.0000 0.3338173157
C   C9        1.0  0.30120  0.74420  0.19560  1.0000 0.3782214312
C   C10       1.0  0.57510  0.04430  0.77500  1.0000 -0.2204923318
C   C11       1.0  0.16640  0.96910  0.06110  1.0000 -0.1724640751
C   C12       1.0  0.13920  0.14330  0.11640  1.0000 0.0828673834
C   C13       1.0  0.59370  0.98580  0.74580  1.0000 0.3719623437
C   C14       1.0  0.36450  0.59310  0.18530  1.0000 0.3719623437
C   C15       1.0  0.65380  0.85820  0.81060  1.0000 0.3483121408
C   C16       1.0  0.36370  0.61080  0.25580  1.0000 0.3382304398
C   C17       1.0  0.51700  0.11740  0.89600  1.0000 -0.1793663042
C   C18       1.0  0.69810  0.75520  0.83020  1.0000 0.0515771111
C   C19       1.0  0.19340  0.95390  0.10950  1.0000 0.0700998608
C   C20       1.0  0.53340  0.13930  0.75680  1.0000 0.3634416325
C   C21       1.0  0.37130  0.62500  0.04170  1.0000 -0.1724640751
C   C22       1.0  0.71640  0.69130  0.80150  1.0000 -0.1609672208
C   C23       1.0  0.12720  0.07370  0.04270  1.0000 0.0700998608
C   C24       1.0  0.37800  0.53170  0.08060  1.0000 0.0515771111
C   C25       1.0  0.76440  0.62250  0.89380  1.0000 0.0392306502
C   C26       1.0  0.50900  0.16880  0.63620  1.0000 0.0515771111
C   C27       1.0  0.47420  0.40320  0.88130  1.0000 0.0608118875
C   C28       1.0  0.72240  0.71870  0.87700  1.0000 -0.1609672208
C   C29       1.0  0.49540  0.17170  0.92180  1.0000 0.0700998608
C   C30       1.0  0.40260  0.38910  0.08570  1.0000 -0.1506210124
C   C31       1.0  0.53250  0.12070  0.68570  1.0000 0.3338173157
C   C32       1.0  0.39010  0.57660  0.01200  1.0000 0.0700998608
C   C33       1.0  0.17860  0.03930  0.13760  1.0000 -0.1506210124
C   C34       1.0  0.38490  0.55900  0.30520  1.0000 0.0515771111
C   C35       1.0  0.75850  0.59570  0.82140  1.0000 0.0700998608
C   C36       1.0  0.49500  0.35360  0.85240  1.0000 -0.1506210124
C   C37       1.0  0.47560  0.29400  0.61980  1.0000 -0.1506210124
C   C38       1.0  0.37310  0.63500  0.33640  1.0000 -0.1609672208
C   C39       1.0  0.38920  0.57400  0.38080  1.0000 0.0700998608
C   C40       1.0  0.41480  0.42400  0.31930  1.0000 -0.1405391904
C   C41       1.0  0.49620  0.14700  0.55770  1.0000 0.0930618132
C   C42       1.0  0.51980  0.09500  0.60430  1.0000 -0.1724640751
C   C43       1.0  0.43160  0.37200  0.36460  1.0000 0.0392306502
C   C44       1.0  0.45220  0.33300  0.57370  1.0000 0.0274917426
C   C45       1.0  0.07840  0.35030  0.94320  1.0000 0.0274917426
C   C46       1.0  0.20250  0.72320  0.88150  1.0000 0.3719623437
C   C47       1.0  0.96210  0.14960  0.17010  1.0000 0.3483121408
C   C48       1.0  0.90210  0.00040  0.17750  1.0000 0.3719623437
C   C49       1.0  0.98350  0.20810  0.14010  1.0000 0.0515771111
C   C50       1.0  0.17850  0.68820  0.83350  1.0000 -0.2056080015
C   C51       1.0  0.26140  0.85540  0.86980  1.0000 0.3483121408
C   C52       1.0  0.14180  0.58440  0.88840  1.0000 0.3338173157
C   C53       1.0  0.19880  0.74420  0.80440  1.0000 0.3782214312
C   C54       1.0  0.92490  0.04430  0.22500  1.0000 -0.2204923318
C   C55       1.0  0.33360  0.96910  0.93890  1.0000 -0.1724640751
C   C56       1.0  0.36080  0.14330  0.88360  1.0000 0.0828673834
C   C57       1.0  0.90630  0.98580  0.25420  1.0000 0.3719623437
C   C58       1.0  0.13550  0.59310  0.81470  1.0000 0.3719623437
C   C59       1.0  0.84620  0.85820  0.18940  1.0000 0.3483121408
C   C60       1.0  0.13630  0.61080  0.74420  1.0000 0.3382304398
C   C61       1.0  0.98300  0.11740  0.10400  1.0000 -0.1793663042
C   C62       1.0  0.80190  0.75520  0.16980  1.0000 0.0515771111
C   C63       1.0  0.30660  0.95390  0.89050  1.0000 0.0700998608
C   C64       1.0  0.96660  0.13930  0.24320  1.0000 0.3634416325
C   C65       1.0  0.12870  0.62500  0.95830  1.0000 -0.1724640751
C   C66       1.0  0.78360  0.69130  0.19850  1.0000 -0.1609672208
C   C67       1.0  0.37280  0.07370  0.95730  1.0000 0.0700998608
C   C68       1.0  0.12200  0.53170  0.91940  1.0000 0.0515771111
C   C69       1.0  0.73560  0.62250  0.10620  1.0000 0.0392306502
C   C70       1.0  0.99100  0.16880  0.36380  1.0000 0.0515771111
C   C71       1.0  0.02580  0.40320  0.11870  1.0000 0.0608118875
C   C72       1.0  0.77760  0.71870  0.12300  1.0000 -0.1609672208
C   C73       1.0  0.00460  0.17170  0.07820  1.0000 0.0700998608
C   C74       1.0  0.09740  0.38910  0.91430  1.0000 -0.1506210124
C   C75       1.0  0.96750  0.12070  0.31430  1.0000 0.3338173157
C   C76       1.0  0.10990  0.57660  0.98800  1.0000 0.0700998608
C   C77       1.0  0.32140  0.03930  0.86240  1.0000 -0.1506210124
C   C78       1.0  0.11510  0.55900  0.69480  1.0000 0.0515771111
C   C79       1.0  0.74150  0.59570  0.17860  1.0000 0.0700998608
C   C80       1.0  0.00500  0.35360  0.14760  1.0000 -0.1506210124
C   C81       1.0  0.02440  0.29400  0.38020  1.0000 -0.1506210124
C   C82       1.0  0.12690  0.63500  0.66360  1.0000 -0.1609672208
C   C83       1.0  0.11080  0.57400  0.61920  1.0000 0.0700998608
C   C84       1.0  0.08520  0.42400  0.68070  1.0000 -0.1405391904
C   C85       1.0  0.00380  0.14700  0.44230  1.0000 0.0930618132
C   C86       1.0  0.98020  0.09500  0.39570  1.0000 -0.1724640751
C   C87       1.0  0.06840  0.37200  0.63540  1.0000 0.0392306502
C   C88       1.0  0.04780  0.33300  0.42630  1.0000 0.0274917426
C   C89       1.0  0.57840  0.64970  0.94320  1.0000 0.0274917426
C   C90       1.0  0.70250  0.27680  0.88150  1.0000 0.3719623437
C   C91       1.0  0.46210  0.85040  0.17010  1.0000 0.3483121408
C   C92       1.0  0.40210  0.99960  0.17750  1.0000 0.3719623437
C   C93       1.0  0.48350  0.79190  0.14010  1.0000 0.0608118875
C   C94       1.0  0.67850  0.31180  0.83350  1.0000 -0.2056080015
C   C95       1.0  0.76140  0.14460  0.86980  1.0000 0.3483121408
C   C96       1.0  0.64180  0.41560  0.88840  1.0000 0.3338173157
C   C97       1.0  0.69880  0.25580  0.80440  1.0000 0.3782214312
C   C98       1.0  0.42490  0.95570  0.22500  1.0000 -0.2204923318
C   C99       1.0  0.83360  0.03090  0.93890  1.0000 -0.1724640751
C   C100      1.0  0.86080  0.85670  0.88360  1.0000 0.0828673834
C   C101      1.0  0.40630  0.01420  0.25420  1.0000 0.3719623437
C   C102      1.0  0.63550  0.40690  0.81470  1.0000 0.3719623437
C   C103      1.0  0.34620  0.14180  0.18940  1.0000 0.3483121408
C   C104      1.0  0.63630  0.38920  0.74420  1.0000 0.3382304398
C   C105      1.0  0.48300  0.88260  0.10400  1.0000 -0.1793663042
C   C106      1.0  0.30190  0.24480  0.16980  1.0000 0.0515771111
C   C107      1.0  0.80660  0.04610  0.89050  1.0000 0.0700998608
C   C108      1.0  0.46660  0.86070  0.24320  1.0000 0.3634416325
C   C109      1.0  0.62870  0.37500  0.95830  1.0000 -0.1724640751
C   C110      1.0  0.28360  0.30870  0.19850  1.0000 -0.1609672208
C   C111      1.0  0.87280  0.92630  0.95730  1.0000 0.0700998608
C   C112      1.0  0.62200  0.46830  0.91940  1.0000 0.0515771111
C   C113      1.0  0.23560  0.37750  0.10620  1.0000 0.0392306502
C   C114      1.0  0.49100  0.83120  0.36380  1.0000 0.0515771111
C   C115      1.0  0.52580  0.59680  0.11870  1.0000 0.0608118875
C   C116      1.0  0.27760  0.28130  0.12300  1.0000 -0.1609672208
C   C117      1.0  0.50460  0.82830  0.07820  1.0000 0.0700998608
C   C118      1.0  0.59740  0.61090  0.91430  1.0000 -0.1506210124
C   C119      1.0  0.46750  0.87930  0.31430  1.0000 0.3338173157
C   C120      1.0  0.60990  0.42340  0.98800  1.0000 0.0700998608
C   C121      1.0  0.82140  0.96070  0.86240  1.0000 -0.1506210124
C   C122      1.0  0.61510  0.44100  0.69480  1.0000 0.0515771111
C   C123      1.0  0.24150  0.40430  0.17860  1.0000 0.0700998608
C   C124      1.0  0.50500  0.64640  0.14760  1.0000 -0.1506210124
C   C125      1.0  0.52440  0.70600  0.38020  1.0000 -0.1506210124
C   C126      1.0  0.62690  0.36500  0.66360  1.0000 -0.1609672208
C   C127      1.0  0.61080  0.42600  0.61920  1.0000 0.0700998608
C   C128      1.0  0.58520  0.57600  0.68070  1.0000 -0.1405391904
C   C129      1.0  0.50380  0.85300  0.44230  1.0000 0.0930618132
C   C130      1.0  0.48020  0.90500  0.39570  1.0000 -0.1724640751
C   C131      1.0  0.56840  0.62800  0.63540  1.0000 0.0392306502
C   C132      1.0  0.54780  0.66700  0.42630  1.0000 0.0274917426
C   C133      1.0  0.92160  0.64970  0.05680  1.0000 0.0274917426
C   C134      1.0  0.79750  0.27680  0.11850  1.0000 0.3719623437
C   C135      1.0  0.03790  0.85040  0.82990  1.0000 0.3483121408
C   C136      1.0  0.09790  0.99960  0.82250  1.0000 0.3719623437
C   C137      1.0  0.01650  0.79190  0.85990  1.0000 0.0608118875
C   C138      1.0  0.82150  0.31180  0.16650  1.0000 -0.2056080015
C   C139      1.0  0.73860  0.14460  0.13020  1.0000 0.3483121408
C   C140      1.0  0.85820  0.41560  0.11160  1.0000 0.3338173157
C   C141      1.0  0.80120  0.25580  0.19560  1.0000 0.3782214312
C   C142      1.0  0.07510  0.95570  0.77500  1.0000 -0.2204923318
C   C143      1.0  0.66640  0.03090  0.06110  1.0000 -0.1724640751
C   C144      1.0  0.63920  0.85670  0.11640  1.0000 0.0828673834
C   C145      1.0  0.09370  0.01420  0.74580  1.0000 0.3719623437
C   C146      1.0  0.86450  0.40690  0.18530  1.0000 0.3719623437
C   C147      1.0  0.15380  0.14180  0.81060  1.0000 0.3483121408
C   C148      1.0  0.86370  0.38920  0.25580  1.0000 0.3382304398
C   C149      1.0  0.01700  0.88260  0.89600  1.0000 -0.1793663042
C   C150      1.0  0.19810  0.24480  0.83020  1.0000 0.0515771111
C   C151      1.0  0.69340  0.04610  0.10950  1.0000 0.0700998608
C   C152      1.0  0.03340  0.86070  0.75680  1.0000 0.3634416325
C   C153      1.0  0.87130  0.37500  0.04170  1.0000 -0.1724640751
C   C154      1.0  0.21640  0.30870  0.80150  1.0000 -0.1609672208
C   C155      1.0  0.62720  0.92630  0.04270  1.0000 0.0700998608
C   C156      1.0  0.87800  0.46830  0.08060  1.0000 0.0515771111
C   C157      1.0  0.26440  0.37750  0.89380  1.0000 0.0392306502
C   C158      1.0  0.00900  0.83120  0.63620  1.0000 0.0515771111
C   C159      1.0  0.97420  0.59680  0.88130  1.0000 0.0700998608
C   C160      1.0  0.22240  0.28130  0.87700  1.0000 -0.1609672208
C   C161      1.0  0.99540  0.82830  0.92180  1.0000 0.0700998608
C   C162      1.0  0.90260  0.61090  0.08570  1.0000 -0.1506210124
C   C163      1.0  0.03250  0.87930  0.68570  1.0000 0.3338173157
C   C164      1.0  0.89010  0.42340  0.01200  1.0000 0.0700998608
C   C165      1.0  0.67860  0.96070  0.13760  1.0000 -0.1506210124
C   C166      1.0  0.88490  0.44100  0.30520  1.0000 0.0515771111
C   C167      1.0  0.25850  0.40430  0.82140  1.0000 0.0700998608
C   C168      1.0  0.99500  0.64640  0.85240  1.0000 -0.1506210124
C   C169      1.0  0.97560  0.70600  0.61980  1.0000 -0.1506210124
C   C170      1.0  0.87310  0.36500  0.33640  1.0000 -0.1609672208
C   C171      1.0  0.88920  0.42600  0.38080  1.0000 0.0700998608
C   C172      1.0  0.91480  0.57600  0.31930  1.0000 -0.1405391904
C   C173      1.0  0.99620  0.85300  0.55770  1.0000 0.0930618132
C   C174      1.0  0.01980  0.90500  0.60430  1.0000 -0.1724640751
C   C175      1.0  0.93160  0.62800  0.36460  1.0000 0.0392306502
C   C176      1.0  0.95220  0.66700  0.57370  1.0000 0.0274917426
N   N1        1.0  0.57800  0.05760  0.85050  1.0000 -0.4065313625
N   N2        1.0  0.25520  0.80670  0.10030  1.0000 -0.3909754405
N   N3        1.0  0.51440  0.19330  0.78450  1.0000 -0.3909754405
N   N4        1.0  0.32230  0.70130  0.24110  1.0000 -0.4004199974
N   N5        1.0  0.11410  0.16350  0.06970  1.0000 -0.247404425
N   N6        1.0  0.63860  0.91070  0.84070  1.0000 -0.4004199974
N   N7        1.0  0.31640  0.67060  0.09090  1.0000 -0.3815106616
N   N8        1.0  0.38300  0.54190  0.15680  1.0000 -0.3909754405
N   N9        1.0  0.41390  0.43830  0.01750  1.0000 -0.2621003749
N   N10       1.0  0.38600  0.55330  0.23100  1.0000 -0.4004199974
N   N11       1.0  0.25950  0.82910  0.17700  1.0000 -0.3815106616
N   N12       1.0  0.78240  0.55960  0.86590  1.0000 -0.2621003749
N   N13       1.0  0.52520  0.23180  0.04230  1.0000 0.6577120213
N   N14       1.0  0.51110  0.17990  0.71060  1.0000 -0.3909754405
N   N15       1.0  0.47480  0.31280  0.91590  1.0000 -0.2386904308
N   N16       1.0  0.57240  0.02490  0.70000  1.0000 -0.4004199974
N   N17       1.0  0.63450  0.89470  0.76360  1.0000 -0.4065313625
N   N18       1.0  0.41820  0.44600  0.39640  1.0000 -0.2808343755
N   N19       1.0  0.46260  0.25600  0.54140  1.0000 -0.247404425
N   N20       1.0  0.53950  0.31700  0.48500  1.0000 0.6026602624
N   N21       1.0  0.92200  0.05760  0.14950  1.0000 -0.4065313625
N   N22       1.0  0.24480  0.80670  0.89970  1.0000 -0.3909754405
N   N23       1.0  0.98560  0.19330  0.21550  1.0000 -0.3909754405
N   N24       1.0  0.17770  0.70130  0.75890  1.0000 -0.4004199974
N   N25       1.0  0.38590  0.16350  0.93030  1.0000 -0.247404425
N   N26       1.0  0.86140  0.91070  0.15930  1.0000 -0.4004199974
N   N27       1.0  0.18360  0.67060  0.90910  1.0000 -0.3815106616
N   N28       1.0  0.11700  0.54190  0.84320  1.0000 -0.3909754405
N   N29       1.0  0.08610  0.43830  0.98250  1.0000 -0.2621003749
N   N30       1.0  0.11400  0.55330  0.76900  1.0000 -0.4004199974
N   N31       1.0  0.24050  0.82910  0.82300  1.0000 -0.3815106616
N   N32       1.0  0.71760  0.55960  0.13410  1.0000 -0.2621003749
N   N33       1.0  0.97480  0.23180  0.95770  1.0000 0.6577120213
N   N34       1.0  0.98890  0.17990  0.28940  1.0000 -0.3909754405
N   N35       1.0  0.02520  0.31280  0.08410  1.0000 -0.2386904308
N   N36       1.0  0.92760  0.02490  0.30000  1.0000 -0.4004199974
N   N37       1.0  0.86550  0.89470  0.23640  1.0000 -0.4065313625
N   N38       1.0  0.08180  0.44600  0.60360  1.0000 -0.2808343755
N   N39       1.0  0.03740  0.25600  0.45860  1.0000 -0.247404425
N   N40       1.0  0.96050  0.31700  0.51500  1.0000 0.6026602624
N   N41       1.0  0.42200  0.94240  0.14950  1.0000 -0.4065313625
N   N42       1.0  0.74480  0.19330  0.89970  1.0000 -0.3909754405
N   N43       1.0  0.48560  0.80670  0.21550  1.0000 -0.3909754405
N   N44       1.0  0.67770  0.29870  0.75890  1.0000 -0.4004199974
N   N45       1.0  0.88590  0.83650  0.93030  1.0000 -0.247404425
N   N46       1.0  0.36140  0.08930  0.15930  1.0000 -0.4004199974
N   N47       1.0  0.68360  0.32940  0.90910  1.0000 -0.3815106616
N   N48       1.0  0.61700  0.45810  0.84320  1.0000 -0.3909754405
N   N49       1.0  0.58610  0.56170  0.98250  1.0000 -0.2621003749
N   N50       1.0  0.61400  0.44670  0.76900  1.0000 -0.4004199974
N   N51       1.0  0.74050  0.17090  0.82300  1.0000 -0.3815106616
N   N52       1.0  0.21760  0.44040  0.13410  1.0000 -0.2621003749
N   N53       1.0  0.47480  0.76820  0.95770  1.0000 0.6577120213
N   N54       1.0  0.48890  0.82010  0.28940  1.0000 -0.3909754405
N   N55       1.0  0.52520  0.68720  0.08410  1.0000 -0.2386904308
N   N56       1.0  0.42760  0.97510  0.30000  1.0000 -0.4004199974
N   N57       1.0  0.36550  0.10530  0.23640  1.0000 -0.4065313625
N   N58       1.0  0.58180  0.55400  0.60360  1.0000 -0.2808343755
N   N59       1.0  0.53740  0.74400  0.45860  1.0000 -0.247404425
N   N60       1.0  0.46050  0.68300  0.51500  1.0000 0.6026602624
N   N61       1.0  0.07800  0.94240  0.85050  1.0000 -0.4065313625
N   N62       1.0  0.75520  0.19330  0.10030  1.0000 -0.3815106616
N   N63       1.0  0.01440  0.80670  0.78450  1.0000 -0.3909754405
N   N64       1.0  0.82230  0.29870  0.24110  1.0000 -0.4004199974
N   N65       1.0  0.61410  0.83650  0.06970  1.0000 -0.247404425
N   N66       1.0  0.13860  0.08930  0.84070  1.0000 -0.4004199974
N   N67       1.0  0.81640  0.32940  0.09090  1.0000 -0.3815106616
N   N68       1.0  0.88300  0.45810  0.15680  1.0000 -0.3909754405
N   N69       1.0  0.91390  0.56170  0.01750  1.0000 -0.2621003749
N   N70       1.0  0.88600  0.44670  0.23100  1.0000 -0.3909754405
N   N71       1.0  0.75950  0.17090  0.17700  1.0000 -0.3815106616
N   N72       1.0  0.28240  0.44040  0.86590  1.0000 -0.2621003749
N   N73       1.0  0.02520  0.76820  0.04230  1.0000 0.6577120213
N   N74       1.0  0.01110  0.82010  0.71060  1.0000 -0.3909754405
N   N75       1.0  0.97480  0.68720  0.91590  1.0000 -0.2386904308
N   N76       1.0  0.07240  0.97510  0.70000  1.0000 -0.4004199974
N   N77       1.0  0.13450  0.10530  0.76360  1.0000 -0.4065313625
N   N78       1.0  0.91820  0.55400  0.39640  1.0000 -0.2808343755
N   N79       1.0  0.96260  0.74400  0.54140  1.0000 -0.247404425
N   N80       1.0  0.03950  0.68300  0.48500  1.0000 0.6026602624
O   O1        1.0  0.52100  0.36900  0.02460  1.0000 -0.4465262802
O   O2        1.0  0.48840  0.14440  0.02470  1.0000 -0.4065313625
O   O3        1.0  0.56430  0.19070  0.07470  1.0000 -0.3629666927
O   O4        1.0  0.50930  0.21500  0.46290  1.0000 -0.3815106616
O   O5        1.0  0.52530  0.43200  0.49890  1.0000 -0.3142964529
O   O6        1.0  0.58090  0.33000  0.48850  1.0000 -0.3408806833
O   O7        1.0  0.97900  0.36900  0.97540  1.0000 -0.4465262802
O   O8        1.0  0.01160  0.14440  0.97530  1.0000 -0.4065313625
O   O9        1.0  0.93570  0.19070  0.92530  1.0000 -0.3629666927
O   O10       1.0  0.99070  0.21500  0.53710  1.0000 -0.3815106616
O   O11       1.0  0.97470  0.43200  0.50110  1.0000 -0.3142964529
O   O12       1.0  0.91910  0.33000  0.51150  1.0000 -0.3408806833
O   O13       1.0  0.47900  0.63100  0.97540  1.0000 -0.4465262802
O   O14       1.0  0.51160  0.85560  0.97530  1.0000 -0.4065313625
O   O15       1.0  0.43570  0.80930  0.92530  1.0000 -0.3629666927
O   O16       1.0  0.49070  0.78500  0.53710  1.0000 -0.3815106616
O   O17       1.0  0.47470  0.56800  0.50110  1.0000 -0.3142964529
O   O18       1.0  0.41910  0.67000  0.51150  1.0000 -0.3408806833
O   O19       1.0  0.02100  0.63100  0.02460  1.0000 -0.4465262802
O   O20       1.0  0.98840  0.85560  0.02470  1.0000 -0.4065313625
O   O21       1.0  0.06430  0.80930  0.07470  1.0000 -0.3629666927
O   O22       1.0  0.00930  0.78500  0.46290  1.0000 -0.3815106616
O   O23       1.0  0.02530  0.56800  0.49890  1.0000 -0.3142964529
O   O24       1.0  0.08090  0.67000  0.48850  1.0000 -0.3408806833
