# DDEC6 charges by PACMAN v1.1 (https://github.com/mtap-research/PACMAN-charge/)
data_2020[Zn][ths]3[ASR]2
_chemical_formula_sum              "Zn4 H48 C96 N24 O24"
_cell_length_a       13.8891
_cell_length_b       13.8891
_cell_length_c       17.27
_cell_angle_alpha    88.5909
_cell_angle_beta     91.4091
_cell_angle_gamma    46.6604

_symmetry_space_group_name_H-M    "P 1"
_symmetry_Int_Tables_number       1

loop_
  _symmetry_equiv_pos_as_xyz
  'x, y, z'

loop_
  _atom_site_type_symbol
  _atom_site_label
  _atom_site_symmetry_multiplicity
  _atom_site_fract_x
  _atom_site_fract_y
  _atom_site_fract_z
  _atom_site_occupancy
  _atom_site_charge
Zn  Zn1       1.0  0.00209  0.81729  0.54886  1.0000 0.5862945878
Zn  Zn2       1.0  0.18271  0.99791  0.04886  1.0000 0.5833591186
Zn  Zn3       1.0  0.81729  0.00209  0.95114  1.0000 0.5833591186
Zn  Zn4       1.0  0.99791  0.18271  0.45114  1.0000 0.5862945878
H   H1        1.0  0.12900  0.21660  0.04970  1.0000 0.2803510837
H   H2        1.0  0.74860  0.93280  0.47600  1.0000 0.2282627114
H   H3        1.0  0.46350  0.81570  0.09210  1.0000 0.2803510837
H   H4        1.0  0.17140  0.83700  0.95260  1.0000 0.2896775268
H   H5        1.0  0.91480  0.11300  0.28960  1.0000 0.1309835799
H   H6        1.0  0.76120  0.25740  0.19060  1.0000 0.1381233099
H   H7        1.0  0.51130  0.22790  0.26540  1.0000 0.1309835799
H   H8        1.0  0.72600  0.89540  0.11790  1.0000 0.1309835799
H   H9        1.0  0.68580  0.08640  0.11670  1.0000 0.1175066866
H   H10       1.0  0.29670  0.30690  0.08240  1.0000 0.147632476
H   H11       1.0  0.33550  0.42530  0.00640  1.0000 0.1381233099
H   H12       1.0  0.54270  0.48410  0.18450  1.0000 0.1381233099
H   H13       1.0  0.78340  0.87100  0.54970  1.0000 0.2803510837
H   H14       1.0  0.06720  0.25140  0.97600  1.0000 0.2282627114
H   H15       1.0  0.18430  0.53650  0.59210  1.0000 0.2803510837
H   H16       1.0  0.16300  0.82860  0.45260  1.0000 0.2896775268
H   H17       1.0  0.88700  0.08520  0.78960  1.0000 0.1309835799
H   H18       1.0  0.74260  0.23880  0.69060  1.0000 0.1381233099
H   H19       1.0  0.77210  0.48870  0.76540  1.0000 0.1309835799
H   H20       1.0  0.10460  0.27400  0.61790  1.0000 0.1309835799
H   H21       1.0  0.91360  0.31420  0.61670  1.0000 0.1175066866
H   H22       1.0  0.69310  0.70330  0.58240  1.0000 0.147632476
H   H23       1.0  0.57470  0.66450  0.50640  1.0000 0.1381233099
H   H24       1.0  0.51590  0.45730  0.68450  1.0000 0.1381233099
H   H25       1.0  0.21660  0.12900  0.45030  1.0000 0.2803510837
H   H26       1.0  0.93280  0.74860  0.02400  1.0000 0.2282627114
H   H27       1.0  0.81570  0.46350  0.40790  1.0000 0.2803510837
H   H28       1.0  0.83700  0.17140  0.54740  1.0000 0.2896775268
H   H29       1.0  0.11300  0.91480  0.21040  1.0000 0.1309835799
H   H30       1.0  0.25740  0.76120  0.30940  1.0000 0.1381233099
H   H31       1.0  0.22790  0.51130  0.23460  1.0000 0.1309835799
H   H32       1.0  0.89540  0.72600  0.38210  1.0000 0.1309835799
H   H33       1.0  0.08640  0.68580  0.38330  1.0000 0.1175066866
H   H34       1.0  0.30690  0.29670  0.41760  1.0000 0.147632476
H   H35       1.0  0.42530  0.33550  0.49360  1.0000 0.1381233099
H   H36       1.0  0.48410  0.54270  0.31550  1.0000 0.1381233099
H   H37       1.0  0.87100  0.78340  0.95030  1.0000 0.2803510837
H   H38       1.0  0.25140  0.06720  0.52400  1.0000 0.2282627114
H   H39       1.0  0.53650  0.18430  0.90790  1.0000 0.2803510837
H   H40       1.0  0.82860  0.16300  0.04740  1.0000 0.2896775268
H   H41       1.0  0.08520  0.88700  0.71040  1.0000 0.1309835799
H   H42       1.0  0.23880  0.74260  0.80940  1.0000 0.1381233099
H   H43       1.0  0.48870  0.77210  0.73460  1.0000 0.1309835799
H   H44       1.0  0.27400  0.10460  0.88210  1.0000 0.1309835799
H   H45       1.0  0.31420  0.91360  0.88330  1.0000 0.1175066866
H   H46       1.0  0.70330  0.69310  0.91760  1.0000 0.147632476
H   H47       1.0  0.66450  0.57470  0.99360  1.0000 0.1381233099
H   H48       1.0  0.45730  0.51590  0.81550  1.0000 0.1381233099
C   C1        1.0  0.83470  0.13490  0.28500  1.0000 -0.0803183988
C   C2        1.0  0.74250  0.22150  0.22620  1.0000 -0.1185281751
C   C3        1.0  0.61990  0.25750  0.21860  1.0000 0.0728839152
C   C4        1.0  0.59250  0.20390  0.26990  1.0000 -0.1375412233
C   C5        1.0  0.68780  0.11100  0.33050  1.0000 -0.0393454423
C   C6        1.0  0.80750  0.08010  0.33740  1.0000 -0.0298777893
C   C7        1.0  0.90430  0.98970  0.40210  1.0000 0.4125217107
C   C8        1.0  0.66390  0.05150  0.38740  1.0000 0.4125217107
C   C9        1.0  0.63960  0.97780  0.11100  1.0000 -0.0803183988
C   C10       1.0  0.61520  0.09240  0.11040  1.0000 -0.1375412233
C   C11       1.0  0.48700  0.21640  0.10070  1.0000 0.0869135969
C   C12       1.0  0.38290  0.22430  0.08950  1.0000 -0.1375412233
C   C13       1.0  0.40600  0.10860  0.08870  1.0000 -0.0188812615
C   C14       1.0  0.53400  0.98660  0.10110  1.0000 -0.0393454423
C   C15       1.0  0.29560  0.11740  0.07310  1.0000 0.4013072812
C   C16       1.0  0.55810  0.86690  0.10310  1.0000 0.4125217107
C   C17       1.0  0.37540  0.43800  0.04310  1.0000 -0.1185281751
C   C18       1.0  0.46110  0.33970  0.09980  1.0000 0.0378604597
C   C19       1.0  0.52570  0.35750  0.15460  1.0000 0.0378604597
C   C20       1.0  0.49910  0.47330  0.14960  1.0000 -0.1375412233
C   C21       1.0  0.40730  0.57550  0.09270  1.0000 -0.0188812615
C   C22       1.0  0.34610  0.55710  0.03870  1.0000 -0.0393454423
C   C23       1.0  0.25030  0.66510  0.98090  1.0000 0.4125217107
C   C24       1.0  0.37210  0.70390  0.09390  1.0000 0.4189836048
C   C25       1.0  0.86510  0.16530  0.78500  1.0000 -0.0803183988
C   C26       1.0  0.77850  0.25750  0.72620  1.0000 -0.1185281751
C   C27       1.0  0.74250  0.38010  0.71860  1.0000 0.0728839152
C   C28       1.0  0.79610  0.40750  0.76990  1.0000 -0.1375412233
C   C29       1.0  0.88900  0.31220  0.83050  1.0000 -0.0393454423
C   C30       1.0  0.91990  0.19250  0.83740  1.0000 -0.0298777893
C   C31       1.0  0.01030  0.09570  0.90210  1.0000 0.4125217107
C   C32       1.0  0.94850  0.33610  0.88740  1.0000 0.4125217107
C   C33       1.0  0.02220  0.36040  0.61100  1.0000 -0.0803183988
C   C34       1.0  0.90760  0.38480  0.61040  1.0000 -0.1375412233
C   C35       1.0  0.78360  0.51300  0.60070  1.0000 0.0869135969
C   C36       1.0  0.77570  0.61710  0.58950  1.0000 -0.1375412233
C   C37       1.0  0.89140  0.59400  0.58870  1.0000 -0.0188812615
C   C38       1.0  0.01340  0.46600  0.60110  1.0000 -0.0393454423
C   C39       1.0  0.88260  0.70440  0.57310  1.0000 0.4013072812
C   C40       1.0  0.13310  0.44190  0.60310  1.0000 0.4125217107
C   C41       1.0  0.56200  0.62460  0.54310  1.0000 -0.1185281751
C   C42       1.0  0.66030  0.53890  0.59980  1.0000 0.0378604597
C   C43       1.0  0.64250  0.47430  0.65460  1.0000 0.0378604597
C   C44       1.0  0.52670  0.50090  0.64960  1.0000 -0.1375412233
C   C45       1.0  0.42450  0.59270  0.59270  1.0000 -0.0188812615
C   C46       1.0  0.44290  0.65390  0.53870  1.0000 -0.0393454423
C   C47       1.0  0.33490  0.74970  0.48090  1.0000 0.4125217107
C   C48       1.0  0.29610  0.62790  0.59390  1.0000 0.4189836048
C   C49       1.0  0.13490  0.83470  0.21500  1.0000 -0.0803183988
C   C50       1.0  0.22150  0.74250  0.27380  1.0000 -0.1185281751
C   C51       1.0  0.25750  0.61990  0.28140  1.0000 0.0728839152
C   C52       1.0  0.20390  0.59250  0.23010  1.0000 -0.1375412233
C   C53       1.0  0.11100  0.68780  0.16950  1.0000 -0.0393454423
C   C54       1.0  0.08010  0.80750  0.16260  1.0000 -0.0298777893
C   C55       1.0  0.98970  0.90430  0.09790  1.0000 0.4125217107
C   C56       1.0  0.05150  0.66390  0.11260  1.0000 0.4125217107
C   C57       1.0  0.97780  0.63960  0.38900  1.0000 -0.0803183988
C   C58       1.0  0.09240  0.61520  0.38960  1.0000 -0.1375412233
C   C59       1.0  0.21640  0.48700  0.39930  1.0000 0.0869135969
C   C60       1.0  0.22430  0.38290  0.41050  1.0000 -0.1375412233
C   C61       1.0  0.10860  0.40600  0.41130  1.0000 -0.0188812615
C   C62       1.0  0.98660  0.53400  0.39890  1.0000 -0.0393454423
C   C63       1.0  0.11740  0.29560  0.42690  1.0000 0.4013072812
C   C64       1.0  0.86690  0.55810  0.39690  1.0000 0.4125217107
C   C65       1.0  0.43800  0.37540  0.45690  1.0000 -0.1185281751
C   C66       1.0  0.33970  0.46110  0.40020  1.0000 0.0378604597
C   C67       1.0  0.35750  0.52570  0.34540  1.0000 0.0378604597
C   C68       1.0  0.47330  0.49910  0.35040  1.0000 -0.1375412233
C   C69       1.0  0.57550  0.40730  0.40730  1.0000 -0.0188812615
C   C70       1.0  0.55710  0.34610  0.46130  1.0000 -0.0393454423
C   C71       1.0  0.66510  0.25030  0.51910  1.0000 0.4125217107
C   C72       1.0  0.70390  0.37210  0.40610  1.0000 0.4189836048
C   C73       1.0  0.16530  0.86510  0.71500  1.0000 -0.0803183988
C   C74       1.0  0.25750  0.77850  0.77380  1.0000 -0.1185281751
C   C75       1.0  0.38010  0.74250  0.78140  1.0000 0.0728839152
C   C76       1.0  0.40750  0.79610  0.73010  1.0000 -0.1375412233
C   C77       1.0  0.31220  0.88900  0.66950  1.0000 -0.0393454423
C   C78       1.0  0.19250  0.91990  0.66260  1.0000 -0.0298777893
C   C79       1.0  0.09570  0.01030  0.59790  1.0000 0.4125217107
C   C80       1.0  0.33610  0.94850  0.61260  1.0000 0.4125217107
C   C81       1.0  0.36040  0.02220  0.88900  1.0000 -0.0803183988
C   C82       1.0  0.38480  0.90760  0.88960  1.0000 -0.1375412233
C   C83       1.0  0.51300  0.78360  0.89930  1.0000 0.0869135969
C   C84       1.0  0.61710  0.77570  0.91050  1.0000 -0.1375412233
C   C85       1.0  0.59400  0.89140  0.91130  1.0000 -0.0188812615
C   C86       1.0  0.46600  0.01340  0.89890  1.0000 -0.0393454423
C   C87       1.0  0.70440  0.88260  0.92690  1.0000 0.4013072812
C   C88       1.0  0.44190  0.13310  0.89690  1.0000 0.4125217107
C   C89       1.0  0.62460  0.56200  0.95690  1.0000 -0.1185281751
C   C90       1.0  0.53890  0.66030  0.90020  1.0000 0.0378604597
C   C91       1.0  0.47430  0.64250  0.84540  1.0000 0.0378604597
C   C92       1.0  0.50090  0.52670  0.85040  1.0000 -0.1375412233
C   C93       1.0  0.59270  0.42450  0.90730  1.0000 -0.0188812615
C   C94       1.0  0.65390  0.44290  0.96130  1.0000 -0.0393454423
C   C95       1.0  0.74970  0.33490  0.01910  1.0000 0.4125217107
C   C96       1.0  0.62790  0.29610  0.90610  1.0000 0.4189836048
N   N1        1.0  0.88380  0.93380  0.45160  1.0000 -0.3496653027
N   N2        1.0  0.76200  0.96880  0.44240  1.0000 -0.2186385951
N   N3        1.0  0.32120  0.00640  0.07350  1.0000 -0.3112653531
N   N4        1.0  0.45110  0.88550  0.09010  1.0000 -0.1882839128
N   N5        1.0  0.22600  0.77440  0.98750  1.0000 -0.2005600259
N   N6        1.0  0.27730  0.80230  0.04340  1.0000 -0.3336531631
N   N7        1.0  0.06620  0.11620  0.95160  1.0000 -0.3496653027
N   N8        1.0  0.03120  0.23800  0.94240  1.0000 -0.2186385951
N   N9        1.0  0.99360  0.67880  0.57350  1.0000 -0.3112653531
N   N10       1.0  0.11450  0.54890  0.59010  1.0000 -0.1882839128
N   N11       1.0  0.22560  0.77400  0.48750  1.0000 -0.2005600259
N   N12       1.0  0.19770  0.72270  0.54340  1.0000 -0.3336531631
N   N13       1.0  0.93380  0.88380  0.04840  1.0000 -0.3496653027
N   N14       1.0  0.96880  0.76200  0.05760  1.0000 -0.2186385951
N   N15       1.0  0.00640  0.32120  0.42650  1.0000 -0.3112653531
N   N16       1.0  0.88550  0.45110  0.40990  1.0000 -0.1882839128
N   N17       1.0  0.77440  0.22600  0.51250  1.0000 -0.2005600259
N   N18       1.0  0.80230  0.27730  0.45660  1.0000 -0.3336531631
N   N19       1.0  0.11620  0.06620  0.54840  1.0000 -0.3496653027
N   N20       1.0  0.23800  0.03120  0.55760  1.0000 -0.2186385951
N   N21       1.0  0.67880  0.99360  0.92650  1.0000 -0.3112653531
N   N22       1.0  0.54890  0.11450  0.90990  1.0000 -0.1882839128
N   N23       1.0  0.77400  0.22560  0.01250  1.0000 -0.2005600259
N   N24       1.0  0.72270  0.19770  0.95660  1.0000 -0.3336531631
O   O1        1.0  0.00680  0.96900  0.40950  1.0000 -0.4787314757
O   O2        1.0  0.55870  0.07690  0.38840  1.0000 -0.4787314757
O   O3        1.0  0.17920  0.22800  0.05680  1.0000 -0.3660555221
O   O4        1.0  0.66980  0.75240  0.11610  1.0000 -0.4478521012
O   O5        1.0  0.19330  0.65650  0.92810  1.0000 -0.473975148
O   O6        1.0  0.42520  0.72140  0.14380  1.0000 -0.4608784951
O   O7        1.0  0.03100  0.99320  0.90950  1.0000 -0.4787314757
O   O8        1.0  0.92310  0.44130  0.88840  1.0000 -0.4787314757
O   O9        1.0  0.77200  0.82080  0.55680  1.0000 -0.3660555221
O   O10       1.0  0.24760  0.33020  0.61610  1.0000 -0.4478521012
O   O11       1.0  0.34350  0.80670  0.42810  1.0000 -0.473975148
O   O12       1.0  0.27860  0.57480  0.64380  1.0000 -0.4608784951
O   O13       1.0  0.96900  0.00680  0.09050  1.0000 -0.4787314757
O   O14       1.0  0.07690  0.55870  0.11160  1.0000 -0.4787314757
O   O15       1.0  0.22800  0.17920  0.44320  1.0000 -0.3660555221
O   O16       1.0  0.75240  0.66980  0.38390  1.0000 -0.4478521012
O   O17       1.0  0.65650  0.19330  0.57190  1.0000 -0.473975148
O   O18       1.0  0.72140  0.42520  0.35620  1.0000 -0.4608784951
O   O19       1.0  0.99320  0.03100  0.59050  1.0000 -0.4787314757
O   O20       1.0  0.44130  0.92310  0.61160  1.0000 -0.4787314757
O   O21       1.0  0.82080  0.77200  0.94320  1.0000 -0.3660555221
O   O22       1.0  0.33020  0.24760  0.88390  1.0000 -0.4478521012
O   O23       1.0  0.80670  0.34350  0.07190  1.0000 -0.473975148
O   O24       1.0  0.57480  0.27860  0.85620  1.0000 -0.4608784951
