# DDEC6 charges by PACMAN v1.1 (https://github.com/mtap-research/PACMAN-charge/)
data_2020[Co][sit]3[ASR]1
_chemical_formula_sum              "Co12 H120 C216 O60"
_cell_length_a       17.502
_cell_length_b       21.746
_cell_length_c       25.373
_cell_angle_alpha    90
_cell_angle_beta     90
_cell_angle_gamma    90

_symmetry_space_group_name_H-M    "P 1"
_symmetry_Int_Tables_number       1

loop_
  _symmetry_equiv_pos_as_xyz
  'x, y, z'

loop_
  _atom_site_type_symbol
  _atom_site_label
  _atom_site_symmetry_multiplicity
  _atom_site_fract_x
  _atom_site_fract_y
  _atom_site_fract_z
  _atom_site_occupancy
  _atom_site_charge
Co  Co1       1.0  0.50258  0.42507  0.82033  1.0000 0.967510538
Co  Co2       1.0  0.99742  0.92507  0.17967  1.0000 0.967510538
Co  Co3       1.0  0.50258  0.42507  0.67967  1.0000 0.967510538
Co  Co4       1.0  0.99742  0.92507  0.32033  1.0000 0.967510538
Co  Co5       1.0  0.38774  0.33439  0.75000  1.0000 1.1008744853
Co  Co6       1.0  0.11226  0.83439  0.25000  1.0000 1.1008744853
Co  Co7       1.0  0.49742  0.57493  0.32033  1.0000 0.967510538
Co  Co8       1.0  0.00258  0.07493  0.67967  1.0000 0.967510538
Co  Co9       1.0  0.49742  0.57493  0.17967  1.0000 0.967510538
Co  Co10      1.0  0.00258  0.07493  0.82033  1.0000 0.967510538
Co  Co11      1.0  0.61226  0.66561  0.25000  1.0000 1.1008744853
Co  Co12      1.0  0.88774  0.16561  0.75000  1.0000 1.1008744853
H   H1        1.0  0.56082  0.28597  0.93679  1.0000 0.1191043749
H   H2        1.0  0.57302  0.20865  0.99788  1.0000 0.1191043749
H   H3        1.0  0.40948  0.11233  0.92462  1.0000 0.1102890645
H   H4        1.0  0.40174  0.18729  0.86054  1.0000 0.1191043749
H   H5        1.0  0.61108  0.10552  0.01752  1.0000 0.1191043749
H   H6        1.0  0.50995  0.98757  0.11615  1.0000 0.1102890645
H   H7        1.0  0.38340  0.08970  0.01748  1.0000 0.1102890645
H   H8        1.0  0.70480  0.03098  0.01833  1.0000 0.1102890645
H   H9        1.0  0.82343  0.00080  0.04691  1.0000 0.1273453909
H   H10       1.0  0.73863  0.96485  0.18901  1.0000 0.1273453909
H   H11       1.0  0.62057  0.00130  0.16231  1.0000 0.1191043749
H   H12       1.0  0.40837  0.92561  0.11527  1.0000 0.1191043749
H   H13       1.0  0.30052  0.88513  0.15273  1.0000 0.1273453909
H   H14       1.0  0.18330  0.03476  0.11195  1.0000 0.1191043749
H   H15       1.0  0.29273  0.07871  0.07942  1.0000 0.1191043749
H   H16       1.0  0.93918  0.78597  0.06321  1.0000 0.1191043749
H   H17       1.0  0.92698  0.70865  0.00212  1.0000 0.1191043749
H   H18       1.0  0.09052  0.61233  0.07538  1.0000 0.1102890645
H   H19       1.0  0.09826  0.68729  0.13946  1.0000 0.1191043749
H   H20       1.0  0.88892  0.60552  0.98248  1.0000 0.1191043749
H   H21       1.0  0.99005  0.48757  0.88385  1.0000 0.1102890645
H   H22       1.0  0.11660  0.58970  0.98252  1.0000 0.1102890645
H   H23       1.0  0.79520  0.53098  0.98167  1.0000 0.1102890645
H   H24       1.0  0.67657  0.50080  0.95309  1.0000 0.1273453909
H   H25       1.0  0.76137  0.46485  0.81099  1.0000 0.1273453909
H   H26       1.0  0.87943  0.50130  0.83769  1.0000 0.1191043749
H   H27       1.0  0.09163  0.42561  0.88473  1.0000 0.1191043749
H   H28       1.0  0.19948  0.38513  0.84727  1.0000 0.1273453909
H   H29       1.0  0.31670  0.53476  0.88805  1.0000 0.1191043749
H   H30       1.0  0.20727  0.57871  0.92058  1.0000 0.1191043749
H   H31       1.0  0.56082  0.28597  0.56321  1.0000 0.1273453909
H   H32       1.0  0.57302  0.20865  0.50212  1.0000 0.1191043749
H   H33       1.0  0.40948  0.11233  0.57538  1.0000 0.1102890645
H   H34       1.0  0.40174  0.18729  0.63946  1.0000 0.1191043749
H   H35       1.0  0.61108  0.10552  0.48248  1.0000 0.1191043749
H   H36       1.0  0.50995  0.98757  0.38385  1.0000 0.1102890645
H   H37       1.0  0.38340  0.08970  0.48252  1.0000 0.1102890645
H   H38       1.0  0.70480  0.03098  0.48167  1.0000 0.1102890645
H   H39       1.0  0.82343  0.00080  0.45309  1.0000 0.1273453909
H   H40       1.0  0.73863  0.96485  0.31099  1.0000 0.1273453909
H   H41       1.0  0.62057  0.00130  0.33769  1.0000 0.1191043749
H   H42       1.0  0.40837  0.92561  0.38473  1.0000 0.1191043749
H   H43       1.0  0.30052  0.88513  0.34727  1.0000 0.1273453909
H   H44       1.0  0.18330  0.03476  0.38805  1.0000 0.1191043749
H   H45       1.0  0.29273  0.07871  0.42058  1.0000 0.1191043749
H   H46       1.0  0.93918  0.78597  0.43679  1.0000 0.1191043749
H   H47       1.0  0.92698  0.70865  0.49788  1.0000 0.1191043749
H   H48       1.0  0.09052  0.61233  0.42462  1.0000 0.1102890645
H   H49       1.0  0.09826  0.68729  0.36054  1.0000 0.1191043749
H   H50       1.0  0.88892  0.60552  0.51752  1.0000 0.1191043749
H   H51       1.0  0.99005  0.48757  0.61615  1.0000 0.1102890645
H   H52       1.0  0.11660  0.58970  0.51748  1.0000 0.1102890645
H   H53       1.0  0.79520  0.53098  0.51833  1.0000 0.1102890645
H   H54       1.0  0.67657  0.50080  0.54691  1.0000 0.1273453909
H   H55       1.0  0.76137  0.46485  0.68901  1.0000 0.1273453909
H   H56       1.0  0.87943  0.50130  0.66231  1.0000 0.1191043749
H   H57       1.0  0.09163  0.42561  0.61527  1.0000 0.1191043749
H   H58       1.0  0.19948  0.38513  0.65273  1.0000 0.1273453909
H   H59       1.0  0.31670  0.53476  0.61195  1.0000 0.1191043749
H   H60       1.0  0.20727  0.57871  0.57942  1.0000 0.1191043749
H   H61       1.0  0.43918  0.71403  0.43679  1.0000 0.1273453909
H   H62       1.0  0.42698  0.79135  0.49788  1.0000 0.1191043749
H   H63       1.0  0.59052  0.88767  0.42462  1.0000 0.1102890645
H   H64       1.0  0.59826  0.81271  0.36054  1.0000 0.1191043749
H   H65       1.0  0.38892  0.89448  0.51752  1.0000 0.1191043749
H   H66       1.0  0.49005  0.01243  0.61615  1.0000 0.1102890645
H   H67       1.0  0.61660  0.91030  0.51748  1.0000 0.1102890645
H   H68       1.0  0.29520  0.96902  0.51833  1.0000 0.1102890645
H   H69       1.0  0.17657  0.99920  0.54691  1.0000 0.1273453909
H   H70       1.0  0.26137  0.03515  0.68901  1.0000 0.1273453909
H   H71       1.0  0.37943  0.99870  0.66231  1.0000 0.1191043749
H   H72       1.0  0.59163  0.07439  0.61527  1.0000 0.1191043749
H   H73       1.0  0.69948  0.11487  0.65273  1.0000 0.1273453909
H   H74       1.0  0.81670  0.96524  0.61195  1.0000 0.1191043749
H   H75       1.0  0.70727  0.92129  0.57942  1.0000 0.1191043749
H   H76       1.0  0.06082  0.21403  0.56321  1.0000 0.1191043749
H   H77       1.0  0.07302  0.29135  0.50212  1.0000 0.1191043749
H   H78       1.0  0.90948  0.38767  0.57538  1.0000 0.1102890645
H   H79       1.0  0.90174  0.31271  0.63946  1.0000 0.1191043749
H   H80       1.0  0.11108  0.39448  0.48248  1.0000 0.1191043749
H   H81       1.0  0.00995  0.51243  0.38385  1.0000 0.1102890645
H   H82       1.0  0.88340  0.41030  0.48252  1.0000 0.1102890645
H   H83       1.0  0.20480  0.46902  0.48167  1.0000 0.1102890645
H   H84       1.0  0.32343  0.49920  0.45309  1.0000 0.1273453909
H   H85       1.0  0.23863  0.53515  0.31099  1.0000 0.1273453909
H   H86       1.0  0.12057  0.49870  0.33769  1.0000 0.1191043749
H   H87       1.0  0.90837  0.57439  0.38473  1.0000 0.1191043749
H   H88       1.0  0.80052  0.61487  0.34727  1.0000 0.1273453909
H   H89       1.0  0.68330  0.46524  0.38805  1.0000 0.1191043749
H   H90       1.0  0.79273  0.42129  0.42058  1.0000 0.1191043749
H   H91       1.0  0.43918  0.71403  0.06321  1.0000 0.1273453909
H   H92       1.0  0.42698  0.79135  0.00212  1.0000 0.1191043749
H   H93       1.0  0.59052  0.88767  0.07538  1.0000 0.1102890645
H   H94       1.0  0.59826  0.81271  0.13946  1.0000 0.1191043749
H   H95       1.0  0.38892  0.89448  0.98248  1.0000 0.1191043749
H   H96       1.0  0.49005  0.01243  0.88385  1.0000 0.1102890645
H   H97       1.0  0.61660  0.91030  0.98252  1.0000 0.1102890645
H   H98       1.0  0.29520  0.96902  0.98167  1.0000 0.1102890645
H   H99       1.0  0.17657  0.99920  0.95309  1.0000 0.1273453909
H   H100      1.0  0.26137  0.03515  0.81099  1.0000 0.1273453909
H   H101      1.0  0.37943  0.99870  0.83769  1.0000 0.1191043749
H   H102      1.0  0.59163  0.07439  0.88473  1.0000 0.1191043749
H   H103      1.0  0.69948  0.11487  0.84727  1.0000 0.1273453909
H   H104      1.0  0.81670  0.96524  0.88805  1.0000 0.1191043749
H   H105      1.0  0.70727  0.92129  0.92058  1.0000 0.1191043749
H   H106      1.0  0.06082  0.21403  0.93679  1.0000 0.1191043749
H   H107      1.0  0.07302  0.29135  0.99788  1.0000 0.1191043749
H   H108      1.0  0.90948  0.38767  0.92462  1.0000 0.1102890645
H   H109      1.0  0.90174  0.31271  0.86054  1.0000 0.1191043749
H   H110      1.0  0.11108  0.39448  0.01752  1.0000 0.1191043749
H   H111      1.0  0.00995  0.51243  0.11615  1.0000 0.1102890645
H   H112      1.0  0.88340  0.41030  0.01748  1.0000 0.1102890645
H   H113      1.0  0.20480  0.46902  0.01833  1.0000 0.1102890645
H   H114      1.0  0.32343  0.49920  0.04691  1.0000 0.1273453909
H   H115      1.0  0.23863  0.53515  0.18901  1.0000 0.1273453909
H   H116      1.0  0.12057  0.49870  0.16231  1.0000 0.1191043749
H   H117      1.0  0.90837  0.57439  0.11527  1.0000 0.1191043749
H   H118      1.0  0.80052  0.61487  0.15273  1.0000 0.1273453909
H   H119      1.0  0.68330  0.46524  0.11195  1.0000 0.1191043749
H   H120      1.0  0.79273  0.42129  0.07942  1.0000 0.1191043749
C   C1        1.0  0.47300  0.29400  0.85051  1.0000 0.5919817206
C   C2        1.0  0.47990  0.24440  0.89141  1.0000 -0.0284169664
C   C3        1.0  0.53100  0.25070  0.93390  1.0000 -0.090781826
C   C4        1.0  0.53690  0.20490  0.97120  1.0000 -0.1502732823
C   C5        1.0  0.49120  0.15450  0.96990  1.0000 0.0633656102
C   C6        1.0  0.43990  0.14730  0.92690  1.0000 -0.1615082739
C   C7        1.0  0.43540  0.19230  0.88861  1.0000 -0.090781826
C   C8        1.0  0.49650  0.10550  0.01090  1.0000 0.0821435177
C   C9        1.0  0.56710  0.08700  0.03050  1.0000 -0.1988997479
C   C10       1.0  0.57390  0.04200  0.06860  1.0000 0.0821435177
C   C11       1.0  0.50650  0.01660  0.08930  1.0000 -0.1988997479
C   C12       1.0  0.43430  0.03380  0.07060  1.0000 0.0821435177
C   C13       1.0  0.43080  0.07820  0.03090  1.0000 -0.1988997479
C   C14       1.0  0.64970  0.02170  0.08780  1.0000 0.067442275
C   C15       1.0  0.71150  0.01950  0.05330  1.0000 -0.1615082739
C   C16       1.0  0.78270  0.00060  0.07040  1.0000 -0.090781826
C   C17       1.0  0.79450  0.98160  0.12110  1.0000 -0.0046436412
C   C18       1.0  0.73260  0.98010  0.15500  1.0000 -0.090781826
C   C19       1.0  0.66110  0.00110  0.13860  1.0000 -0.1615082739
C   C20       1.0  0.87150  0.96050  0.14090  1.0000 0.5130799802
C   C21       1.0  0.36350  0.00700  0.09311  1.0000 0.067442275
C   C22       1.0  0.36360  0.94860  0.11540  1.0000 -0.1615082739
C   C23       1.0  0.29850  0.92410  0.13780  1.0000 -0.0837105049
C   C24       1.0  0.23050  0.95620  0.13839  1.0000 -0.0284169664
C   C25       1.0  0.22920  0.01340  0.11420  1.0000 -0.090781826
C   C26       1.0  0.29460  0.03920  0.09340  1.0000 -0.1615082739
C   C27       1.0  0.16140  0.92980  0.16461  1.0000 0.5957551914
C   C28       1.0  0.02700  0.79400  0.14949  1.0000 0.5919817206
C   C29       1.0  0.02010  0.74440  0.10859  1.0000 -0.0284169664
C   C30       1.0  0.96900  0.75070  0.06610  1.0000 -0.090781826
C   C31       1.0  0.96310  0.70490  0.02880  1.0000 -0.1502732823
C   C32       1.0  0.00880  0.65450  0.03010  1.0000 0.0633656102
C   C33       1.0  0.06010  0.64730  0.07310  1.0000 -0.1615082739
C   C34       1.0  0.06460  0.69230  0.11139  1.0000 -0.090781826
C   C35       1.0  0.00350  0.60550  0.98910  1.0000 0.0821435177
C   C36       1.0  0.93290  0.58700  0.96950  1.0000 -0.1988997479
C   C37       1.0  0.92610  0.54200  0.93140  1.0000 0.0821435177
C   C38       1.0  0.99350  0.51660  0.91070  1.0000 -0.1988997479
C   C39       1.0  0.06570  0.53380  0.92940  1.0000 0.0821435177
C   C40       1.0  0.06920  0.57820  0.96910  1.0000 -0.1988997479
C   C41       1.0  0.85030  0.52170  0.91220  1.0000 0.067442275
C   C42       1.0  0.78850  0.51950  0.94670  1.0000 -0.1615082739
C   C43       1.0  0.71730  0.50060  0.92960  1.0000 -0.090781826
C   C44       1.0  0.70550  0.48160  0.87890  1.0000 -0.0046436412
C   C45       1.0  0.76740  0.48010  0.84500  1.0000 -0.090781826
C   C46       1.0  0.83890  0.50110  0.86140  1.0000 -0.1615082739
C   C47       1.0  0.62850  0.46050  0.85910  1.0000 0.5130799802
C   C48       1.0  0.13650  0.50700  0.90689  1.0000 0.067442275
C   C49       1.0  0.13640  0.44860  0.88460  1.0000 -0.1615082739
C   C50       1.0  0.20150  0.42410  0.86220  1.0000 -0.0837105049
C   C51       1.0  0.26950  0.45620  0.86161  1.0000 -0.0284169664
C   C52       1.0  0.27080  0.51340  0.88580  1.0000 -0.090781826
C   C53       1.0  0.20540  0.53920  0.90660  1.0000 -0.1615082739
C   C54       1.0  0.33860  0.42980  0.83539  1.0000 0.5957551914
C   C55       1.0  0.47300  0.29400  0.64949  1.0000 0.5919817206
C   C56       1.0  0.47990  0.24440  0.60859  1.0000 -0.0284169664
C   C57       1.0  0.53100  0.25070  0.56610  1.0000 -0.090781826
C   C58       1.0  0.53690  0.20490  0.52880  1.0000 -0.1502732823
C   C59       1.0  0.49120  0.15450  0.53010  1.0000 0.0633656102
C   C60       1.0  0.43990  0.14730  0.57310  1.0000 -0.1615082739
C   C61       1.0  0.43540  0.19230  0.61139  1.0000 -0.090781826
C   C62       1.0  0.49650  0.10550  0.48910  1.0000 0.0821435177
C   C63       1.0  0.56710  0.08700  0.46950  1.0000 -0.1988997479
C   C64       1.0  0.57390  0.04200  0.43140  1.0000 0.0821435177
C   C65       1.0  0.50650  0.01660  0.41070  1.0000 -0.1988997479
C   C66       1.0  0.43430  0.03380  0.42940  1.0000 0.0821435177
C   C67       1.0  0.43080  0.07820  0.46910  1.0000 -0.1988997479
C   C68       1.0  0.64970  0.02170  0.41220  1.0000 0.067442275
C   C69       1.0  0.71150  0.01950  0.44670  1.0000 -0.1615082739
C   C70       1.0  0.78270  0.00060  0.42960  1.0000 -0.090781826
C   C71       1.0  0.79450  0.98160  0.37890  1.0000 -0.0046436412
C   C72       1.0  0.73260  0.98010  0.34500  1.0000 -0.090781826
C   C73       1.0  0.66110  0.00110  0.36140  1.0000 -0.1615082739
C   C74       1.0  0.87150  0.96050  0.35910  1.0000 0.5130799802
C   C75       1.0  0.36350  0.00700  0.40689  1.0000 0.067442275
C   C76       1.0  0.36360  0.94860  0.38460  1.0000 -0.1615082739
C   C77       1.0  0.29850  0.92410  0.36220  1.0000 -0.0837105049
C   C78       1.0  0.23050  0.95620  0.36161  1.0000 -0.0284169664
C   C79       1.0  0.22920  0.01340  0.38580  1.0000 -0.090781826
C   C80       1.0  0.29460  0.03920  0.40660  1.0000 -0.1615082739
C   C81       1.0  0.16140  0.92980  0.33539  1.0000 0.5957551914
C   C82       1.0  0.02700  0.79400  0.35051  1.0000 0.5919817206
C   C83       1.0  0.02010  0.74440  0.39141  1.0000 -0.0284169664
C   C84       1.0  0.96900  0.75070  0.43390  1.0000 -0.090781826
C   C85       1.0  0.96310  0.70490  0.47120  1.0000 -0.1502732823
C   C86       1.0  0.00880  0.65450  0.46990  1.0000 0.0633656102
C   C87       1.0  0.06010  0.64730  0.42690  1.0000 -0.1615082739
C   C88       1.0  0.06460  0.69230  0.38861  1.0000 -0.090781826
C   C89       1.0  0.00350  0.60550  0.51090  1.0000 0.0821435177
C   C90       1.0  0.93290  0.58700  0.53050  1.0000 -0.1988997479
C   C91       1.0  0.92610  0.54200  0.56860  1.0000 0.0821435177
C   C92       1.0  0.99350  0.51660  0.58930  1.0000 -0.1988997479
C   C93       1.0  0.06570  0.53380  0.57060  1.0000 0.0821435177
C   C94       1.0  0.06920  0.57820  0.53090  1.0000 -0.1988997479
C   C95       1.0  0.85030  0.52170  0.58780  1.0000 0.067442275
C   C96       1.0  0.78850  0.51950  0.55330  1.0000 -0.1615082739
C   C97       1.0  0.71730  0.50060  0.57040  1.0000 -0.090781826
C   C98       1.0  0.70550  0.48160  0.62110  1.0000 -0.0046436412
C   C99       1.0  0.76740  0.48010  0.65500  1.0000 -0.090781826
C   C100      1.0  0.83890  0.50110  0.63860  1.0000 -0.1615082739
C   C101      1.0  0.62850  0.46050  0.64090  1.0000 0.5130799802
C   C102      1.0  0.13650  0.50700  0.59311  1.0000 0.067442275
C   C103      1.0  0.13640  0.44860  0.61540  1.0000 -0.1615082739
C   C104      1.0  0.20150  0.42410  0.63780  1.0000 -0.0837105049
C   C105      1.0  0.26950  0.45620  0.63839  1.0000 -0.0284169664
C   C106      1.0  0.27080  0.51340  0.61420  1.0000 -0.090781826
C   C107      1.0  0.20540  0.53920  0.59340  1.0000 -0.1615082739
C   C108      1.0  0.33860  0.42980  0.66461  1.0000 0.5957551914
C   C109      1.0  0.52700  0.70600  0.35051  1.0000 0.5919817206
C   C110      1.0  0.52010  0.75560  0.39141  1.0000 -0.0284169664
C   C111      1.0  0.46900  0.74930  0.43390  1.0000 -0.090781826
C   C112      1.0  0.46310  0.79510  0.47120  1.0000 -0.1502732823
C   C113      1.0  0.50880  0.84550  0.46990  1.0000 0.0633656102
C   C114      1.0  0.56010  0.85270  0.42690  1.0000 -0.1615082739
C   C115      1.0  0.56460  0.80770  0.38861  1.0000 -0.090781826
C   C116      1.0  0.50350  0.89450  0.51090  1.0000 0.0821435177
C   C117      1.0  0.43290  0.91300  0.53050  1.0000 -0.1988997479
C   C118      1.0  0.42610  0.95800  0.56860  1.0000 0.0821435177
C   C119      1.0  0.49350  0.98340  0.58930  1.0000 -0.1988997479
C   C120      1.0  0.56570  0.96620  0.57060  1.0000 0.0821435177
C   C121      1.0  0.56920  0.92180  0.53090  1.0000 -0.1988997479
C   C122      1.0  0.35030  0.97830  0.58780  1.0000 0.067442275
C   C123      1.0  0.28850  0.98050  0.55330  1.0000 -0.1615082739
C   C124      1.0  0.21730  0.99940  0.57040  1.0000 -0.090781826
C   C125      1.0  0.20550  0.01840  0.62110  1.0000 -0.0046436412
C   C126      1.0  0.26740  0.01990  0.65500  1.0000 -0.090781826
C   C127      1.0  0.33890  0.99890  0.63860  1.0000 -0.1615082739
C   C128      1.0  0.12850  0.03950  0.64090  1.0000 0.5130799802
C   C129      1.0  0.63650  0.99300  0.59311  1.0000 0.067442275
C   C130      1.0  0.63640  0.05140  0.61540  1.0000 -0.1615082739
C   C131      1.0  0.70150  0.07590  0.63780  1.0000 -0.0837105049
C   C132      1.0  0.76950  0.04380  0.63839  1.0000 -0.0284169664
C   C133      1.0  0.77080  0.98660  0.61420  1.0000 -0.090781826
C   C134      1.0  0.70540  0.96080  0.59340  1.0000 -0.1615082739
C   C135      1.0  0.83860  0.07020  0.66461  1.0000 0.5919817206
C   C136      1.0  0.97300  0.20600  0.64949  1.0000 0.5919817206
C   C137      1.0  0.97990  0.25560  0.60859  1.0000 -0.0284169664
C   C138      1.0  0.03100  0.24930  0.56610  1.0000 -0.090781826
C   C139      1.0  0.03690  0.29510  0.52880  1.0000 -0.1502732823
C   C140      1.0  0.99120  0.34550  0.53010  1.0000 0.0633656102
C   C141      1.0  0.93990  0.35270  0.57310  1.0000 -0.1615082739
C   C142      1.0  0.93540  0.30770  0.61139  1.0000 -0.090781826
C   C143      1.0  0.99650  0.39450  0.48910  1.0000 0.0821435177
C   C144      1.0  0.06710  0.41300  0.46950  1.0000 -0.1988997479
C   C145      1.0  0.07390  0.45800  0.43140  1.0000 0.0821435177
C   C146      1.0  0.00650  0.48340  0.41070  1.0000 -0.1988997479
C   C147      1.0  0.93430  0.46620  0.42940  1.0000 0.0821435177
C   C148      1.0  0.93080  0.42180  0.46910  1.0000 -0.1988997479
C   C149      1.0  0.14970  0.47830  0.41220  1.0000 0.067442275
C   C150      1.0  0.21150  0.48050  0.44670  1.0000 -0.1615082739
C   C151      1.0  0.28270  0.49940  0.42960  1.0000 -0.090781826
C   C152      1.0  0.29450  0.51840  0.37890  1.0000 -0.0046436412
C   C153      1.0  0.23260  0.51990  0.34500  1.0000 -0.090781826
C   C154      1.0  0.16110  0.49890  0.36140  1.0000 -0.1615082739
C   C155      1.0  0.37150  0.53950  0.35910  1.0000 0.5130799802
C   C156      1.0  0.86350  0.49300  0.40689  1.0000 0.067442275
C   C157      1.0  0.86360  0.55140  0.38460  1.0000 -0.1615082739
C   C158      1.0  0.79850  0.57590  0.36220  1.0000 -0.0837105049
C   C159      1.0  0.73050  0.54380  0.36161  1.0000 -0.0284169664
C   C160      1.0  0.72920  0.48660  0.38580  1.0000 -0.090781826
C   C161      1.0  0.79460  0.46080  0.40660  1.0000 -0.1615082739
C   C162      1.0  0.66140  0.57020  0.33539  1.0000 0.5919817206
C   C163      1.0  0.52700  0.70600  0.14949  1.0000 0.5919817206
C   C164      1.0  0.52010  0.75560  0.10859  1.0000 -0.0284169664
C   C165      1.0  0.46900  0.74930  0.06610  1.0000 -0.090781826
C   C166      1.0  0.46310  0.79510  0.02880  1.0000 -0.1502732823
C   C167      1.0  0.50880  0.84550  0.03010  1.0000 0.0633656102
C   C168      1.0  0.56010  0.85270  0.07310  1.0000 -0.1615082739
C   C169      1.0  0.56460  0.80770  0.11139  1.0000 -0.090781826
C   C170      1.0  0.50350  0.89450  0.98910  1.0000 0.0821435177
C   C171      1.0  0.43290  0.91300  0.96950  1.0000 -0.1988997479
C   C172      1.0  0.42610  0.95800  0.93140  1.0000 0.0821435177
C   C173      1.0  0.49350  0.98340  0.91070  1.0000 -0.1988997479
C   C174      1.0  0.56570  0.96620  0.92940  1.0000 0.0821435177
C   C175      1.0  0.56920  0.92180  0.96910  1.0000 -0.1988997479
C   C176      1.0  0.35030  0.97830  0.91220  1.0000 0.067442275
C   C177      1.0  0.28850  0.98050  0.94670  1.0000 -0.1615082739
C   C178      1.0  0.21730  0.99940  0.92960  1.0000 -0.090781826
C   C179      1.0  0.20550  0.01840  0.87890  1.0000 -0.0046436412
C   C180      1.0  0.26740  0.01990  0.84500  1.0000 -0.090781826
C   C181      1.0  0.33890  0.99890  0.86140  1.0000 -0.1615082739
C   C182      1.0  0.12850  0.03950  0.85910  1.0000 0.5130799802
C   C183      1.0  0.63650  0.99300  0.90689  1.0000 0.067442275
C   C184      1.0  0.63640  0.05140  0.88460  1.0000 -0.1615082739
C   C185      1.0  0.70150  0.07590  0.86220  1.0000 -0.0837105049
C   C186      1.0  0.76950  0.04380  0.86161  1.0000 -0.0284169664
C   C187      1.0  0.77080  0.98660  0.88580  1.0000 -0.090781826
C   C188      1.0  0.70540  0.96080  0.90660  1.0000 -0.1615082739
C   C189      1.0  0.83860  0.07020  0.83539  1.0000 0.5919817206
C   C190      1.0  0.97300  0.20600  0.85051  1.0000 0.5919817206
C   C191      1.0  0.97990  0.25560  0.89141  1.0000 -0.0284169664
C   C192      1.0  0.03100  0.24930  0.93390  1.0000 -0.090781826
C   C193      1.0  0.03690  0.29510  0.97120  1.0000 -0.1502732823
C   C194      1.0  0.99120  0.34550  0.96990  1.0000 0.0633656102
C   C195      1.0  0.93990  0.35270  0.92690  1.0000 -0.1615082739
C   C196      1.0  0.93540  0.30770  0.88861  1.0000 -0.090781826
C   C197      1.0  0.99650  0.39450  0.01090  1.0000 0.0821435177
C   C198      1.0  0.06710  0.41300  0.03050  1.0000 -0.1988997479
C   C199      1.0  0.07390  0.45800  0.06860  1.0000 0.0821435177
C   C200      1.0  0.00650  0.48340  0.08930  1.0000 -0.1988997479
C   C201      1.0  0.93430  0.46620  0.07060  1.0000 0.0821435177
C   C202      1.0  0.93080  0.42180  0.03090  1.0000 -0.1988997479
C   C203      1.0  0.14970  0.47830  0.08780  1.0000 0.067442275
C   C204      1.0  0.21150  0.48050  0.05330  1.0000 -0.1615082739
C   C205      1.0  0.28270  0.49940  0.07040  1.0000 -0.090781826
C   C206      1.0  0.29450  0.51840  0.12110  1.0000 -0.0046436412
C   C207      1.0  0.23260  0.51990  0.15500  1.0000 -0.090781826
C   C208      1.0  0.16110  0.49890  0.13860  1.0000 -0.1615082739
C   C209      1.0  0.37150  0.53950  0.14090  1.0000 0.5130799802
C   C210      1.0  0.86350  0.49300  0.09311  1.0000 0.067442275
C   C211      1.0  0.86360  0.55140  0.11540  1.0000 -0.1615082739
C   C212      1.0  0.79850  0.57590  0.13780  1.0000 -0.0837105049
C   C213      1.0  0.73050  0.54380  0.13839  1.0000 -0.0284169664
C   C214      1.0  0.72920  0.48660  0.11420  1.0000 -0.090781826
C   C215      1.0  0.79460  0.46080  0.09340  1.0000 -0.1615082739
C   C216      1.0  0.66140  0.57020  0.16461  1.0000 0.5919817206
O   O1        1.0  0.43628  0.28058  0.80930  1.0000 -0.5424611849
O   O2        1.0  0.50299  0.34469  0.86156  1.0000 -0.5302336534
O   O3        1.0  0.92820  0.97290  0.11620  1.0000 -0.4330099655
O   O4        1.0  0.87840  0.93380  0.18160  1.0000 -0.4209776876
O   O5        1.0  0.16977  0.88425  0.19206  1.0000 -0.5302336534
O   O6        1.0  0.09826  0.95847  0.15760  1.0000 -0.5636434836
O   O7        1.0  0.50330  0.51170  0.76870  1.0000 0.1821540033
O   O8        1.0  0.06372  0.78058  0.19070  1.0000 -0.5424611849
O   O9        1.0  0.99701  0.84469  0.13844  1.0000 -0.5302336534
O   O10       1.0  0.57180  0.47290  0.88380  1.0000 -0.4375685734
O   O11       1.0  0.62160  0.43380  0.81840  1.0000 -0.4209776876
O   O12       1.0  0.33023  0.38425  0.80794  1.0000 -0.5302336534
O   O13       1.0  0.40174  0.45847  0.84240  1.0000 -0.5636434836
O   O14       1.0  0.99670  0.01170  0.23130  1.0000 0.1821540033
O   O15       1.0  0.43628  0.28058  0.69070  1.0000 -0.5424611849
O   O16       1.0  0.50299  0.34469  0.63844  1.0000 -0.5302336534
O   O17       1.0  0.92820  0.97290  0.38380  1.0000 -0.4330099655
O   O18       1.0  0.87840  0.93380  0.31840  1.0000 -0.4209776876
O   O19       1.0  0.16977  0.88425  0.30794  1.0000 -0.5302336534
O   O20       1.0  0.09826  0.95847  0.34240  1.0000 -0.5636434836
O   O21       1.0  0.50330  0.51170  0.73130  1.0000 0.1821540033
O   O22       1.0  0.06372  0.78058  0.30930  1.0000 -0.5424611849
O   O23       1.0  0.99701  0.84469  0.36156  1.0000 -0.5302336534
O   O24       1.0  0.57180  0.47290  0.61620  1.0000 -0.4375685734
O   O25       1.0  0.62160  0.43380  0.68160  1.0000 -0.4209776876
O   O26       1.0  0.33023  0.38425  0.69206  1.0000 -0.5302336534
O   O27       1.0  0.40174  0.45847  0.65760  1.0000 -0.5636434836
O   O28       1.0  0.99670  0.01170  0.26870  1.0000 0.1821540033
O   O29       1.0  0.49077  0.38552  0.75000  1.0000 -0.8918267372
O   O30       1.0  0.00923  0.88552  0.25000  1.0000 -0.8955632133
O   O31       1.0  0.56372  0.71942  0.30930  1.0000 -0.5424611849
O   O32       1.0  0.49701  0.65531  0.36156  1.0000 -0.5302336534
O   O33       1.0  0.07180  0.02710  0.61620  1.0000 -0.4330099655
O   O34       1.0  0.12160  0.06620  0.68160  1.0000 -0.4209776876
O   O35       1.0  0.83023  0.11575  0.69206  1.0000 -0.5302336534
O   O36       1.0  0.90174  0.04153  0.65760  1.0000 -0.5636434836
O   O37       1.0  0.49670  0.48830  0.26870  1.0000 0.1821540033
O   O38       1.0  0.93628  0.21942  0.69070  1.0000 -0.5424611849
O   O39       1.0  0.00299  0.15531  0.63844  1.0000 -0.5302336534
O   O40       1.0  0.42820  0.52710  0.38380  1.0000 -0.4375685734
O   O41       1.0  0.37840  0.56620  0.31840  1.0000 -0.4209776876
O   O42       1.0  0.66977  0.61575  0.30794  1.0000 -0.5302336534
O   O43       1.0  0.59826  0.54153  0.34240  1.0000 -0.5636434836
O   O44       1.0  0.00330  0.98830  0.73130  1.0000 0.1821540033
O   O45       1.0  0.56372  0.71942  0.19070  1.0000 -0.5424611849
O   O46       1.0  0.49701  0.65531  0.13844  1.0000 -0.5302336534
O   O47       1.0  0.07180  0.02710  0.88380  1.0000 -0.4330099655
O   O48       1.0  0.12160  0.06620  0.81840  1.0000 -0.4209776876
O   O49       1.0  0.83023  0.11575  0.80794  1.0000 -0.5302336534
O   O50       1.0  0.90174  0.04153  0.84240  1.0000 -0.5636434836
O   O51       1.0  0.49670  0.48830  0.23130  1.0000 0.1821540033
O   O52       1.0  0.93628  0.21942  0.80930  1.0000 -0.5424611849
O   O53       1.0  0.00299  0.15531  0.86156  1.0000 -0.5302336534
O   O54       1.0  0.42820  0.52710  0.11620  1.0000 -0.4375685734
O   O55       1.0  0.37840  0.56620  0.18160  1.0000 -0.4209776876
O   O56       1.0  0.66977  0.61575  0.19206  1.0000 -0.5302336534
O   O57       1.0  0.59826  0.54153  0.15760  1.0000 -0.5636434836
O   O58       1.0  0.00330  0.98830  0.76870  1.0000 0.1821540033
O   O59       1.0  0.50923  0.61448  0.25000  1.0000 -0.8918267372
O   O60       1.0  0.99077  0.11448  0.75000  1.0000 -0.8918267372
