# DDEC6 charges by PACMAN v1.1 (https://github.com/mtap-research/PACMAN-charge/)
data_2020[Zn][nan]2[ASR]4
_chemical_formula_sum              "Zn10 H54 C126 N6 O48"
_cell_length_a       17.1814
_cell_length_b       17.1814
_cell_length_c       16.944
_cell_angle_alpha    81.5614
_cell_angle_beta     98.4386
_cell_angle_gamma    83.5285

_symmetry_space_group_name_H-M    "P 1"
_symmetry_Int_Tables_number       1

loop_
  _symmetry_equiv_pos_as_xyz
  'x, y, z'

loop_
  _atom_site_type_symbol
  _atom_site_label
  _atom_site_symmetry_multiplicity
  _atom_site_fract_x
  _atom_site_fract_y
  _atom_site_fract_z
  _atom_site_occupancy
  _atom_site_charge
Zn  Zn1       1.0  0.92243  0.69989  0.82716  1.0000 0.9328380485
Zn  Zn2       1.0  0.69989  0.92243  0.17284  1.0000 0.9328380485
Zn  Zn3       1.0  0.07757  0.30011  0.17284  1.0000 0.9328380485
Zn  Zn4       1.0  0.30011  0.07757  0.82716  1.0000 0.9328380485
Zn  Zn5       1.0  0.43493  0.56507  0.99546  1.0000 0.9425247768
Zn  Zn6       1.0  0.56507  0.43493  0.00454  1.0000 0.9425247768
Zn  Zn7       1.0  0.15718  0.84282  0.34310  1.0000 0.9425247768
Zn  Zn8       1.0  0.29392  0.70608  0.38710  1.0000 0.9425247768
Zn  Zn9       1.0  0.84282  0.15718  0.65690  1.0000 0.9425247768
Zn  Zn10      1.0  0.70608  0.29392  0.61290  1.0000 0.9425247768
H   H1        1.0  0.01480  0.54020  0.67680  1.0000 0.1218491756
H   H2        1.0  0.08770  0.74150  0.58430  1.0000 0.1398637693
H   H3        1.0  0.05730  0.47950  0.57620  1.0000 0.1218491756
H   H4        1.0  0.18080  0.43040  0.52420  1.0000 0.1309111426
H   H5        1.0  0.21360  0.36800  0.41960  1.0000 0.1309111426
H   H6        1.0  0.18300  0.43620  0.28820  1.0000 0.1398637693
H   H7        1.0  0.05660  0.48120  0.19070  1.0000 0.1309111426
H   H8        1.0  0.01300  0.54200  0.05850  1.0000 0.1309111426
H   H9        1.0  0.07760  0.74680  0.10970  1.0000 0.1398637693
H   H10       1.0  0.69090  0.62030  0.87020  1.0000 0.1398637693
H   H11       1.0  0.65010  0.75190  0.64830  1.0000 0.1218491756
H   H12       1.0  0.52220  0.72780  0.63260  1.0000 0.1218491756
H   H13       1.0  0.39380  0.76260  0.68150  1.0000 0.1218491756
H   H14       1.0  0.54020  0.01480  0.32320  1.0000 0.1218491756
H   H15       1.0  0.74150  0.08770  0.41570  1.0000 0.1398637693
H   H16       1.0  0.47950  0.05730  0.42380  1.0000 0.1218491756
H   H17       1.0  0.43040  0.18080  0.47580  1.0000 0.1218491756
H   H18       1.0  0.36800  0.21360  0.58040  1.0000 0.1309111426
H   H19       1.0  0.43620  0.18300  0.71180  1.0000 0.1398637693
H   H20       1.0  0.48120  0.05660  0.80930  1.0000 0.1309111426
H   H21       1.0  0.54200  0.01300  0.94150  1.0000 0.1309111426
H   H22       1.0  0.74680  0.07760  0.89030  1.0000 0.1398637693
H   H23       1.0  0.62030  0.69090  0.12980  1.0000 0.1398637693
H   H24       1.0  0.75190  0.65010  0.35170  1.0000 0.1218491756
H   H25       1.0  0.72780  0.52220  0.36740  1.0000 0.1218491756
H   H26       1.0  0.76260  0.39380  0.31850  1.0000 0.1218491756
H   H27       1.0  0.98520  0.45980  0.32320  1.0000 0.1218491756
H   H28       1.0  0.91230  0.25850  0.41570  1.0000 0.1398637693
H   H29       1.0  0.94270  0.52050  0.42380  1.0000 0.1218491756
H   H30       1.0  0.81920  0.56960  0.47580  1.0000 0.1218491756
H   H31       1.0  0.78640  0.63200  0.58040  1.0000 0.1309111426
H   H32       1.0  0.81700  0.56380  0.71180  1.0000 0.1398637693
H   H33       1.0  0.94340  0.51880  0.80930  1.0000 0.1309111426
H   H34       1.0  0.98700  0.45800  0.94150  1.0000 0.1309111426
H   H35       1.0  0.92240  0.25320  0.89030  1.0000 0.1398637693
H   H36       1.0  0.30910  0.37970  0.12980  1.0000 0.1398637693
H   H37       1.0  0.34990  0.24810  0.35170  1.0000 0.1218491756
H   H38       1.0  0.47780  0.27220  0.36740  1.0000 0.1218491756
H   H39       1.0  0.60620  0.23740  0.31850  1.0000 0.1218491756
H   H40       1.0  0.45980  0.98520  0.67680  1.0000 0.1218491756
H   H41       1.0  0.25850  0.91230  0.58430  1.0000 0.1398637693
H   H42       1.0  0.52050  0.94270  0.57620  1.0000 0.1218491756
H   H43       1.0  0.56960  0.81920  0.52420  1.0000 0.1218491756
H   H44       1.0  0.63200  0.78640  0.41960  1.0000 0.1309111426
H   H45       1.0  0.56380  0.81700  0.28820  1.0000 0.1398637693
H   H46       1.0  0.51880  0.94340  0.19070  1.0000 0.1309111426
H   H47       1.0  0.45800  0.98700  0.05850  1.0000 0.1309111426
H   H48       1.0  0.25320  0.92240  0.10970  1.0000 0.1398637693
H   H49       1.0  0.37970  0.30910  0.87020  1.0000 0.1398637693
H   H50       1.0  0.24810  0.34990  0.64830  1.0000 0.1218491756
H   H51       1.0  0.27220  0.47780  0.63260  1.0000 0.1218491756
H   H52       1.0  0.23740  0.60620  0.68150  1.0000 0.1218491756
H   H53       1.0  0.26350  0.73650  0.65120  1.0000 0.1309111426
H   H54       1.0  0.73650  0.26350  0.34880  1.0000 0.1309111426
C   C1        1.0  0.01720  0.68860  0.70610  1.0000 0.5657006761
C   C2        1.0  0.04720  0.64620  0.64120  1.0000 -0.002783257
C   C3        1.0  0.03840  0.56860  0.63790  1.0000 -0.086868007
C   C4        1.0  0.08260  0.68840  0.58290  1.0000 -0.1193923021
C   C5        1.0  0.06410  0.53230  0.57760  1.0000 -0.1572567537
C   C6        1.0  0.11010  0.65190  0.52310  1.0000 -0.0422596291
C   C7        1.0  0.15440  0.69840  0.46660  1.0000 0.6023572197
C   C8        1.0  0.09961  0.57221  0.51940  1.0000 0.0301081722
C   C9        1.0  0.12700  0.53180  0.45350  1.0000 0.1983292361
C   C10       1.0  0.16720  0.45640  0.47090  1.0000 -0.1752929131
C   C11       1.0  0.18720  0.41960  0.40890  1.0000 -0.0296551929
C   C12       1.0  0.16810  0.45950  0.33080  1.0000 -0.1572567537
C   C13       1.0  0.12648  0.53488  0.31670  1.0000 0.2106668015
C   C14       1.0  0.09980  0.57600  0.23170  1.0000 0.0377087875
C   C15       1.0  0.10630  0.65610  0.20470  1.0000 -0.0296551929
C   C16       1.0  0.15030  0.70410  0.26180  1.0000 0.6090981026
C   C17       1.0  0.06270  0.53410  0.17510  1.0000 -0.1400444398
C   C18       1.0  0.03530  0.57130  0.09590  1.0000 -0.0755882396
C   C19       1.0  0.04010  0.65170  0.07080  1.0000 -0.002783257
C   C20       1.0  0.07470  0.69310  0.12520  1.0000 -0.0992456813
C   C21       1.0  0.00850  0.69230  0.98400  1.0000 0.5610319634
C   C22       1.0  0.77140  0.70220  0.76960  1.0000 0.5384728124
C   C23       1.0  0.68560  0.68800  0.76060  1.0000 -0.002783257
C   C24       1.0  0.65640  0.64260  0.82270  1.0000 -0.0992456813
C   C25       1.0  0.63260  0.72060  0.68990  1.0000 -0.0992456813
C   C26       1.0  0.55550  0.70690  0.68130  1.0000 -0.1499949584
C   C27       1.0  0.52470  0.66370  0.74120  1.0000 0.0377087875
C   C28       1.0  0.57720  0.63040  0.81460  1.0000 -0.0296551929
C   C29       1.0  0.55000  0.58480  0.88550  1.0000 0.6090981026
C   C30       1.0  0.44120  0.64960  0.72620  1.0000 0.1983292361
C   C31       1.0  0.38190  0.71110  0.69230  1.0000 -0.1572567537
C   C32       1.0  0.68860  0.01720  0.29390  1.0000 0.5610319634
C   C33       1.0  0.64620  0.04720  0.35880  1.0000 -0.002783257
C   C34       1.0  0.56860  0.03840  0.36210  1.0000 -0.086868007
C   C35       1.0  0.68840  0.08260  0.41710  1.0000 -0.1193923021
C   C36       1.0  0.53230  0.06410  0.42240  1.0000 -0.1572567537
C   C37       1.0  0.65190  0.11010  0.47690  1.0000 -0.0422596291
C   C38       1.0  0.69840  0.15440  0.53340  1.0000 0.6023572197
C   C39       1.0  0.57221  0.09961  0.48060  1.0000 0.0301081722
C   C40       1.0  0.53180  0.12700  0.54650  1.0000 0.1983292361
C   C41       1.0  0.45640  0.16720  0.52910  1.0000 -0.1749374012
C   C42       1.0  0.41960  0.18720  0.59110  1.0000 -0.0296551929
C   C43       1.0  0.45950  0.16810  0.66920  1.0000 -0.1572567537
C   C44       1.0  0.53488  0.12648  0.68330  1.0000 0.2106668015
C   C45       1.0  0.57600  0.09980  0.76830  1.0000 0.0377087875
C   C46       1.0  0.65610  0.10630  0.79530  1.0000 -0.0296551929
C   C47       1.0  0.70410  0.15030  0.73820  1.0000 0.6090981026
C   C48       1.0  0.53410  0.06270  0.82490  1.0000 -0.1400444398
C   C49       1.0  0.57130  0.03530  0.90410  1.0000 -0.0755882396
C   C50       1.0  0.65170  0.04010  0.92920  1.0000 -0.002783257
C   C51       1.0  0.69310  0.07470  0.87480  1.0000 -0.0992456813
C   C52       1.0  0.69230  0.00850  0.01600  1.0000 0.5544805785
C   C53       1.0  0.70220  0.77140  0.23040  1.0000 0.5384728124
C   C54       1.0  0.68800  0.68560  0.23940  1.0000 -0.002783257
C   C55       1.0  0.64260  0.65640  0.17730  1.0000 -0.0992456813
C   C56       1.0  0.72060  0.63260  0.31010  1.0000 -0.0992456813
C   C57       1.0  0.70690  0.55550  0.31870  1.0000 -0.1499949584
C   C58       1.0  0.66370  0.52470  0.25880  1.0000 0.0377087875
C   C59       1.0  0.63040  0.57720  0.18540  1.0000 -0.0296551929
C   C60       1.0  0.58480  0.55000  0.11450  1.0000 0.6090981026
C   C61       1.0  0.64960  0.44120  0.27380  1.0000 0.1983292361
C   C62       1.0  0.71110  0.38190  0.30770  1.0000 -0.1572567537
C   C63       1.0  0.98280  0.31140  0.29390  1.0000 0.5610319634
C   C64       1.0  0.95280  0.35380  0.35880  1.0000 -0.002783257
C   C65       1.0  0.96160  0.43140  0.36210  1.0000 -0.086868007
C   C66       1.0  0.91740  0.31160  0.41710  1.0000 -0.1193923021
C   C67       1.0  0.93590  0.46770  0.42240  1.0000 -0.1572567537
C   C68       1.0  0.88990  0.34810  0.47690  1.0000 -0.0422596291
C   C69       1.0  0.84560  0.30160  0.53340  1.0000 0.6023572197
C   C70       1.0  0.90039  0.42779  0.48060  1.0000 0.0301081722
C   C71       1.0  0.87300  0.46820  0.54650  1.0000 0.1983292361
C   C72       1.0  0.83280  0.54360  0.52910  1.0000 -0.1749374012
C   C73       1.0  0.81280  0.58040  0.59110  1.0000 -0.0296551929
C   C74       1.0  0.83190  0.54050  0.66920  1.0000 -0.1572567537
C   C75       1.0  0.87352  0.46512  0.68330  1.0000 0.2106668015
C   C76       1.0  0.90020  0.42400  0.76830  1.0000 0.0377087875
C   C77       1.0  0.89370  0.34390  0.79530  1.0000 -0.0296551929
C   C78       1.0  0.84970  0.29590  0.73820  1.0000 0.6090981026
C   C79       1.0  0.93730  0.46590  0.82490  1.0000 -0.1400444398
C   C80       1.0  0.96470  0.42870  0.90410  1.0000 -0.0755882396
C   C81       1.0  0.95990  0.34830  0.92920  1.0000 -0.002783257
C   C82       1.0  0.92530  0.30690  0.87480  1.0000 -0.0992456813
C   C83       1.0  0.99150  0.30770  0.01600  1.0000 0.5544805785
C   C84       1.0  0.22860  0.29780  0.23040  1.0000 0.5384728124
C   C85       1.0  0.31440  0.31200  0.23940  1.0000 -0.002783257
C   C86       1.0  0.34360  0.35740  0.17730  1.0000 -0.0992456813
C   C87       1.0  0.36740  0.27940  0.31010  1.0000 -0.0992456813
C   C88       1.0  0.44450  0.29310  0.31870  1.0000 -0.1499949584
C   C89       1.0  0.47530  0.33630  0.25880  1.0000 0.0377087875
C   C90       1.0  0.42280  0.36960  0.18540  1.0000 -0.0296551929
C   C91       1.0  0.45000  0.41520  0.11450  1.0000 0.6090981026
C   C92       1.0  0.55880  0.35040  0.27380  1.0000 0.1983292361
C   C93       1.0  0.61810  0.28890  0.30770  1.0000 -0.1572567537
C   C94       1.0  0.31140  0.98280  0.70610  1.0000 0.5657006761
C   C95       1.0  0.35380  0.95280  0.64120  1.0000 -0.002783257
C   C96       1.0  0.43140  0.96160  0.63790  1.0000 -0.086868007
C   C97       1.0  0.31160  0.91740  0.58290  1.0000 -0.1193923021
C   C98       1.0  0.46770  0.93590  0.57760  1.0000 -0.1572567537
C   C99       1.0  0.34810  0.88990  0.52310  1.0000 -0.0422596291
C   C100      1.0  0.30160  0.84560  0.46660  1.0000 0.6023572197
C   C101      1.0  0.42779  0.90039  0.51940  1.0000 0.0301081722
C   C102      1.0  0.46820  0.87300  0.45350  1.0000 0.1983292361
C   C103      1.0  0.54360  0.83280  0.47090  1.0000 -0.1752929131
C   C104      1.0  0.58040  0.81280  0.40890  1.0000 -0.0296551929
C   C105      1.0  0.54050  0.83190  0.33080  1.0000 -0.1572567537
C   C106      1.0  0.46512  0.87352  0.31670  1.0000 0.2106668015
C   C107      1.0  0.42400  0.90020  0.23170  1.0000 0.0377087875
C   C108      1.0  0.34390  0.89370  0.20470  1.0000 -0.0296551929
C   C109      1.0  0.29590  0.84970  0.26180  1.0000 0.6090981026
C   C110      1.0  0.46590  0.93730  0.17510  1.0000 -0.1400444398
C   C111      1.0  0.42870  0.96470  0.09590  1.0000 -0.0755882396
C   C112      1.0  0.34830  0.95990  0.07080  1.0000 -0.002783257
C   C113      1.0  0.30690  0.92530  0.12520  1.0000 -0.0992456813
C   C114      1.0  0.30770  0.99150  0.98400  1.0000 0.5610319634
C   C115      1.0  0.29780  0.22860  0.76960  1.0000 0.5384728124
C   C116      1.0  0.31200  0.31440  0.76060  1.0000 -0.002783257
C   C117      1.0  0.35740  0.34360  0.82270  1.0000 -0.0992456813
C   C118      1.0  0.27940  0.36740  0.68990  1.0000 -0.0992456813
C   C119      1.0  0.29310  0.44450  0.68130  1.0000 -0.1499949584
C   C120      1.0  0.33630  0.47530  0.74120  1.0000 0.0377087875
C   C121      1.0  0.36960  0.42280  0.81460  1.0000 -0.0296551929
C   C122      1.0  0.41520  0.45000  0.88550  1.0000 0.6090981026
C   C123      1.0  0.35040  0.55880  0.72620  1.0000 0.1983292361
C   C124      1.0  0.28890  0.61810  0.69230  1.0000 -0.1572567537
C   C125      1.0  0.30420  0.69580  0.67450  1.0000 -0.0197844731
C   C126      1.0  0.69580  0.30420  0.32550  1.0000 -0.0197844731
N   N1        1.0  0.10491  0.57231  0.37630  1.0000 -0.2987543136
N   N2        1.0  0.57231  0.10491  0.62370  1.0000 -0.2987543136
N   N3        1.0  0.89509  0.42769  0.62370  1.0000 -0.2987543136
N   N4        1.0  0.42769  0.89509  0.37630  1.0000 -0.2987543136
N   N5        1.0  0.42670  0.57330  0.74430  1.0000 -0.2987543136
N   N6        1.0  0.57330  0.42670  0.25570  1.0000 -0.2987543136
O   O1        1.0  0.03499  0.75639  0.71220  1.0000 -0.4901332522
O   O2        1.0  0.97802  0.65094  0.75060  1.0000 -0.5279073815
O   O3        1.0  0.12182  0.76502  0.43000  1.0000 -0.5279073815
O   O4        1.0  0.22287  0.66507  0.46350  1.0000 -0.5368593077
O   O5        1.0  0.21747  0.67207  0.29740  1.0000 -0.5368593077
O   O6        1.0  0.11585  0.77185  0.26460  1.0000 -0.524995778
O   O7        1.0  0.01900  0.76540  0.96530  1.0000 -0.4621119911
O   O8        1.0  0.97979  0.65099  0.93670  1.0000 -0.5005188241
O   O9        1.0  0.81697  0.66617  0.83150  1.0000 -0.5062556962
O   O10       1.0  0.79277  0.74677  0.71590  1.0000 -0.5005188241
O   O11       1.0  0.58936  0.51952  0.91660  1.0000 -0.5279073815
O   O12       1.0  0.49081  0.61789  0.90910  1.0000 -0.5368593077
O   O13       1.0  0.75639  0.03499  0.28780  1.0000 -0.4901332522
O   O14       1.0  0.65094  0.97802  0.24940  1.0000 -0.5279073815
O   O15       1.0  0.76502  0.12182  0.57000  1.0000 -0.5279073815
O   O16       1.0  0.66507  0.22287  0.53650  1.0000 -0.5368593077
O   O17       1.0  0.67207  0.21747  0.70260  1.0000 -0.5368593077
O   O18       1.0  0.77185  0.11585  0.73540  1.0000 -0.5279073815
O   O19       1.0  0.76540  0.01900  0.03470  1.0000 -0.4621119911
O   O20       1.0  0.65099  0.97979  0.06330  1.0000 -0.5005188241
O   O21       1.0  0.66617  0.81697  0.16850  1.0000 -0.5062556962
O   O22       1.0  0.74677  0.79277  0.28410  1.0000 -0.5062556962
O   O23       1.0  0.51952  0.58936  0.08340  1.0000 -0.524995778
O   O24       1.0  0.61789  0.49081  0.09090  1.0000 -0.5279073815
O   O25       1.0  0.96501  0.24361  0.28780  1.0000 -0.4901332522
O   O26       1.0  0.02198  0.34906  0.24940  1.0000 -0.5279073815
O   O27       1.0  0.87818  0.23498  0.57000  1.0000 -0.5279073815
O   O28       1.0  0.77713  0.33493  0.53650  1.0000 -0.5368593077
O   O29       1.0  0.78253  0.32793  0.70260  1.0000 -0.5368593077
O   O30       1.0  0.88415  0.22815  0.73540  1.0000 -0.5279073815
O   O31       1.0  0.98100  0.23460  0.03470  1.0000 -0.4621119911
O   O32       1.0  0.02021  0.34901  0.06330  1.0000 -0.5005188241
O   O33       1.0  0.18303  0.33383  0.16850  1.0000 -0.5062556962
O   O34       1.0  0.20723  0.25323  0.28410  1.0000 -0.5005188241
O   O35       1.0  0.41064  0.48048  0.08340  1.0000 -0.524995778
O   O36       1.0  0.50919  0.38211  0.09090  1.0000 -0.5279073815
O   O37       1.0  0.24361  0.96501  0.71220  1.0000 -0.4901332522
O   O38       1.0  0.34906  0.02198  0.75060  1.0000 -0.5279073815
O   O39       1.0  0.23498  0.87818  0.43000  1.0000 -0.5279073815
O   O40       1.0  0.33493  0.77713  0.46350  1.0000 -0.5368593077
O   O41       1.0  0.32793  0.78253  0.29740  1.0000 -0.5368593077
O   O42       1.0  0.22815  0.88415  0.26460  1.0000 -0.5279073815
O   O43       1.0  0.23460  0.98100  0.96530  1.0000 -0.4621119911
O   O44       1.0  0.34901  0.02021  0.93670  1.0000 -0.5005188241
O   O45       1.0  0.33383  0.18303  0.83150  1.0000 -0.5062556962
O   O46       1.0  0.25323  0.20723  0.71590  1.0000 -0.5005188241
O   O47       1.0  0.48048  0.41064  0.91660  1.0000 -0.5279073815
O   O48       1.0  0.38211  0.50919  0.90910  1.0000 -0.5368593077
