# DDEC6 charges by PACMAN v1.1 (https://github.com/mtap-research/PACMAN-charge/)
data_2020[In][nan]3[ASR]4
_chemical_formula_sum              "In4 H16 C32 O20"
_cell_length_a       12.5817
_cell_length_b       12.5817
_cell_length_c       12.5817
_cell_angle_alpha    121.351
_cell_angle_beta     105.204
_cell_angle_gamma    102.56

_symmetry_space_group_name_H-M    "P 1"
_symmetry_Int_Tables_number       1

loop_
  _symmetry_equiv_pos_as_xyz
  'x, y, z'

loop_
  _atom_site_type_symbol
  _atom_site_label
  _atom_site_symmetry_multiplicity
  _atom_site_fract_x
  _atom_site_fract_y
  _atom_site_fract_z
  _atom_site_occupancy
  _atom_site_charge
In  In1       1.0  0.37553  0.93597  0.18956  1.0000 1.5400844666
In  In2       1.0  0.12447  0.31403  0.56044  1.0000 1.5400844666
In  In3       1.0  0.24641  0.18597  0.31044  1.0000 1.5400844666
In  In4       1.0  0.25359  0.56403  0.93956  1.0000 1.5400844666
H   H1        1.0  0.57199  0.60028  0.88651  1.0000 0.1188624876
H   H2        1.0  0.92966  0.62070  0.90956  1.0000 0.1188624876
H   H3        1.0  0.92801  0.81452  0.02829  1.0000 0.1188624876
H   H4        1.0  0.57034  0.47990  0.69104  1.0000 0.1188624876
H   H5        1.0  0.21377  0.68548  0.61349  1.0000 0.1188624876
H   H6        1.0  0.21114  0.02010  0.59044  1.0000 0.1188624876
H   H7        1.0  0.28623  0.89972  0.47171  1.0000 0.1188624876
H   H8        1.0  0.28886  0.87930  0.80896  1.0000 0.1188624876
H   H9        1.0  0.19410  0.75000  0.94410  1.0000 0.3787849995
H   H10       1.0  0.30590  0.25000  0.55590  1.0000 0.3787849995
H   H11       1.0  0.75000  0.98910  0.23910  1.0000 0.1404866578
H   H12       1.0  0.75000  0.26860  0.51860  1.0000 0.1404866578
H   H13       1.0  0.25000  0.51090  0.26090  1.0000 0.1404866578
H   H14       1.0  0.25000  0.23140  0.98140  1.0000 0.1404866578
H   H15       1.0  0.20310  0.95310  0.25000  1.0000 0.3717413398
H   H16       1.0  0.29690  0.54690  0.75000  1.0000 0.3717413398
C   C1        1.0  0.64596  0.79359  0.06477  1.0000 -0.014529445
C   C2        1.0  0.64596  0.68379  0.95497  1.0000 -0.1466982661
C   C3        1.0  0.52950  0.78491  0.07979  1.0000 0.6158954653
C   C4        1.0  0.85501  0.55245  0.82516  1.0000 -0.1420489697
C   C5        1.0  0.85501  0.44265  0.71536  1.0000 -0.0186768111
C   C6        1.0  0.97254  0.42730  0.72544  1.0000 0.608132452
C   C7        1.0  0.85404  0.91881  0.14763  1.0000 -0.014529445
C   C8        1.0  0.85404  0.80901  0.03783  1.0000 -0.1466982661
C   C9        1.0  0.97050  0.05029  0.25541  1.0000 0.6158954653
C   C10       1.0  0.64499  0.47015  0.69744  1.0000 -0.1420489697
C   C11       1.0  0.64499  0.36035  0.58764  1.0000 -0.0186768111
C   C12       1.0  0.52746  0.25290  0.45476  1.0000 0.608132452
C   C13       1.0  0.22882  0.58119  0.43523  1.0000 -0.014529445
C   C14       1.0  0.22882  0.69099  0.54503  1.0000 -0.1466982661
C   C15       1.0  0.20512  0.44971  0.42021  1.0000 0.6158954653
C   C16       1.0  0.22729  0.02985  0.67484  1.0000 -0.1420489697
C   C17       1.0  0.22729  0.13965  0.78464  1.0000 -0.0186768111
C   C18       1.0  0.20186  0.24710  0.77456  1.0000 0.608132452
C   C19       1.0  0.27118  0.70641  0.35237  1.0000 -0.014529445
C   C20       1.0  0.27118  0.81621  0.46217  1.0000 -0.1466982661
C   C21       1.0  0.29488  0.71509  0.24459  1.0000 0.6158954653
C   C22       1.0  0.27271  0.94755  0.80256  1.0000 -0.1420489697
C   C23       1.0  0.27271  0.05735  0.91236  1.0000 -0.0186768111
C   C24       1.0  0.29814  0.07270  0.04524  1.0000 0.608132452
C   C25       1.0  0.75000  0.91100  0.16100  1.0000 -0.1201029772
C   C26       1.0  0.75000  0.69150  0.94150  1.0000 0.0739045332
C   C27       1.0  0.75000  0.56620  0.81620  1.0000 0.0739045332
C   C28       1.0  0.75000  0.34670  0.59670  1.0000 -0.1201029772
C   C29       1.0  0.25000  0.58900  0.33900  1.0000 -0.1201029772
C   C30       1.0  0.25000  0.80850  0.55850  1.0000 0.0739045332
C   C31       1.0  0.25000  0.93380  0.68380  1.0000 0.0739045332
C   C32       1.0  0.25000  0.15330  0.90330  1.0000 -0.1201029772
O   O1        1.0  0.44814  0.67044  0.02710  1.0000 -0.5874390749
O   O2        1.0  0.51429  0.89299  0.14530  1.0000 -0.5600455997
O   O3        1.0  0.05550  0.48150  0.83940  1.0000 -0.5460666416
O   O4        1.0  0.98500  0.35850  0.61610  1.0000 -0.5600455997
O   O5        1.0  0.05186  0.07896  0.22230  1.0000 -0.5874390749
O   O6        1.0  0.98571  0.13101  0.37870  1.0000 -0.5600455997
O   O7        1.0  0.44450  0.28390  0.42600  1.0000 -0.5460666416
O   O8        1.0  0.51500  0.13110  0.37350  1.0000 -0.5600455997
O   O9        1.0  0.14334  0.42104  0.47290  1.0000 -0.5874390749
O   O10       1.0  0.24769  0.36899  0.35470  1.0000 -0.5600455997
O   O11       1.0  0.14210  0.21610  0.66060  1.0000 -0.5460666416
O   O12       1.0  0.24240  0.36890  0.88390  1.0000 -0.5600455997
O   O13       1.0  0.35666  0.82956  0.27770  1.0000 -0.5874390749
O   O14       1.0  0.25231  0.60701  0.12130  1.0000 -0.5600455997
O   O15       1.0  0.35790  0.01850  0.07400  1.0000 -0.5460666416
O   O16       1.0  0.25760  0.14150  0.12650  1.0000 -0.5600455997
O   O17       1.0  0.24970  0.75000  0.99970  1.0000 -0.907837346
O   O18       1.0  0.25030  0.25000  0.50030  1.0000 -0.907837346
O   O19       1.0  0.25710  0.00710  0.25000  1.0000 -0.8838393239
O   O20       1.0  0.24290  0.49290  0.75000  1.0000 -0.8838393239
