# DDEC6 charges by PACMAN v1.1 (https://github.com/mtap-research/PACMAN-charge/)
data_2020[Sc][acs]3[ASR]1
_chemical_formula_sum              "Sc6 H12 C24 O26"
_cell_length_a       12.9522
_cell_length_b       12.9522
_cell_length_c       14.054
_cell_angle_alpha    90
_cell_angle_beta     90
_cell_angle_gamma    120

_symmetry_space_group_name_H-M    "P 1"
_symmetry_Int_Tables_number       1

loop_
  _symmetry_equiv_pos_as_xyz
  'x, y, z'

loop_
  _atom_site_type_symbol
  _atom_site_label
  _atom_site_symmetry_multiplicity
  _atom_site_fract_x
  _atom_site_fract_y
  _atom_site_fract_z
  _atom_site_occupancy
  _atom_site_charge
Sc  Sc1       1.0  0.51180  0.77839  0.75000  1.0000 1.7856375957
Sc  Sc2       1.0  0.26659  0.48820  0.75000  1.0000 1.7856375957
Sc  Sc3       1.0  0.22161  0.73341  0.75000  1.0000 1.7804111922
Sc  Sc4       1.0  0.48820  0.22161  0.25000  1.0000 1.7804111922
Sc  Sc5       1.0  0.73341  0.51180  0.25000  1.0000 1.7804111922
Sc  Sc6       1.0  0.77839  0.26659  0.25000  1.0000 1.7804111922
H   H1        1.0  0.60200  0.60780  0.00170  1.0000 0.1325251444
H   H2        1.0  0.00580  0.39800  0.00170  1.0000 0.1325251444
H   H3        1.0  0.39220  0.99420  0.00170  1.0000 0.1325251444
H   H4        1.0  0.39800  0.39220  0.50170  1.0000 0.1325251444
H   H5        1.0  0.99420  0.60200  0.50170  1.0000 0.1325251444
H   H6        1.0  0.60780  0.00580  0.50170  1.0000 0.1325251444
H   H7        1.0  0.39800  0.39220  0.99830  1.0000 0.1325251444
H   H8        1.0  0.99420  0.60200  0.99830  1.0000 0.1325251444
H   H9        1.0  0.60780  0.00580  0.99830  1.0000 0.1325251444
H   H10       1.0  0.60200  0.60780  0.49830  1.0000 0.1325251444
H   H11       1.0  0.00580  0.39800  0.49830  1.0000 0.1325251444
H   H12       1.0  0.39220  0.99420  0.49830  1.0000 0.1325251444
C   C1        1.0  0.52830  0.55030  0.97800  1.0000 -0.1730945586
C   C2        1.0  0.48160  0.57940  0.89090  1.0000 0.6731739177
C   C3        1.0  0.02200  0.47170  0.97800  1.0000 -0.1766476399
C   C4        1.0  0.09780  0.51840  0.89090  1.0000 0.6731739177
C   C5        1.0  0.44970  0.97800  0.97800  1.0000 -0.1766476399
C   C6        1.0  0.42060  0.90220  0.89090  1.0000 0.6731739177
C   C7        1.0  0.47170  0.44970  0.47800  1.0000 -0.1730945586
C   C8        1.0  0.51840  0.42060  0.39090  1.0000 0.6731739177
C   C9        1.0  0.97800  0.52830  0.47800  1.0000 -0.1730945586
C   C10       1.0  0.90220  0.48160  0.39090  1.0000 0.6731739177
C   C11       1.0  0.55030  0.02200  0.47800  1.0000 -0.1730945586
C   C12       1.0  0.57940  0.09780  0.39090  1.0000 0.6731739177
C   C13       1.0  0.47170  0.44970  0.02200  1.0000 -0.1730945586
C   C14       1.0  0.51840  0.42060  0.10910  1.0000 0.6731739177
C   C15       1.0  0.97800  0.52830  0.02200  1.0000 -0.1730945586
C   C16       1.0  0.90220  0.48160  0.10910  1.0000 0.6731739177
C   C17       1.0  0.55030  0.02200  0.02200  1.0000 -0.1730945586
C   C18       1.0  0.57940  0.09780  0.10910  1.0000 0.6731739177
C   C19       1.0  0.52830  0.55030  0.52200  1.0000 -0.1730945586
C   C20       1.0  0.48160  0.57940  0.60910  1.0000 0.6731739177
C   C21       1.0  0.02200  0.47170  0.52200  1.0000 -0.1766476399
C   C22       1.0  0.09780  0.51840  0.60910  1.0000 0.6731739177
C   C23       1.0  0.44970  0.97800  0.52200  1.0000 -0.1766476399
C   C24       1.0  0.42060  0.90220  0.60910  1.0000 0.6731739177
O   O1        1.0  0.54230  0.68260  0.85749  1.0000 -0.6506454308
O   O2        1.0  0.38540  0.49980  0.85735  1.0000 -0.6506454308
O   O3        1.0  0.14030  0.45770  0.85749  1.0000 -0.6576252437
O   O4        1.0  0.11440  0.61460  0.85735  1.0000 -0.6506454308
O   O5        1.0  0.31740  0.85970  0.85749  1.0000 -0.6576252437
O   O6        1.0  0.50020  0.88560  0.85735  1.0000 -0.6506454308
O   O7        1.0  0.45770  0.31740  0.35749  1.0000 -0.6576252437
O   O8        1.0  0.61460  0.50020  0.35735  1.0000 -0.6506454308
O   O9        1.0  0.85970  0.54230  0.35749  1.0000 -0.6576252437
O   O10       1.0  0.88560  0.38540  0.35735  1.0000 -0.6506454308
O   O11       1.0  0.68260  0.14030  0.35749  1.0000 -0.6576252437
O   O12       1.0  0.49980  0.11440  0.35735  1.0000 -0.6506454308
O   O13       1.0  0.45770  0.31740  0.14251  1.0000 -0.6576252437
O   O14       1.0  0.61460  0.50020  0.14265  1.0000 -0.6506454308
O   O15       1.0  0.85970  0.54230  0.14251  1.0000 -0.6576252437
O   O16       1.0  0.88560  0.38540  0.14265  1.0000 -0.6506454308
O   O17       1.0  0.68260  0.14030  0.14251  1.0000 -0.6576252437
O   O18       1.0  0.49980  0.11440  0.14265  1.0000 -0.6506454308
O   O19       1.0  0.54230  0.68260  0.64251  1.0000 -0.6506454308
O   O20       1.0  0.38540  0.49980  0.64265  1.0000 -0.6506454308
O   O21       1.0  0.14030  0.45770  0.64251  1.0000 -0.6576252437
O   O22       1.0  0.11440  0.61460  0.64265  1.0000 -0.6506454308
O   O23       1.0  0.31740  0.85970  0.64251  1.0000 -0.6576252437
O   O24       1.0  0.50020  0.88560  0.64265  1.0000 -0.6506454308
O   O25       1.0  0.33333  0.66667  0.75000  1.0000 -1.2923366046
O   O26       1.0  0.66667  0.33333  0.25000  1.0000 -1.2923366046
