# DDEC6 charges by PACMAN v1.1 (https://github.com/mtap-research/PACMAN-charge/)
data_2021[Sc][acs]3[ASR]1
_chemical_formula_sum              "Sc6 H96 C168 O26"
_cell_length_a       13.745
_cell_length_b       13.745
_cell_length_c       31.147
_cell_angle_alpha    90
_cell_angle_beta     90
_cell_angle_gamma    120

_symmetry_space_group_name_H-M    "P 1"
_symmetry_Int_Tables_number       1

loop_
  _symmetry_equiv_pos_as_xyz
  'x, y, z'

loop_
  _atom_site_type_symbol
  _atom_site_label
  _atom_site_symmetry_multiplicity
  _atom_site_fract_x
  _atom_site_fract_y
  _atom_site_fract_z
  _atom_site_occupancy
  _atom_site_charge
Sc  Sc1       1.0  0.85480  0.85480  0.25000  1.0000 1.8401980963
Sc  Sc2       1.0  0.00000  0.14520  0.25000  1.0000 1.8401980963
Sc  Sc3       1.0  0.14520  0.00000  0.25000  1.0000 1.8401980963
Sc  Sc4       1.0  0.14520  0.14520  0.75000  1.0000 1.8401980963
Sc  Sc5       1.0  1.00000  0.85480  0.75000  1.0000 1.8401980963
Sc  Sc6       1.0  0.85480  0.00000  0.75000  1.0000 1.8401980963
H   H1        1.0  0.82979  0.64481  0.35595  1.0000 0.1122142233
H   H2        1.0  0.83083  0.53495  0.41357  1.0000 0.1209819589
H   H3        1.0  0.81502  0.17021  0.35595  1.0000 0.1122142233
H   H4        1.0  0.70412  0.16917  0.41357  1.0000 0.1209819589
H   H5        1.0  0.35519  0.18498  0.35595  1.0000 0.1122142233
H   H6        1.0  0.46505  0.29588  0.41357  1.0000 0.1209819589
H   H7        1.0  0.17021  0.35519  0.85595  1.0000 0.1122142233
H   H8        1.0  0.16917  0.46505  0.91357  1.0000 0.1209819589
H   H9        1.0  0.18498  0.82979  0.85595  1.0000 0.1122142233
H   H10       1.0  0.29588  0.83083  0.91357  1.0000 0.1209819589
H   H11       1.0  0.64481  0.81502  0.85595  1.0000 0.1122142233
H   H12       1.0  0.53495  0.70412  0.91357  1.0000 0.1209819589
H   H13       1.0  0.18498  0.35519  0.14405  1.0000 0.1122142233
H   H14       1.0  0.29588  0.46505  0.08643  1.0000 0.1209819589
H   H15       1.0  0.64481  0.82979  0.14405  1.0000 0.1122142233
H   H16       1.0  0.53495  0.83083  0.08643  1.0000 0.1209819589
H   H17       1.0  0.17021  0.81502  0.14405  1.0000 0.1122142233
H   H18       1.0  0.16917  0.70412  0.08643  1.0000 0.1209819589
H   H19       1.0  0.81502  0.64481  0.64405  1.0000 0.1122142233
H   H20       1.0  0.70412  0.53495  0.58643  1.0000 0.1209819589
H   H21       1.0  0.35519  0.17021  0.64405  1.0000 0.1122142233
H   H22       1.0  0.46505  0.16917  0.58643  1.0000 0.1209819589
H   H23       1.0  0.82979  0.18498  0.64405  1.0000 0.1122142233
H   H24       1.0  0.83083  0.29588  0.58643  1.0000 0.1209819589
H   H25       1.0  0.17021  0.35519  0.64405  1.0000 0.1122142233
H   H26       1.0  0.16917  0.46505  0.58643  1.0000 0.1209819589
H   H27       1.0  0.18498  0.82979  0.64405  1.0000 0.1122142233
H   H28       1.0  0.29588  0.83083  0.58643  1.0000 0.1209819589
H   H29       1.0  0.64481  0.81502  0.64405  1.0000 0.1122142233
H   H30       1.0  0.53495  0.70412  0.58643  1.0000 0.1209819589
H   H31       1.0  0.82979  0.64481  0.14405  1.0000 0.1122142233
H   H32       1.0  0.83083  0.53495  0.08643  1.0000 0.1209819589
H   H33       1.0  0.81502  0.17021  0.14405  1.0000 0.1122142233
H   H34       1.0  0.70412  0.16917  0.08643  1.0000 0.1209819589
H   H35       1.0  0.35519  0.18498  0.14405  1.0000 0.1122142233
H   H36       1.0  0.46505  0.29588  0.08643  1.0000 0.1209819589
H   H37       1.0  0.81502  0.64481  0.85595  1.0000 0.1122142233
H   H38       1.0  0.70412  0.53495  0.91357  1.0000 0.1209819589
H   H39       1.0  0.35519  0.17021  0.85595  1.0000 0.1122142233
H   H40       1.0  0.46505  0.16917  0.91357  1.0000 0.1209819589
H   H41       1.0  0.82979  0.18498  0.85595  1.0000 0.1122142233
H   H42       1.0  0.83083  0.29588  0.91357  1.0000 0.1209819589
H   H43       1.0  0.18498  0.35519  0.35595  1.0000 0.1122142233
H   H44       1.0  0.29588  0.46505  0.41357  1.0000 0.1209819589
H   H45       1.0  0.64481  0.82979  0.35595  1.0000 0.1122142233
H   H46       1.0  0.53495  0.83083  0.41357  1.0000 0.1209819589
H   H47       1.0  0.17021  0.81502  0.35595  1.0000 0.1209819589
H   H48       1.0  0.16917  0.70412  0.41357  1.0000 0.1209819589
H   H49       1.0  1.00000  0.45627  0.39379  1.0000 0.1122142233
H   H50       1.0  1.00000  0.74110  0.48379  1.0000 0.1122142233
H   H51       1.0  0.00000  0.28695  0.38672  1.0000 0.1122142233
H   H52       1.0  0.00000  0.81195  0.55216  1.0000 0.1209819589
H   H53       1.0  0.45627  0.00000  0.39379  1.0000 0.1122142233
H   H54       1.0  0.74110  0.00000  0.48379  1.0000 0.1122142233
H   H55       1.0  0.28695  0.00000  0.38672  1.0000 0.1122142233
H   H56       1.0  0.81195  0.00000  0.55216  1.0000 0.1122142233
H   H57       1.0  0.54373  0.54373  0.39379  1.0000 0.1122142233
H   H58       1.0  0.25890  0.25890  0.48379  1.0000 0.1122142233
H   H59       1.0  0.71305  0.71305  0.38672  1.0000 0.1122142233
H   H60       1.0  0.18805  0.18805  0.55216  1.0000 0.1209819589
H   H61       1.0  0.00000  0.54373  0.89379  1.0000 0.1122142233
H   H62       1.0  0.00000  0.25890  0.98379  1.0000 0.1122142233
H   H63       1.0  0.00000  0.71305  0.88672  1.0000 0.1122142233
H   H64       1.0  0.00000  0.18805  0.05216  1.0000 0.1209819589
H   H65       1.0  0.54373  0.00000  0.89379  1.0000 0.1122142233
H   H66       1.0  0.25890  0.00000  0.98379  1.0000 0.1122142233
H   H67       1.0  0.71305  0.00000  0.88672  1.0000 0.1122142233
H   H68       1.0  0.18805  0.00000  0.05216  1.0000 0.1209819589
H   H69       1.0  0.45627  0.45627  0.89379  1.0000 0.1122142233
H   H70       1.0  0.74110  0.74110  0.98379  1.0000 0.1122142233
H   H71       1.0  0.28695  0.28695  0.88672  1.0000 0.1122142233
H   H72       1.0  0.81195  0.81195  0.05216  1.0000 0.1209819589
H   H73       1.0  0.54373  0.54373  0.10621  1.0000 0.1122142233
H   H74       1.0  0.25890  0.25890  0.01621  1.0000 0.1122142233
H   H75       1.0  0.71305  0.71305  0.11328  1.0000 0.1122142233
H   H76       1.0  0.18805  0.18805  0.94784  1.0000 0.1209819589
H   H77       1.0  0.45627  0.00000  0.10621  1.0000 0.1122142233
H   H78       1.0  0.74110  0.00000  0.01621  1.0000 0.1122142233
H   H79       1.0  0.28695  0.00000  0.11328  1.0000 0.1122142233
H   H80       1.0  0.81195  0.00000  0.94784  1.0000 0.1122142233
H   H81       1.0  1.00000  0.45627  0.10621  1.0000 0.1122142233
H   H82       1.0  1.00000  0.74110  0.01621  1.0000 0.1122142233
H   H83       1.0  0.00000  0.28695  0.11328  1.0000 0.1122142233
H   H84       1.0  0.00000  0.81195  0.94784  1.0000 0.1209819589
H   H85       1.0  0.45627  0.45627  0.60621  1.0000 0.1122142233
H   H86       1.0  0.74110  0.74110  0.51621  1.0000 0.1122142233
H   H87       1.0  0.28695  0.28695  0.61328  1.0000 0.1122142233
H   H88       1.0  0.81195  0.81195  0.44784  1.0000 0.1209819589
H   H89       1.0  0.54373  0.00000  0.60621  1.0000 0.1122142233
H   H90       1.0  0.25890  0.00000  0.51621  1.0000 0.1122142233
H   H91       1.0  0.71305  0.00000  0.61328  1.0000 0.1122142233
H   H92       1.0  0.18805  0.00000  0.44784  1.0000 0.1122142233
H   H93       1.0  0.00000  0.54373  0.60621  1.0000 0.1122142233
H   H94       1.0  0.00000  0.25890  0.51621  1.0000 0.1122142233
H   H95       1.0  0.00000  0.71305  0.61328  1.0000 0.1122142233
H   H96       1.0  0.00000  0.18805  0.44784  1.0000 0.1209819589
C   C1        1.0  0.89890  0.65920  0.36830  1.0000 -0.072560459
C   C2        1.0  0.89910  0.59690  0.40360  1.0000 -0.1677687176
C   C3        1.0  0.76030  0.10110  0.36830  1.0000 -0.072560459
C   C4        1.0  0.69780  0.10090  0.40360  1.0000 -0.1677687176
C   C5        1.0  0.34080  0.23970  0.36830  1.0000 -0.072560459
C   C6        1.0  0.40310  0.30220  0.40360  1.0000 -0.1677687176
C   C7        1.0  0.10110  0.34080  0.86830  1.0000 -0.072560459
C   C8        1.0  0.10090  0.40310  0.90360  1.0000 -0.1677687176
C   C9        1.0  0.23970  0.89890  0.86830  1.0000 -0.072560459
C   C10       1.0  0.30220  0.89910  0.90360  1.0000 -0.1677687176
C   C11       1.0  0.65920  0.76030  0.86830  1.0000 -0.072560459
C   C12       1.0  0.59690  0.69780  0.90360  1.0000 -0.1677687176
C   C13       1.0  0.23970  0.34080  0.13170  1.0000 -0.072560459
C   C14       1.0  0.30220  0.40310  0.09640  1.0000 -0.1677687176
C   C15       1.0  0.65920  0.89890  0.13170  1.0000 -0.072560459
C   C16       1.0  0.59690  0.89910  0.09640  1.0000 -0.1677687176
C   C17       1.0  0.10110  0.76030  0.13170  1.0000 -0.072560459
C   C18       1.0  0.10090  0.69780  0.09640  1.0000 -0.1677687176
C   C19       1.0  0.76030  0.65920  0.63170  1.0000 -0.072560459
C   C20       1.0  0.69780  0.59690  0.59640  1.0000 -0.1677687176
C   C21       1.0  0.34080  0.10110  0.63170  1.0000 -0.072560459
C   C22       1.0  0.40310  0.10090  0.59640  1.0000 -0.1677687176
C   C23       1.0  0.89890  0.23970  0.63170  1.0000 -0.072560459
C   C24       1.0  0.89910  0.30220  0.59640  1.0000 -0.1677687176
C   C25       1.0  0.10110  0.34080  0.63170  1.0000 -0.072560459
C   C26       1.0  0.10090  0.40310  0.59640  1.0000 -0.1677687176
C   C27       1.0  0.23970  0.89890  0.63170  1.0000 -0.072560459
C   C28       1.0  0.30220  0.89910  0.59640  1.0000 -0.1677687176
C   C29       1.0  0.65920  0.76030  0.63170  1.0000 -0.072560459
C   C30       1.0  0.59690  0.69780  0.59640  1.0000 -0.1677687176
C   C31       1.0  0.89890  0.65920  0.13170  1.0000 -0.072560459
C   C32       1.0  0.89910  0.59690  0.09640  1.0000 -0.1677687176
C   C33       1.0  0.76030  0.10110  0.13170  1.0000 -0.072560459
C   C34       1.0  0.69780  0.10090  0.09640  1.0000 -0.1677687176
C   C35       1.0  0.34080  0.23970  0.13170  1.0000 -0.072560459
C   C36       1.0  0.40310  0.30220  0.09640  1.0000 -0.1677687176
C   C37       1.0  0.76030  0.65920  0.86830  1.0000 -0.072560459
C   C38       1.0  0.69780  0.59690  0.90360  1.0000 -0.1677687176
C   C39       1.0  0.34080  0.10110  0.86830  1.0000 -0.072560459
C   C40       1.0  0.40310  0.10090  0.90360  1.0000 -0.1677687176
C   C41       1.0  0.89890  0.23970  0.86830  1.0000 -0.072560459
C   C42       1.0  0.89910  0.30220  0.90360  1.0000 -0.1677687176
C   C43       1.0  0.23970  0.34080  0.36830  1.0000 -0.072560459
C   C44       1.0  0.30220  0.40310  0.40360  1.0000 -0.1677687176
C   C45       1.0  0.65920  0.89890  0.36830  1.0000 -0.072560459
C   C46       1.0  0.59690  0.89910  0.40360  1.0000 -0.1677687176
C   C47       1.0  0.10110  0.76030  0.36830  1.0000 -0.072560459
C   C48       1.0  0.10090  0.69780  0.40360  1.0000 -0.1677687176
C   C49       1.0  0.00000  0.80100  0.31480  1.0000 0.6032568034
C   C50       1.0  1.00000  0.74220  0.35130  1.0000 -0.0934889325
C   C51       1.0  0.00000  0.62610  0.42410  1.0000 0.086423657
C   C52       1.0  0.00000  0.55910  0.46380  1.0000 -0.0351147325
C   C53       1.0  0.00000  0.45840  0.45930  1.0000 0.0375085512
C   C54       1.0  0.00000  0.60050  0.50440  1.0000 0.0375085512
C   C55       1.0  0.00000  0.41620  0.41870  1.0000 -0.1491872888
C   C56       1.0  0.00000  0.70110  0.50870  1.0000 -0.1491872888
C   C57       1.0  0.00000  0.31560  0.41450  1.0000 -0.1021620341
C   C58       1.0  0.00000  0.74320  0.54920  1.0000 -0.1021620341
C   C59       1.0  0.80100  0.00000  0.31480  1.0000 0.6032568034
C   C60       1.0  0.74220  0.00000  0.35130  1.0000 -0.0934889325
C   C61       1.0  0.62610  0.00000  0.42410  1.0000 0.086423657
C   C62       1.0  0.55910  0.00000  0.46380  1.0000 -0.0351147325
C   C63       1.0  0.45840  0.00000  0.45930  1.0000 0.0375085512
C   C64       1.0  0.60050  0.00000  0.50440  1.0000 0.0375085512
C   C65       1.0  0.41620  0.00000  0.41870  1.0000 -0.1491872888
C   C66       1.0  0.70110  0.00000  0.50870  1.0000 -0.1491872888
C   C67       1.0  0.31560  0.00000  0.41450  1.0000 -0.1021620341
C   C68       1.0  0.74320  0.00000  0.54920  1.0000 -0.1021620341
C   C69       1.0  0.19900  0.19900  0.31480  1.0000 0.6032568034
C   C70       1.0  0.25780  0.25780  0.35130  1.0000 -0.0934889325
C   C71       1.0  0.37390  0.37390  0.42410  1.0000 0.086423657
C   C72       1.0  0.44090  0.44090  0.46380  1.0000 -0.0346707635
C   C73       1.0  0.54160  0.54160  0.45930  1.0000 0.0375085512
C   C74       1.0  0.39950  0.39950  0.50440  1.0000 0.0375085512
C   C75       1.0  0.58380  0.58380  0.41870  1.0000 -0.1491872888
C   C76       1.0  0.29890  0.29890  0.50870  1.0000 -0.1491872888
C   C77       1.0  0.68440  0.68440  0.41450  1.0000 -0.1021620341
C   C78       1.0  0.25680  0.25680  0.54920  1.0000 -0.1021620341
C   C79       1.0  0.00000  0.19900  0.81480  1.0000 0.6032568034
C   C80       1.0  0.00000  0.25780  0.85130  1.0000 -0.0934889325
C   C81       1.0  0.00000  0.37390  0.92410  1.0000 0.086423657
C   C82       1.0  0.00000  0.44090  0.96380  1.0000 -0.0346707635
C   C83       1.0  0.00000  0.54160  0.95930  1.0000 0.0375085512
C   C84       1.0  0.00000  0.39950  0.00440  1.0000 0.0375085512
C   C85       1.0  0.00000  0.58380  0.91870  1.0000 -0.1491872888
C   C86       1.0  0.00000  0.29890  0.00870  1.0000 -0.1491872888
C   C87       1.0  1.00000  0.68440  0.91450  1.0000 -0.1021620341
C   C88       1.0  0.00000  0.25680  0.04920  1.0000 -0.1021620341
C   C89       1.0  0.19900  0.00000  0.81480  1.0000 0.6032568034
C   C90       1.0  0.25780  0.00000  0.85130  1.0000 -0.0934889325
C   C91       1.0  0.37390  0.00000  0.92410  1.0000 0.086423657
C   C92       1.0  0.44090  0.00000  0.96380  1.0000 -0.0351147325
C   C93       1.0  0.54160  0.00000  0.95930  1.0000 0.0375085512
C   C94       1.0  0.39950  0.00000  0.00440  1.0000 0.0375085512
C   C95       1.0  0.58380  0.00000  0.91870  1.0000 -0.1491872888
C   C96       1.0  0.29890  0.00000  0.00870  1.0000 -0.1491872888
C   C97       1.0  0.68440  0.00000  0.91450  1.0000 -0.1021620341
C   C98       1.0  0.25680  0.00000  0.04920  1.0000 -0.1021620341
C   C99       1.0  0.80100  0.80100  0.81480  1.0000 0.6032568034
C   C100      1.0  0.74220  0.74220  0.85130  1.0000 -0.0934889325
C   C101      1.0  0.62610  0.62610  0.92410  1.0000 0.086423657
C   C102      1.0  0.55910  0.55910  0.96380  1.0000 -0.0346707635
C   C103      1.0  0.45840  0.45840  0.95930  1.0000 0.0375085512
C   C104      1.0  0.60050  0.60050  0.00440  1.0000 0.0375085512
C   C105      1.0  0.41620  0.41620  0.91870  1.0000 -0.1491872888
C   C106      1.0  0.70110  0.70110  0.00870  1.0000 -0.1491872888
C   C107      1.0  0.31560  0.31560  0.91450  1.0000 -0.1021620341
C   C108      1.0  0.74320  0.74320  0.04920  1.0000 -0.1021620341
C   C109      1.0  0.19900  0.19900  0.18520  1.0000 0.6032568034
C   C110      1.0  0.25780  0.25780  0.14870  1.0000 -0.0934889325
C   C111      1.0  0.37390  0.37390  0.07590  1.0000 0.086423657
C   C112      1.0  0.44090  0.44090  0.03620  1.0000 -0.0346707635
C   C113      1.0  0.54160  0.54160  0.04070  1.0000 0.0375085512
C   C114      1.0  0.39950  0.39950  0.99560  1.0000 0.0375085512
C   C115      1.0  0.58380  0.58380  0.08130  1.0000 -0.1491872888
C   C116      1.0  0.29890  0.29890  0.99130  1.0000 -0.1491872888
C   C117      1.0  0.68440  0.68440  0.08550  1.0000 -0.1021620341
C   C118      1.0  0.25680  0.25680  0.95080  1.0000 -0.1021620341
C   C119      1.0  0.80100  0.00000  0.18520  1.0000 0.6032568034
C   C120      1.0  0.74220  0.00000  0.14870  1.0000 -0.0934889325
C   C121      1.0  0.62610  0.00000  0.07590  1.0000 0.086423657
C   C122      1.0  0.55910  0.00000  0.03620  1.0000 -0.0351147325
C   C123      1.0  0.45840  0.00000  0.04070  1.0000 0.0375085512
C   C124      1.0  0.60050  0.00000  0.99560  1.0000 0.0375085512
C   C125      1.0  0.41620  0.00000  0.08130  1.0000 -0.1491872888
C   C126      1.0  0.70110  0.00000  0.99130  1.0000 -0.1491872888
C   C127      1.0  0.31560  0.00000  0.08550  1.0000 -0.1021620341
C   C128      1.0  0.74320  0.00000  0.95080  1.0000 -0.1021620341
C   C129      1.0  0.00000  0.80100  0.18520  1.0000 0.6032568034
C   C130      1.0  1.00000  0.74220  0.14870  1.0000 -0.0934889325
C   C131      1.0  0.00000  0.62610  0.07590  1.0000 0.086423657
C   C132      1.0  0.00000  0.55910  0.03620  1.0000 -0.0351147325
C   C133      1.0  0.00000  0.45840  0.04070  1.0000 0.0375085512
C   C134      1.0  0.00000  0.60050  0.99560  1.0000 0.0375085512
C   C135      1.0  0.00000  0.41620  0.08130  1.0000 -0.1491872888
C   C136      1.0  0.00000  0.70110  0.99130  1.0000 -0.1491872888
C   C137      1.0  0.00000  0.31560  0.08550  1.0000 -0.1021620341
C   C138      1.0  0.00000  0.74320  0.95080  1.0000 -0.1021620341
C   C139      1.0  0.80100  0.80100  0.68520  1.0000 0.6032568034
C   C140      1.0  0.74220  0.74220  0.64870  1.0000 -0.0934889325
C   C141      1.0  0.62610  0.62610  0.57590  1.0000 0.086423657
C   C142      1.0  0.55910  0.55910  0.53620  1.0000 -0.0346707635
C   C143      1.0  0.45840  0.45840  0.54070  1.0000 0.0375085512
C   C144      1.0  0.60050  0.60050  0.49560  1.0000 0.0375085512
C   C145      1.0  0.41620  0.41620  0.58130  1.0000 -0.1491872888
C   C146      1.0  0.70110  0.70110  0.49130  1.0000 -0.1491872888
C   C147      1.0  0.31560  0.31560  0.58550  1.0000 -0.1021620341
C   C148      1.0  0.74320  0.74320  0.45080  1.0000 -0.1021620341
C   C149      1.0  0.19900  0.00000  0.68520  1.0000 0.6032568034
C   C150      1.0  0.25780  0.00000  0.64870  1.0000 -0.0934889325
C   C151      1.0  0.37390  0.00000  0.57590  1.0000 0.086423657
C   C152      1.0  0.44090  0.00000  0.53620  1.0000 -0.0346707635
C   C153      1.0  0.54160  0.00000  0.54070  1.0000 0.0375085512
C   C154      1.0  0.39950  0.00000  0.49560  1.0000 0.0375085512
C   C155      1.0  0.58380  0.00000  0.58130  1.0000 -0.1491872888
C   C156      1.0  0.29890  0.00000  0.49130  1.0000 -0.1491872888
C   C157      1.0  0.68440  0.00000  0.58550  1.0000 -0.1021620341
C   C158      1.0  0.25680  0.00000  0.45080  1.0000 -0.1021620341
C   C159      1.0  0.00000  0.19900  0.68520  1.0000 0.6032568034
C   C160      1.0  0.00000  0.25780  0.64870  1.0000 -0.0934889325
C   C161      1.0  0.00000  0.37390  0.57590  1.0000 0.086423657
C   C162      1.0  0.00000  0.44090  0.53620  1.0000 -0.0351147325
C   C163      1.0  0.00000  0.54160  0.54070  1.0000 0.0375085512
C   C164      1.0  0.00000  0.39950  0.49560  1.0000 0.0375085512
C   C165      1.0  0.00000  0.58380  0.58130  1.0000 -0.1491872888
C   C166      1.0  0.00000  0.29890  0.49130  1.0000 -0.1491872888
C   C167      1.0  1.00000  0.68440  0.58550  1.0000 -0.1021620341
C   C168      1.0  0.00000  0.25680  0.45080  1.0000 -0.1021620341
O   O1        1.0  0.90800  0.78480  0.29690  1.0000 -0.6462602351
O   O2        1.0  0.87680  0.09200  0.29690  1.0000 -0.6462602351
O   O3        1.0  0.21520  0.12320  0.29690  1.0000 -0.6462602351
O   O4        1.0  0.09200  0.21520  0.79690  1.0000 -0.6462602351
O   O5        1.0  0.12320  0.90800  0.79690  1.0000 -0.6462602351
O   O6        1.0  0.78480  0.87680  0.79690  1.0000 -0.6462602351
O   O7        1.0  0.12320  0.21520  0.20310  1.0000 -0.6462602351
O   O8        1.0  0.78480  0.90800  0.20310  1.0000 -0.6462602351
O   O9        1.0  0.09200  0.87680  0.20310  1.0000 -0.6462602351
O   O10       1.0  0.87680  0.78480  0.70310  1.0000 -0.6462602351
O   O11       1.0  0.21520  0.09200  0.70310  1.0000 -0.6462602351
O   O12       1.0  0.90800  0.12320  0.70310  1.0000 -0.6462602351
O   O13       1.0  0.09200  0.21520  0.70310  1.0000 -0.6462602351
O   O14       1.0  0.12320  0.90800  0.70310  1.0000 -0.6462602351
O   O15       1.0  0.78480  0.87680  0.70310  1.0000 -0.6462602351
O   O16       1.0  0.90800  0.78480  0.20310  1.0000 -0.6462602351
O   O17       1.0  0.87680  0.09200  0.20310  1.0000 -0.6462602351
O   O18       1.0  0.21520  0.12320  0.20310  1.0000 -0.6462602351
O   O19       1.0  0.87680  0.78480  0.79690  1.0000 -0.6462602351
O   O20       1.0  0.21520  0.09200  0.79690  1.0000 -0.6462602351
O   O21       1.0  0.90800  0.12320  0.79690  1.0000 -0.6462602351
O   O22       1.0  0.12320  0.21520  0.29690  1.0000 -0.6462602351
O   O23       1.0  0.78480  0.90800  0.29690  1.0000 -0.6462602351
O   O24       1.0  0.09200  0.87680  0.29690  1.0000 -0.6462602351
O   O25       1.0  0.00000  0.00000  0.25000  1.0000 -1.2185589903
O   O26       1.0  0.00000  0.00000  0.75000  1.0000 -1.2185589903
