# DDEC6 charges by PACMAN v1.1 (https://github.com/mtap-research/PACMAN-charge/)
data_2021[ZnLa][nan]3[ASR]1
_chemical_formula_sum              "La2 Zn2 H52 C96 N8 O16"
_cell_length_a       16.9594
_cell_length_b       16.9594
_cell_length_c       9.3768
_cell_angle_alpha    83.6904
_cell_angle_beta     96.3096
_cell_angle_gamma    76.0161

_symmetry_space_group_name_H-M    "P 1"
_symmetry_Int_Tables_number       1

loop_
  _symmetry_equiv_pos_as_xyz
  'x, y, z'

loop_
  _atom_site_type_symbol
  _atom_site_label
  _atom_site_symmetry_multiplicity
  _atom_site_fract_x
  _atom_site_fract_y
  _atom_site_fract_z
  _atom_site_occupancy
  _atom_site_charge
La  La1       1.0  0.50467  0.50467  0.75000  1.0000 1.8704874701
La  La2       1.0  0.49533  0.49533  0.25000  1.0000 1.8704874701
Zn  Zn1       1.0  0.05152  0.05152  0.75000  1.0000 0.6605394967
Zn  Zn2       1.0  0.94848  0.94848  0.25000  1.0000 0.6605394967
H   H1        1.0  0.29684  0.76488  0.25306  1.0000 0.1189168889
H   H2        1.0  0.20169  0.87063  0.31961  1.0000 0.1116115283
H   H3        1.0  0.96495  0.81541  0.54327  1.0000 0.1189168889
H   H4        1.0  0.41483  0.70963  0.65948  1.0000 0.1189168889
H   H5        1.0  0.32236  0.81942  0.72633  1.0000 0.1189168889
H   H6        1.0  0.09905  0.80847  0.46255  1.0000 0.1281496075
H   H7        1.0  0.33558  0.96350  0.59353  1.0000 0.1281496075
H   H8        1.0  0.95431  0.75841  0.80588  1.0000 0.1189168889
H   H9        1.0  0.33136  0.09816  0.67392  1.0000 0.1281496075
H   H10       1.0  0.21327  0.27489  0.53662  1.0000 0.1116115283
H   H11       1.0  0.86652  0.67332  0.80550  1.0000 0.1116115283
H   H12       1.0  0.29871  0.36041  0.53676  1.0000 0.1116115283
H   H13       1.0  0.77629  0.62135  0.71664  1.0000 0.3171590156
H   H14       1.0  0.76488  0.29684  0.24694  1.0000 0.1189168889
H   H15       1.0  0.87063  0.20169  0.18039  1.0000 0.1116115283
H   H16       1.0  0.81541  0.96495  0.95673  1.0000 0.1189168889
H   H17       1.0  0.70963  0.41483  0.84052  1.0000 0.1189168889
H   H18       1.0  0.81942  0.32236  0.77367  1.0000 0.1189168889
H   H19       1.0  0.80847  0.09905  0.03745  1.0000 0.1281496075
H   H20       1.0  0.96350  0.33558  0.90647  1.0000 0.1281496075
H   H21       1.0  0.75841  0.95431  0.69412  1.0000 0.1189168889
H   H22       1.0  0.09816  0.33136  0.82608  1.0000 0.1281496075
H   H23       1.0  0.27489  0.21327  0.96338  1.0000 0.1116115283
H   H24       1.0  0.67332  0.86652  0.69450  1.0000 0.1116115283
H   H25       1.0  0.36041  0.29871  0.96324  1.0000 0.1116115283
H   H26       1.0  0.62135  0.77629  0.78336  1.0000 0.3171590156
H   H27       1.0  0.70316  0.23512  0.74694  1.0000 0.1189168889
H   H28       1.0  0.79831  0.12937  0.68039  1.0000 0.1116115283
H   H29       1.0  0.03505  0.18459  0.45673  1.0000 0.1189168889
H   H30       1.0  0.58517  0.29037  0.34052  1.0000 0.1189168889
H   H31       1.0  0.67764  0.18058  0.27367  1.0000 0.1189168889
H   H32       1.0  0.90095  0.19153  0.53745  1.0000 0.1281496075
H   H33       1.0  0.66442  0.03650  0.40647  1.0000 0.1281496075
H   H34       1.0  0.04569  0.24159  0.19412  1.0000 0.1189168889
H   H35       1.0  0.66864  0.90184  0.32608  1.0000 0.1281496075
H   H36       1.0  0.78673  0.72511  0.46338  1.0000 0.1116115283
H   H37       1.0  0.13348  0.32668  0.19450  1.0000 0.1116115283
H   H38       1.0  0.70129  0.63959  0.46324  1.0000 0.1116115283
H   H39       1.0  0.22371  0.37865  0.28336  1.0000 0.3171590156
H   H40       1.0  0.23512  0.70316  0.75306  1.0000 0.1189168889
H   H41       1.0  0.12937  0.79831  0.81961  1.0000 0.1116115283
H   H42       1.0  0.18459  0.03505  0.04327  1.0000 0.1189168889
H   H43       1.0  0.29037  0.58517  0.15948  1.0000 0.1189168889
H   H44       1.0  0.18058  0.67764  0.22633  1.0000 0.1189168889
H   H45       1.0  0.19153  0.90095  0.96255  1.0000 0.1281496075
H   H46       1.0  0.03650  0.66442  0.09353  1.0000 0.1281496075
H   H47       1.0  0.24159  0.04569  0.30588  1.0000 0.1189168889
H   H48       1.0  0.90184  0.66864  0.17392  1.0000 0.1281496075
H   H49       1.0  0.72511  0.78673  0.03662  1.0000 0.1116115283
H   H50       1.0  0.32668  0.13348  0.30550  1.0000 0.1116115283
H   H51       1.0  0.63959  0.70129  0.03676  1.0000 0.1116115283
H   H52       1.0  0.37865  0.22371  0.21664  1.0000 0.3171590156
C   C1        1.0  0.41530  0.64590  0.41190  1.0000 0.6078651137
C   C2        1.0  0.36270  0.72290  0.45130  1.0000 -0.0331590114
C   C3        1.0  0.10695  0.90495  0.58830  1.0000 0.1798325118
C   C4        1.0  0.30040  0.77400  0.34930  1.0000 -0.0984962099
C   C5        1.0  0.24370  0.83790  0.38880  1.0000 -0.1527111083
C   C6        1.0  0.24890  0.85390  0.53090  1.0000 0.0916170639
C   C7        1.0  0.18500  0.91820  0.58340  1.0000 -0.0911883451
C   C8        1.0  0.00050  0.84710  0.56930  1.0000 -0.2034563932
C   C9        1.0  0.21130  0.98290  0.63390  1.0000 0.1874488704
C   C10       1.0  0.20870  0.10310  0.70470  1.0000 0.1798325118
C   C11       1.0  0.37130  0.74130  0.59190  1.0000 -0.0911883451
C   C12       1.0  0.31560  0.80680  0.63250  1.0000 -0.1527111083
C   C13       1.0  0.07430  0.84350  0.52360  1.0000 -0.1923100762
C   C14       1.0  0.98690  0.90770  0.66400  1.0000 0.1798325118
C   C15       1.0  0.29120  0.99800  0.62420  1.0000 -0.2059400045
C   C16       1.0  0.89800  0.78100  0.78340  1.0000 -0.1296943985
C   C17       1.0  0.28880  0.07240  0.66840  1.0000 -0.1923100762
C   C18       1.0  0.24290  0.27950  0.62350  1.0000 -0.1559244357
C   C19       1.0  0.84480  0.72980  0.78300  1.0000 -0.1230334156
C   C20       1.0  0.29410  0.33070  0.62350  1.0000 -0.0911883451
C   C21       1.0  0.64590  0.41530  0.08810  1.0000 0.6078651137
C   C22       1.0  0.72290  0.36270  0.04870  1.0000 -0.0331590114
C   C23       1.0  0.90495  0.10695  0.91170  1.0000 0.1798325118
C   C24       1.0  0.77400  0.30040  0.15070  1.0000 -0.0984962099
C   C25       1.0  0.83790  0.24370  0.11120  1.0000 -0.1527111083
C   C26       1.0  0.85390  0.24890  0.96910  1.0000 0.0916170639
C   C27       1.0  0.91820  0.18500  0.91660  1.0000 -0.0911883451
C   C28       1.0  0.84710  0.00050  0.93070  1.0000 -0.2034563932
C   C29       1.0  0.98290  0.21130  0.86610  1.0000 0.1874488704
C   C30       1.0  0.10310  0.20870  0.79530  1.0000 0.1798325118
C   C31       1.0  0.74130  0.37130  0.90810  1.0000 -0.0911883451
C   C32       1.0  0.80680  0.31560  0.86750  1.0000 -0.1527111083
C   C33       1.0  0.84350  0.07430  0.97640  1.0000 -0.1923100762
C   C34       1.0  0.90770  0.98690  0.83600  1.0000 0.1798325118
C   C35       1.0  0.99800  0.29120  0.87580  1.0000 -0.2034563932
C   C36       1.0  0.78100  0.89800  0.71660  1.0000 -0.1296943985
C   C37       1.0  0.07240  0.28880  0.83160  1.0000 -0.1923100762
C   C38       1.0  0.27950  0.24290  0.87650  1.0000 -0.1559244357
C   C39       1.0  0.72980  0.84480  0.71700  1.0000 -0.1230334156
C   C40       1.0  0.33070  0.29410  0.87650  1.0000 -0.0911883451
C   C41       1.0  0.58470  0.35410  0.58810  1.0000 0.6078651137
C   C42       1.0  0.63730  0.27710  0.54870  1.0000 -0.0331590114
C   C43       1.0  0.89305  0.09505  0.41170  1.0000 0.1798325118
C   C44       1.0  0.69960  0.22600  0.65070  1.0000 -0.0984962099
C   C45       1.0  0.75630  0.16210  0.61120  1.0000 -0.1527111083
C   C46       1.0  0.75110  0.14610  0.46910  1.0000 0.0916170639
C   C47       1.0  0.81500  0.08180  0.41660  1.0000 -0.0911883451
C   C48       1.0  0.99950  0.15290  0.43070  1.0000 -0.2034563932
C   C49       1.0  0.78870  0.01710  0.36610  1.0000 0.1874488704
C   C50       1.0  0.79130  0.89690  0.29530  1.0000 0.1798325118
C   C51       1.0  0.62870  0.25870  0.40810  1.0000 -0.0911883451
C   C52       1.0  0.68440  0.19320  0.36750  1.0000 -0.1527111083
C   C53       1.0  0.92570  0.15650  0.47640  1.0000 -0.1923100762
C   C54       1.0  0.01310  0.09230  0.33600  1.0000 0.1798325118
C   C55       1.0  0.70880  0.00200  0.37580  1.0000 -0.2034563932
C   C56       1.0  0.10200  0.21900  0.21660  1.0000 -0.1296943985
C   C57       1.0  0.71120  0.92760  0.33160  1.0000 -0.1923100762
C   C58       1.0  0.75710  0.72050  0.37650  1.0000 -0.1559244357
C   C59       1.0  0.15520  0.27020  0.21700  1.0000 -0.1230334156
C   C60       1.0  0.70590  0.66930  0.37650  1.0000 -0.0911883451
C   C61       1.0  0.35410  0.58470  0.91190  1.0000 0.6078651137
C   C62       1.0  0.27710  0.63730  0.95130  1.0000 -0.0331590114
C   C63       1.0  0.09505  0.89305  0.08830  1.0000 0.1798325118
C   C64       1.0  0.22600  0.69960  0.84930  1.0000 -0.0984962099
C   C65       1.0  0.16210  0.75630  0.88880  1.0000 -0.1527111083
C   C66       1.0  0.14610  0.75110  0.03090  1.0000 0.0916170639
C   C67       1.0  0.08180  0.81500  0.08340  1.0000 -0.0911883451
C   C68       1.0  0.15290  0.99950  0.06930  1.0000 -0.2034563932
C   C69       1.0  0.01710  0.78870  0.13390  1.0000 0.1874488704
C   C70       1.0  0.89690  0.79130  0.20470  1.0000 0.1798325118
C   C71       1.0  0.25870  0.62870  0.09190  1.0000 -0.0911883451
C   C72       1.0  0.19320  0.68440  0.13250  1.0000 -0.1527111083
C   C73       1.0  0.15650  0.92570  0.02360  1.0000 -0.1923100762
C   C74       1.0  0.09230  0.01310  0.16400  1.0000 0.1798325118
C   C75       1.0  0.00200  0.70880  0.12420  1.0000 -0.2059400045
C   C76       1.0  0.21900  0.10200  0.28340  1.0000 -0.1296943985
C   C77       1.0  0.92760  0.71120  0.16840  1.0000 -0.1923100762
C   C78       1.0  0.72050  0.75710  0.12350  1.0000 -0.1559244357
C   C79       1.0  0.27020  0.15520  0.28300  1.0000 -0.1230334156
C   C80       1.0  0.66930  0.70590  0.12350  1.0000 -0.0911883451
C   C81       1.0  0.39390  0.39390  0.75000  1.0000 0.5757745094
C   C82       1.0  0.86660  0.86660  0.75000  1.0000 0.1018123067
C   C83       1.0  0.33880  0.33880  0.75000  1.0000 -0.0331590114
C   C84       1.0  0.17970  0.17970  0.75000  1.0000 -0.0801083371
C   C85       1.0  0.23460  0.23460  0.75000  1.0000 0.0916170639
C   C86       1.0  0.76060  0.76060  0.75000  1.0000 -0.0984962099
C   C87       1.0  0.92370  0.92370  0.75000  1.0000 -0.0801083371
C   C88       1.0  0.70360  0.70360  0.75000  1.0000 0.4899607487
C   C89       1.0  0.60610  0.60610  0.25000  1.0000 0.5757745094
C   C90       1.0  0.13340  0.13340  0.25000  1.0000 0.1018123067
C   C91       1.0  0.66120  0.66120  0.25000  1.0000 -0.0331590114
C   C92       1.0  0.82030  0.82030  0.25000  1.0000 -0.0801083371
C   C93       1.0  0.76540  0.76540  0.25000  1.0000 0.0916170639
C   C94       1.0  0.23940  0.23940  0.25000  1.0000 -0.0984962099
C   C95       1.0  0.07630  0.07630  0.25000  1.0000 -0.0801083371
C   C96       1.0  0.29640  0.29640  0.25000  1.0000 0.4899607487
N   N1        1.0  0.04960  0.94620  0.66830  1.0000 -0.3793014251
N   N2        1.0  0.16360  0.04680  0.68710  1.0000 -0.3793014251
N   N3        1.0  0.94620  0.04960  0.83170  1.0000 -0.3793014251
N   N4        1.0  0.04680  0.16360  0.81290  1.0000 -0.3793014251
N   N5        1.0  0.95040  0.05380  0.33170  1.0000 -0.3793014251
N   N6        1.0  0.83640  0.95320  0.31290  1.0000 -0.3793014251
N   N7        1.0  0.05380  0.95040  0.16830  1.0000 -0.3793014251
N   N8        1.0  0.95320  0.83640  0.18710  1.0000 -0.3793014251
O   O1        1.0  0.39859  0.43819  0.63280  1.0000 -0.5933310204
O   O2        1.0  0.45473  0.58955  0.51310  1.0000 -0.6634365283
O   O3        1.0  0.41696  0.63896  0.28170  1.0000 -0.5720867329
O   O4        1.0  0.73473  0.62853  0.75600  1.0000 -0.4187002294
O   O5        1.0  0.43819  0.39859  0.86720  1.0000 -0.5933310204
O   O6        1.0  0.58955  0.45473  0.98690  1.0000 -0.6634365283
O   O7        1.0  0.63896  0.41696  0.21830  1.0000 -0.5720867329
O   O8        1.0  0.62853  0.73473  0.74400  1.0000 -0.4187002294
O   O9        1.0  0.60141  0.56181  0.36720  1.0000 -0.5933310204
O   O10       1.0  0.54527  0.41045  0.48690  1.0000 -0.6634365283
O   O11       1.0  0.58304  0.36104  0.71830  1.0000 -0.5720867329
O   O12       1.0  0.26527  0.37147  0.24400  1.0000 -0.4187002294
O   O13       1.0  0.56181  0.60141  0.13280  1.0000 -0.5933310204
O   O14       1.0  0.41045  0.54527  0.01310  1.0000 -0.6634365283
O   O15       1.0  0.36104  0.58304  0.78170  1.0000 -0.5720867329
O   O16       1.0  0.37147  0.26527  0.25600  1.0000 -0.4187002294
