# DDEC6 charges by PACMAN v1.1 (https://github.com/mtap-research/PACMAN-charge/)
data_2021[Sm][sql]2[ASR]1
_chemical_formula_sum              "Sm2 H12 C24 N14 O14"
_cell_length_a       10.3694
_cell_length_b       11.2776
_cell_length_c       13.124
_cell_angle_alpha    67.635
_cell_angle_beta     82.293
_cell_angle_gamma    86.884

_symmetry_space_group_name_H-M    "P 1"
_symmetry_Int_Tables_number       1

loop_
  _symmetry_equiv_pos_as_xyz
  'x, y, z'

loop_
  _atom_site_type_symbol
  _atom_site_label
  _atom_site_symmetry_multiplicity
  _atom_site_fract_x
  _atom_site_fract_y
  _atom_site_fract_z
  _atom_site_occupancy
  _atom_site_charge
Sm  Sm1       1.0  0.49814  0.41662  0.66930  1.0000 2.0490782039
Sm  Sm2       1.0  0.50186  0.58338  0.33070  1.0000 2.0490782039
H   H1        1.0  0.82266  0.58262  0.58237  1.0000 0.1429974997
H   H2        1.0  0.64165  0.15929  0.37695  1.0000 0.1294825227
H   H3        1.0  0.94603  0.46620  0.80997  1.0000 0.1294825227
H   H4        1.0  0.15239  0.76777  0.75245  1.0000 0.0961552786
H   H5        1.0  0.05075  0.19846  0.67975  1.0000 0.1197613168
H   H6        1.0  0.31183  0.93744  0.78989  1.0000 0.1197613168
H   H7        1.0  0.17734  0.41738  0.41763  1.0000 0.1429974997
H   H8        1.0  0.35835  0.84071  0.62305  1.0000 0.1294825227
H   H9        1.0  0.05397  0.53380  0.19003  1.0000 0.1294825227
H   H10       1.0  0.84761  0.23223  0.24755  1.0000 0.0961552786
H   H11       1.0  0.94925  0.80154  0.32025  1.0000 0.1197613168
H   H12       1.0  0.68817  0.06256  0.21011  1.0000 0.1197613168
C   C1        1.0  0.87610  0.50190  0.46830  1.0000 -0.0542426201
C   C2        1.0  0.89450  0.54880  0.54890  1.0000 -0.1652581616
C   C3        1.0  0.74460  0.51370  0.42960  1.0000 0.6358294563
C   C4        1.0  0.01690  0.54660  0.58070  1.0000 0.1197613168
C   C5        1.0  0.58390  0.09470  0.42740  1.0000 -0.1943104936
C   C6        1.0  0.99700  0.54170  0.77440  1.0000 0.1117464887
C   C7        1.0  0.47820  0.26230  0.49150  1.0000 0.6586707013
C   C8        1.0  0.39860  0.03140  0.56530  1.0000 0.1117464887
C   C9        1.0  0.48290  0.12710  0.49300  1.0000 -0.0439718886
C   C10       1.0  0.10810  0.70320  0.74100  1.0000 0.1197613168
C   C11       1.0  0.12470  0.14430  0.68200  1.0000 0.1429974997
C   C12       1.0  0.26240  0.00430  0.74280  1.0000 0.0750801118
C   C13       1.0  0.12390  0.49810  0.53170  1.0000 -0.0542426201
C   C14       1.0  0.10550  0.45120  0.45110  1.0000 -0.1644829137
C   C15       1.0  0.25540  0.48630  0.57040  1.0000 0.6358294563
C   C16       1.0  0.98310  0.45340  0.41930  1.0000 0.1197613168
C   C17       1.0  0.41610  0.90530  0.57260  1.0000 -0.1943104936
C   C18       1.0  0.00300  0.45830  0.22560  1.0000 0.1117464887
C   C19       1.0  0.52180  0.73770  0.50850  1.0000 0.6586707013
C   C20       1.0  0.60140  0.96860  0.43470  1.0000 0.1117464887
C   C21       1.0  0.51710  0.87290  0.50700  1.0000 -0.0439718886
C   C22       1.0  0.89190  0.29680  0.25900  1.0000 0.1197613168
C   C23       1.0  0.87530  0.85570  0.31800  1.0000 0.1429974997
C   C24       1.0  0.73760  0.99570  0.25720  1.0000 0.0750801118
N   N1        1.0  0.03419  0.59520  0.66480  1.0000 0.1197613168
N   N2        1.0  0.74960  0.31880  0.75406  1.0000 0.7124887483
N   N3        1.0  0.29200  0.05941  0.63411  1.0000 0.1197613168
N   N4        1.0  0.10810  0.69990  0.64210  1.0000 -0.2463117017
N   N5        1.0  0.20320  0.15310  0.59180  1.0000 -0.2407497985
N   N6        1.0  0.04070  0.60820  0.82570  1.0000 -0.3081794156
N   N7        1.0  0.15540  0.05390  0.77770  1.0000 -0.3002960308
N   N8        1.0  0.96581  0.40480  0.33520  1.0000 0.1117464887
N   N9        1.0  0.25040  0.68120  0.24594  1.0000 0.7124887483
N   N10       1.0  0.70800  0.94059  0.36589  1.0000 0.1197613168
N   N11       1.0  0.89190  0.30010  0.35790  1.0000 -0.2463117017
N   N12       1.0  0.79680  0.84690  0.40820  1.0000 -0.2407497985
N   N13       1.0  0.95930  0.39180  0.17430  1.0000 -0.3081794156
N   N14       1.0  0.84460  0.94610  0.22230  1.0000 -0.3002960308
O   O1        1.0  0.64509  0.48362  0.50129  1.0000 -0.7216839416
O   O2        1.0  0.48924  0.35277  0.39819  1.0000 -0.6475656701
O   O3        1.0  0.46913  0.26918  0.58507  1.0000 -0.6475656701
O   O4        1.0  0.73721  0.55653  0.32788  1.0000 -0.622273974
O   O5        1.0  0.70003  0.42484  0.75498  1.0000 -0.5984280332
O   O6        1.0  0.85309  0.27930  0.78974  1.0000 -0.3847242816
O   O7        1.0  0.68575  0.25795  0.71520  1.0000 -0.5321508272
O   O8        1.0  0.35491  0.51638  0.49871  1.0000 -0.7216839416
O   O9        1.0  0.51076  0.64723  0.60181  1.0000 -0.6475656701
O   O10       1.0  0.53087  0.73082  0.41493  1.0000 -0.6475656701
O   O11       1.0  0.26279  0.44347  0.67212  1.0000 -0.622273974
O   O12       1.0  0.29997  0.57516  0.24502  1.0000 -0.5984280332
O   O13       1.0  0.14691  0.72070  0.21026  1.0000 -0.386737041
O   O14       1.0  0.31425  0.74205  0.28480  1.0000 -0.5361203177
