# DDEC6 charges by PACMAN v1.1 (https://github.com/mtap-research/PACMAN-charge/)
data_2021[Dy][nan]3[ASR]4
_chemical_formula_sum              "Dy4 H24 C56 N4 O24"
_cell_length_a       10.8236
_cell_length_b       16.4622
_cell_length_c       16.9985
_cell_angle_alpha    90
_cell_angle_beta     117.998
_cell_angle_gamma    90

_symmetry_space_group_name_H-M    "P 1"
_symmetry_Int_Tables_number       1

loop_
  _symmetry_equiv_pos_as_xyz
  'x, y, z'

loop_
  _atom_site_type_symbol
  _atom_site_label
  _atom_site_symmetry_multiplicity
  _atom_site_fract_x
  _atom_site_fract_y
  _atom_site_fract_z
  _atom_site_occupancy
  _atom_site_charge
Dy  Dy1       1.0  0.08263  0.09984  0.46224  1.0000 2.05627643
Dy  Dy2       1.0  0.91737  0.59984  0.03776  1.0000 2.05627643
Dy  Dy3       1.0  0.91737  0.90016  0.53776  1.0000 2.05627643
Dy  Dy4       1.0  0.08263  0.40016  0.96224  1.0000 2.05627643
H   H1        1.0  0.07310  0.47410  0.30030  1.0000 0.129806046
H   H2        1.0  0.31850  0.33460  0.24260  1.0000 0.1199503174
H   H3        1.0  0.31590  0.31930  0.47600  1.0000 0.1117750728
H   H4        1.0  0.54160  0.07620  0.49430  1.0000 0.129806046
H   H5        1.0  0.74790  0.21320  0.39940  1.0000 0.1199503174
H   H6        1.0  0.57180  0.30980  0.35400  1.0000 0.1117750728
H   H7        1.0  0.92690  0.97410  0.19970  1.0000 0.129806046
H   H8        1.0  0.68150  0.83460  0.25740  1.0000 0.1199503174
H   H9        1.0  0.68410  0.81930  0.02400  1.0000 0.1117750728
H   H10       1.0  0.45840  0.57620  0.00570  1.0000 0.129806046
H   H11       1.0  0.25210  0.71320  0.10060  1.0000 0.1199503174
H   H12       1.0  0.42820  0.80980  0.14600  1.0000 0.1117750728
H   H13       1.0  0.92690  0.52590  0.69970  1.0000 0.129806046
H   H14       1.0  0.68150  0.66540  0.75740  1.0000 0.1199503174
H   H15       1.0  0.68410  0.68070  0.52400  1.0000 0.1117750728
H   H16       1.0  0.45840  0.92380  0.50570  1.0000 0.129806046
H   H17       1.0  0.25210  0.78680  0.60060  1.0000 0.1199503174
H   H18       1.0  0.42820  0.69020  0.64600  1.0000 0.1117750728
H   H19       1.0  0.07310  0.02590  0.80030  1.0000 0.129806046
H   H20       1.0  0.31850  0.16540  0.74260  1.0000 0.1199503174
H   H21       1.0  0.31590  0.18070  0.97600  1.0000 0.1117750728
H   H22       1.0  0.54160  0.42380  0.99430  1.0000 0.129806046
H   H23       1.0  0.74790  0.28680  0.89940  1.0000 0.1199503174
H   H24       1.0  0.57180  0.19020  0.85400  1.0000 0.1117750728
C   C1        1.0  0.14130  0.43400  0.31750  1.0000 0.0621892592
C   C2        1.0  0.18810  0.41200  0.25870  1.0000 -0.0650492864
C   C3        1.0  0.28710  0.35160  0.28230  1.0000 -0.1080605643
C   C4        1.0  0.34040  0.31570  0.36720  1.0000 0.0224927297
C   C5        1.0  0.28390  0.34340  0.42030  1.0000 0.0499538407
C   C6        1.0  0.44980  0.25150  0.39620  1.0000 0.0499538407
C   C7        1.0  0.44080  0.18040  0.43840  1.0000 -0.0510415765
C   C8        1.0  0.54730  0.12320  0.46570  1.0000 -0.1008228906
C   C9        1.0  0.66210  0.13460  0.45140  1.0000 -0.0346894124
C   C10       1.0  0.67140  0.20480  0.40940  1.0000 -0.1008228906
C   C11       1.0  0.56530  0.26280  0.38210  1.0000 -0.1477190064
C   C12       1.0  0.12430  0.44910  0.16610  1.0000 0.6487750305
C   C13       1.0  0.31530  0.15910  0.44990  1.0000 0.560529579
C   C14       1.0  0.77380  0.07110  0.48100  1.0000 0.6408052934
C   C15       1.0  0.85870  0.93400  0.18250  1.0000 0.0621892592
C   C16       1.0  0.81190  0.91200  0.24130  1.0000 -0.0650492864
C   C17       1.0  0.71290  0.85160  0.21770  1.0000 -0.1080605643
C   C18       1.0  0.65960  0.81570  0.13280  1.0000 0.0224927297
C   C19       1.0  0.71610  0.84340  0.07970  1.0000 0.0499538407
C   C20       1.0  0.55020  0.75150  0.10380  1.0000 0.0499538407
C   C21       1.0  0.55920  0.68040  0.06160  1.0000 -0.0510415765
C   C22       1.0  0.45270  0.62320  0.03430  1.0000 -0.1008228906
C   C23       1.0  0.33790  0.63460  0.04860  1.0000 -0.0346894124
C   C24       1.0  0.32860  0.70480  0.09060  1.0000 -0.1008228906
C   C25       1.0  0.43470  0.76280  0.11790  1.0000 -0.1477190064
C   C26       1.0  0.87570  0.94910  0.33390  1.0000 0.6487750305
C   C27       1.0  0.68470  0.65910  0.05010  1.0000 0.560529579
C   C28       1.0  0.22620  0.57110  0.01900  1.0000 0.6408052934
C   C29       1.0  0.85870  0.56600  0.68250  1.0000 0.0621892592
C   C30       1.0  0.81190  0.58800  0.74130  1.0000 -0.0650492864
C   C31       1.0  0.71290  0.64840  0.71770  1.0000 -0.1080605643
C   C32       1.0  0.65960  0.68430  0.63280  1.0000 0.0224927297
C   C33       1.0  0.71610  0.65660  0.57970  1.0000 0.0499538407
C   C34       1.0  0.55020  0.74850  0.60380  1.0000 0.0499538407
C   C35       1.0  0.55920  0.81960  0.56160  1.0000 -0.0510415765
C   C36       1.0  0.45270  0.87680  0.53430  1.0000 -0.1008228906
C   C37       1.0  0.33790  0.86540  0.54860  1.0000 -0.0346894124
C   C38       1.0  0.32860  0.79520  0.59060  1.0000 -0.1008228906
C   C39       1.0  0.43470  0.73720  0.61790  1.0000 -0.1477190064
C   C40       1.0  0.87570  0.55090  0.83390  1.0000 0.6487750305
C   C41       1.0  0.68470  0.84090  0.55010  1.0000 0.560529579
C   C42       1.0  0.22620  0.92890  0.51900  1.0000 0.6408052934
C   C43       1.0  0.14130  0.06600  0.81750  1.0000 0.0621892592
C   C44       1.0  0.18810  0.08800  0.75870  1.0000 -0.0650492864
C   C45       1.0  0.28710  0.14840  0.78230  1.0000 -0.1080605643
C   C46       1.0  0.34040  0.18430  0.86720  1.0000 0.0224927297
C   C47       1.0  0.28390  0.15660  0.92030  1.0000 0.0499538407
C   C48       1.0  0.44980  0.24850  0.89620  1.0000 0.0499538407
C   C49       1.0  0.44080  0.31960  0.93840  1.0000 -0.0510415765
C   C50       1.0  0.54730  0.37680  0.96570  1.0000 -0.1008228906
C   C51       1.0  0.66210  0.36540  0.95140  1.0000 -0.0346894124
C   C52       1.0  0.67140  0.29520  0.90940  1.0000 -0.1008228906
C   C53       1.0  0.56530  0.23720  0.88210  1.0000 -0.1477190064
C   C54       1.0  0.12430  0.05090  0.66610  1.0000 0.6487750305
C   C55       1.0  0.31530  0.34090  0.94990  1.0000 0.560529579
C   C56       1.0  0.77380  0.42890  0.98100  1.0000 0.6408052934
N   N1        1.0  0.18820  0.40120  0.39880  1.0000 -0.2486767502
N   N2        1.0  0.81180  0.90120  0.10120  1.0000 -0.2486767502
N   N3        1.0  0.81180  0.59880  0.60120  1.0000 -0.2486767502
N   N4        1.0  0.18820  0.09880  0.89880  1.0000 -0.2486767502
O   O1        1.0  0.16540  0.42030  0.11410  1.0000 -0.659584518
O   O2        1.0  0.04000  0.50560  0.15040  1.0000 -0.659584518
O   O3        1.0  0.32420  0.15820  0.52490  1.0000 -0.6115126716
O   O4        1.0  0.20270  0.14120  0.38060  1.0000 -0.659584518
O   O5        1.0  0.75420  0.00520  0.50970  1.0000 -0.6115126716
O   O6        1.0  0.88100  0.08560  0.47230  1.0000 -0.7553776012
O   O7        1.0  0.83460  0.92030  0.38590  1.0000 -0.659584518
O   O8        1.0  0.96000  0.00560  0.34960  1.0000 -0.659584518
O   O9        1.0  0.67580  0.65820  0.97510  1.0000 -0.6115126716
O   O10       1.0  0.79730  0.64120  0.11940  1.0000 -0.659584518
O   O11       1.0  0.24580  0.50520  0.99030  1.0000 -0.6115126716
O   O12       1.0  0.11900  0.58560  0.02770  1.0000 -0.7553776012
O   O13       1.0  0.83460  0.57970  0.88590  1.0000 -0.659584518
O   O14       1.0  0.96000  0.49440  0.84960  1.0000 -0.659584518
O   O15       1.0  0.67580  0.84180  0.47510  1.0000 -0.6115126716
O   O16       1.0  0.79730  0.85880  0.61940  1.0000 -0.659584518
O   O17       1.0  0.24580  0.99480  0.49030  1.0000 -0.6115126716
O   O18       1.0  0.11900  0.91440  0.52770  1.0000 -0.7553776012
O   O19       1.0  0.16540  0.07970  0.61410  1.0000 -0.659584518
O   O20       1.0  0.04000  0.99440  0.65040  1.0000 -0.659584518
O   O21       1.0  0.32420  0.34180  0.02490  1.0000 -0.6115126716
O   O22       1.0  0.20270  0.35880  0.88060  1.0000 -0.659584518
O   O23       1.0  0.75420  0.49480  0.00970  1.0000 -0.6115126716
O   O24       1.0  0.88100  0.41440  0.97230  1.0000 -0.7553776012
