# DDEC6 charges by PACMAN v1.1 (https://github.com/mtap-research/PACMAN-charge/)
data_2021[Ni][nan]3[ASR]4
_chemical_formula_sum              "Ni6 H6 C24 O18"
_cell_length_a       15.0359
_cell_length_b       15.0359
_cell_length_c       15.0359
_cell_angle_alpha    117.766
_cell_angle_beta     117.766
_cell_angle_gamma    117.766

_symmetry_space_group_name_H-M    "P 1"
_symmetry_Int_Tables_number       1

loop_
  _symmetry_equiv_pos_as_xyz
  'x, y, z'

loop_
  _atom_site_type_symbol
  _atom_site_label
  _atom_site_symmetry_multiplicity
  _atom_site_fract_x
  _atom_site_fract_y
  _atom_site_fract_z
  _atom_site_occupancy
  _atom_site_charge
Ni  Ni1       1.0  0.46737  0.20033  0.88042  1.0000 0.918003499
Ni  Ni2       1.0  0.20033  0.88042  0.46737  1.0000 0.918003499
Ni  Ni3       1.0  0.88042  0.46737  0.20033  1.0000 0.918003499
Ni  Ni4       1.0  0.53263  0.79967  0.11958  1.0000 0.918003499
Ni  Ni5       1.0  0.79967  0.11958  0.53263  1.0000 0.918003499
Ni  Ni6       1.0  0.11958  0.53263  0.79967  1.0000 0.918003499
H   H1        1.0  0.81200  0.36300  0.34800  1.0000 0.1444752608
H   H2        1.0  0.36300  0.34800  0.81200  1.0000 0.1444752608
H   H3        1.0  0.34800  0.81200  0.36300  1.0000 0.1444752608
H   H4        1.0  0.18800  0.63700  0.65200  1.0000 0.1444752608
H   H5        1.0  0.63700  0.65200  0.18800  1.0000 0.1444752608
H   H6        1.0  0.65200  0.18800  0.63700  1.0000 0.1444752608
C   C1        1.0  0.56540  0.13530  0.03360  1.0000 0.2997548972
C   C2        1.0  0.25240  0.81970  0.64310  1.0000 0.6257705186
C   C3        1.0  0.67600  0.20750  0.19550  1.0000 -0.2046089228
C   C4        1.0  0.38250  0.91970  0.83120  1.0000 -0.1318593229
C   C5        1.0  0.13530  0.03360  0.56540  1.0000 0.2997548972
C   C6        1.0  0.81970  0.64310  0.25240  1.0000 0.6257705186
C   C7        1.0  0.20750  0.19550  0.67600  1.0000 -0.2046089228
C   C8        1.0  0.91970  0.83120  0.38250  1.0000 -0.1318593229
C   C9        1.0  0.03360  0.56540  0.13530  1.0000 0.2997548972
C   C10       1.0  0.64310  0.25240  0.81970  1.0000 0.6257705186
C   C11       1.0  0.19550  0.67600  0.20750  1.0000 -0.2046089228
C   C12       1.0  0.83120  0.38250  0.91970  1.0000 -0.1318593229
C   C13       1.0  0.43460  0.86470  0.96640  1.0000 0.2997548972
C   C14       1.0  0.74760  0.18030  0.35690  1.0000 0.6257705186
C   C15       1.0  0.32400  0.79250  0.80450  1.0000 -0.2046089228
C   C16       1.0  0.61750  0.08030  0.16880  1.0000 -0.1318593229
C   C17       1.0  0.86470  0.96640  0.43460  1.0000 0.2997548972
C   C18       1.0  0.18030  0.35690  0.74760  1.0000 0.6257705186
C   C19       1.0  0.79250  0.80450  0.32400  1.0000 -0.2046089228
C   C20       1.0  0.08030  0.16880  0.61750  1.0000 -0.1318593229
C   C21       1.0  0.96640  0.43460  0.86470  1.0000 0.2997548972
C   C22       1.0  0.35690  0.74760  0.18030  1.0000 0.6257705186
C   C23       1.0  0.80450  0.32400  0.79250  1.0000 -0.2046089228
C   C24       1.0  0.16880  0.61750  0.08030  1.0000 -0.1318593229
O   O1        1.0  0.63827  0.27378  0.08175  1.0000 -0.5804004079
O   O2        1.0  0.30977  0.93359  0.66564  1.0000 -0.5638886099
O   O3        1.0  0.09331  0.62884  0.47105  1.0000 -0.5072469121
O   O4        1.0  0.27378  0.08175  0.63827  1.0000 -0.5804004079
O   O5        1.0  0.93359  0.66564  0.30977  1.0000 -0.5638886099
O   O6        1.0  0.62884  0.47105  0.09331  1.0000 -0.5072469121
O   O7        1.0  0.08175  0.63827  0.27378  1.0000 -0.5804004079
O   O8        1.0  0.66564  0.30977  0.93359  1.0000 -0.5638886099
O   O9        1.0  0.47105  0.09331  0.62884  1.0000 -0.5072469121
O   O10       1.0  0.36173  0.72622  0.91825  1.0000 -0.5804004079
O   O11       1.0  0.69023  0.06641  0.33436  1.0000 -0.5638886099
O   O12       1.0  0.90669  0.37116  0.52895  1.0000 -0.5072469121
O   O13       1.0  0.72622  0.91825  0.36173  1.0000 -0.5804004079
O   O14       1.0  0.06641  0.33436  0.69023  1.0000 -0.5638886099
O   O15       1.0  0.37116  0.52895  0.90669  1.0000 -0.5072469121
O   O16       1.0  0.91825  0.36173  0.72622  1.0000 -0.5804004079
O   O17       1.0  0.33436  0.69023  0.06641  1.0000 -0.5638886099
O   O18       1.0  0.52895  0.90669  0.37116  1.0000 -0.5072469121
