# DDEC6 charges by PACMAN v1.1 (https://github.com/mtap-research/PACMAN-charge/)
data_2021[Cu][lvt]3[ASR]1
_chemical_formula_sum              "Cu4 H52 C92 O16"
_cell_length_a       24.9702
_cell_length_b       24.9702
_cell_length_c       24.9702
_cell_angle_alpha    145.624
_cell_angle_beta     107.7
_cell_angle_gamma    82.5657

_symmetry_space_group_name_H-M    "P 1"
_symmetry_Int_Tables_number       1

loop_
  _symmetry_equiv_pos_as_xyz
  'x, y, z'

loop_
  _atom_site_type_symbol
  _atom_site_label
  _atom_site_symmetry_multiplicity
  _atom_site_fract_x
  _atom_site_fract_y
  _atom_site_fract_z
  _atom_site_occupancy
  _atom_site_charge
Cu  Cu1       1.0  0.02107  0.09296  0.07189  1.0000 0.8623824687
Cu  Cu2       1.0  0.47893  0.55082  0.07189  1.0000 0.8623824687
Cu  Cu3       1.0  0.52107  0.44918  0.92811  1.0000 0.8623824687
Cu  Cu4       1.0  0.97893  0.90704  0.92811  1.0000 0.8623824687
H   H1        1.0  0.97720  0.97720  0.62180  1.0000 0.1126381485
H   H2        1.0  0.91370  0.81240  0.67390  1.0000 0.1309666447
H   H3        1.0  0.88420  0.78590  0.55470  1.0000 0.1126381485
H   H4        1.0  0.99920  0.08260  0.88500  1.0000 0.1309666447
H   H5        1.0  0.96890  0.05620  0.76590  1.0000 0.1126381485
H   H6        1.0  0.93390  0.85500  0.35010  1.0000 0.1159950732
H   H7        1.0  0.52280  0.14460  0.00000  1.0000 0.1126381485
H   H8        1.0  0.58630  0.26020  0.89870  1.0000 0.1309666447
H   H9        1.0  0.61580  0.17050  0.90170  1.0000 0.1126381485
H   H10       1.0  0.50080  0.38580  0.08340  1.0000 0.1309666447
H   H11       1.0  0.53110  0.29700  0.08730  1.0000 0.1126381485
H   H12       1.0  0.56610  0.91620  0.92110  1.0000 0.1159950732
H   H13       1.0  0.85540  0.85540  0.37820  1.0000 0.1126381485
H   H14       1.0  0.63850  0.73980  0.32610  1.0000 0.1309666447
H   H15       1.0  0.73120  0.82950  0.44530  1.0000 0.1126381485
H   H16       1.0  0.69760  0.61420  0.11500  1.0000 0.1309666447
H   H17       1.0  0.79030  0.70300  0.23410  1.0000 0.1126381485
H   H18       1.0  0.00490  0.08380  0.64990  1.0000 0.1159950732
H   H19       1.0  0.64460  0.02280  0.00000  1.0000 0.1126381485
H   H20       1.0  0.86150  0.18760  0.10130  1.0000 0.1309666447
H   H21       1.0  0.76880  0.21410  0.09830  1.0000 0.1126381485
H   H22       1.0  0.80240  0.91740  0.91660  1.0000 0.1309666447
H   H23       1.0  0.70970  0.94380  0.91270  1.0000 0.1126381485
H   H24       1.0  0.49510  0.14500  0.07890  1.0000 0.1159950732
H   H25       1.0  0.02280  0.02280  0.37820  1.0000 0.1126381485
H   H26       1.0  0.08630  0.18760  0.32610  1.0000 0.1309666447
H   H27       1.0  0.11580  0.21410  0.44530  1.0000 0.1126381485
H   H28       1.0  0.00080  0.91740  0.11500  1.0000 0.1309666447
H   H29       1.0  0.03110  0.94380  0.23410  1.0000 0.1126381485
H   H30       1.0  0.06610  0.14500  0.64990  1.0000 0.1159950732
H   H31       1.0  0.47720  0.85540  0.00000  1.0000 0.1126381485
H   H32       1.0  0.41370  0.73980  0.10130  1.0000 0.1309666447
H   H33       1.0  0.38420  0.82950  0.09830  1.0000 0.1126381485
H   H34       1.0  0.49920  0.61420  0.91660  1.0000 0.1309666447
H   H35       1.0  0.46890  0.70300  0.91270  1.0000 0.1126381485
H   H36       1.0  0.43390  0.08380  0.07890  1.0000 0.1159950732
H   H37       1.0  0.14460  0.14460  0.62180  1.0000 0.1126381485
H   H38       1.0  0.36150  0.26020  0.67390  1.0000 0.1309666447
H   H39       1.0  0.26880  0.17050  0.55470  1.0000 0.1126381485
H   H40       1.0  0.30240  0.38580  0.88500  1.0000 0.1309666447
H   H41       1.0  0.20970  0.29700  0.76590  1.0000 0.1126381485
H   H42       1.0  0.99510  0.91620  0.35010  1.0000 0.1159950732
H   H43       1.0  0.35540  0.97720  0.00000  1.0000 0.1126381485
H   H44       1.0  0.13850  0.81240  0.89870  1.0000 0.1309666447
H   H45       1.0  0.23120  0.78590  0.90170  1.0000 0.1126381485
H   H46       1.0  0.19760  0.08260  0.08340  1.0000 0.1309666447
H   H47       1.0  0.29030  0.05620  0.08730  1.0000 0.1126381485
H   H48       1.0  0.50490  0.85500  0.92110  1.0000 0.1126381485
H   H49       1.0  0.82380  0.82380  0.50000  1.0000 0.1126381485
H   H50       1.0  0.67620  0.17620  0.00000  1.0000 0.1126381485
H   H51       1.0  0.17620  0.17620  0.50000  1.0000 0.1126381485
H   H52       1.0  0.32380  0.82380  0.00000  1.0000 0.1126381485
C   C1        1.0  0.97638  0.96960  0.87006  1.0000 0.5760933877
C   C2        1.0  0.95852  0.94937  0.79087  1.0000 -0.0345989164
C   C3        1.0  0.92360  0.91881  0.64859  1.0000 0.072623671
C   C4        1.0  0.94051  0.94011  0.57260  1.0000 -0.2044129624
C   C5        1.0  0.92486  0.86173  0.69293  1.0000 -0.0832654919
C   C6        1.0  0.90392  0.90268  0.57264  1.0000 0.0810655867
C   C7        1.0  0.90713  0.84575  0.62118  1.0000 -0.1512374618
C   C8        1.0  0.97579  0.02311  0.81886  1.0000 -0.0832654919
C   C9        1.0  0.95774  0.00691  0.74703  1.0000 -0.1574037253
C   C10       1.0  0.96054  0.91395  0.41139  1.0000 -0.1512374618
C   C11       1.0  0.52362  0.39368  0.99322  1.0000 0.5760933877
C   C12       1.0  0.54148  0.33235  0.99085  1.0000 -0.0345989164
C   C13       1.0  0.57640  0.22499  0.99521  1.0000 0.072623671
C   C14       1.0  0.55949  0.13209  0.99960  1.0000 -0.2044129624
C   C15       1.0  0.57514  0.26807  0.93687  1.0000 -0.0832654919
C   C16       1.0  0.59608  0.16872  0.99876  1.0000 0.0810655867
C   C17       1.0  0.59287  0.21405  0.93862  1.0000 -0.1512374618
C   C18       1.0  0.52421  0.34307  0.04732  1.0000 -0.0832654919
C   C19       1.0  0.54226  0.28929  0.04917  1.0000 -0.1574037253
C   C20       1.0  0.53946  0.95085  0.95341  1.0000 -0.1512374618
C   C21       1.0  0.59954  0.60632  0.12994  1.0000 0.5749532999
C   C22       1.0  0.65850  0.66765  0.20913  1.0000 -0.0345989164
C   C23       1.0  0.77022  0.77501  0.35141  1.0000 0.072623671
C   C24       1.0  0.86751  0.86791  0.42740  1.0000 -0.2057270287
C   C25       1.0  0.66880  0.73193  0.30707  1.0000 -0.0832654919
C   C26       1.0  0.83004  0.83128  0.42736  1.0000 0.0810655867
C   C27       1.0  0.72457  0.78595  0.37882  1.0000 -0.1512374618
C   C28       1.0  0.70425  0.65693  0.18114  1.0000 -0.0832654919
C   C29       1.0  0.75988  0.71071  0.25297  1.0000 -0.1574037253
C   C30       1.0  0.00256  0.04915  0.58861  1.0000 -0.1512374618
C   C31       1.0  0.90046  0.03040  0.00678  1.0000 0.5749532999
C   C32       1.0  0.84150  0.05063  0.00915  1.0000 -0.0345989164
C   C33       1.0  0.72978  0.08119  0.00479  1.0000 0.072623671
C   C34       1.0  0.63249  0.05989  0.00040  1.0000 -0.2044129624
C   C35       1.0  0.83120  0.13827  0.06313  1.0000 -0.0832654919
C   C36       1.0  0.66996  0.09732  0.00124  1.0000 0.0810655867
C   C37       1.0  0.77543  0.15425  0.06138  1.0000 -0.1512374618
C   C38       1.0  0.79575  0.97689  0.95268  1.0000 -0.0832654919
C   C39       1.0  0.74012  0.99309  0.95083  1.0000 -0.1574037253
C   C40       1.0  0.49744  0.08605  0.04659  1.0000 -0.1512374618
C   C41       1.0  0.02362  0.03040  0.12994  1.0000 0.5760933877
C   C42       1.0  0.04148  0.05063  0.20913  1.0000 -0.0360131292
C   C43       1.0  0.07640  0.08119  0.35141  1.0000 0.072623671
C   C44       1.0  0.05949  0.05989  0.42740  1.0000 -0.2044129624
C   C45       1.0  0.07514  0.13827  0.30707  1.0000 -0.0832654919
C   C46       1.0  0.09608  0.09732  0.42736  1.0000 0.0810655867
C   C47       1.0  0.09287  0.15425  0.37882  1.0000 -0.1512374618
C   C48       1.0  0.02421  0.97689  0.18114  1.0000 -0.0832654919
C   C49       1.0  0.04226  0.99309  0.25297  1.0000 -0.1574037253
C   C50       1.0  0.03946  0.08605  0.58861  1.0000 -0.1512374618
C   C51       1.0  0.47638  0.60632  0.00678  1.0000 0.5760933877
C   C52       1.0  0.45852  0.66765  0.00915  1.0000 -0.0345989164
C   C53       1.0  0.42360  0.77501  0.00479  1.0000 0.072623671
C   C54       1.0  0.44051  0.86791  0.00040  1.0000 -0.2044129624
C   C55       1.0  0.42486  0.73193  0.06313  1.0000 -0.0832654919
C   C56       1.0  0.40392  0.83128  0.00124  1.0000 0.0810655867
C   C57       1.0  0.40713  0.78595  0.06138  1.0000 -0.1512374618
C   C58       1.0  0.47579  0.65693  0.95268  1.0000 -0.0832654919
C   C59       1.0  0.45774  0.71071  0.95083  1.0000 -0.1574037253
C   C60       1.0  0.46054  0.04915  0.04659  1.0000 -0.1512374618
C   C61       1.0  0.40046  0.39368  0.87006  1.0000 0.5760933877
C   C62       1.0  0.34150  0.33235  0.79087  1.0000 -0.0345989164
C   C63       1.0  0.22978  0.22499  0.64859  1.0000 0.072623671
C   C64       1.0  0.13249  0.13209  0.57260  1.0000 -0.2044129624
C   C65       1.0  0.33120  0.26807  0.69293  1.0000 -0.0832654919
C   C66       1.0  0.16996  0.16872  0.57264  1.0000 0.0810655867
C   C67       1.0  0.27543  0.21405  0.62118  1.0000 -0.1512374618
C   C68       1.0  0.29575  0.34307  0.81886  1.0000 -0.0832654919
C   C69       1.0  0.24012  0.28929  0.74703  1.0000 -0.1574037253
C   C70       1.0  0.99744  0.95085  0.41139  1.0000 -0.1512374618
C   C71       1.0  0.09954  0.96960  0.99322  1.0000 0.5760933877
C   C72       1.0  0.15850  0.94937  0.99085  1.0000 -0.0345989164
C   C73       1.0  0.27022  0.91881  0.99521  1.0000 0.072623671
C   C74       1.0  0.36751  0.94011  0.99960  1.0000 -0.2044129624
C   C75       1.0  0.16880  0.86173  0.93687  1.0000 -0.0832654919
C   C76       1.0  0.33004  0.90268  0.99876  1.0000 0.0810655867
C   C77       1.0  0.22457  0.84575  0.93862  1.0000 -0.1512374618
C   C78       1.0  0.20425  0.02311  0.04732  1.0000 -0.0832654919
C   C79       1.0  0.25988  0.00691  0.04917  1.0000 -0.1574037253
C   C80       1.0  0.50256  0.91395  0.95341  1.0000 -0.1512374618
C   C81       1.0  0.92315  0.92315  0.50000  1.0000 0.0810655867
C   C82       1.0  0.96239  0.96239  0.50000  1.0000 0.0603276835
C   C83       1.0  0.84857  0.84857  0.50000  1.0000 -0.2057270287
C   C84       1.0  0.57685  0.07685  0.00000  1.0000 0.0810655867
C   C85       1.0  0.53761  0.03761  0.00000  1.0000 0.0603276835
C   C86       1.0  0.65143  0.15143  0.00000  1.0000 -0.2044129624
C   C87       1.0  0.07685  0.07685  0.50000  1.0000 0.0810655867
C   C88       1.0  0.03761  0.03761  0.50000  1.0000 0.0603276835
C   C89       1.0  0.15143  0.15143  0.50000  1.0000 -0.2044129624
C   C90       1.0  0.42315  0.92315  0.00000  1.0000 0.0810655867
C   C91       1.0  0.46239  0.96239  0.00000  1.0000 0.0603276835
C   C92       1.0  0.34857  0.84857  0.00000  1.0000 -0.2044129624
O   O1        1.0  0.00056  0.05408  0.95972  1.0000 -0.4997894047
O   O2        1.0  0.96425  0.89534  0.83671  1.0000 -0.5348663508
O   O3        1.0  0.49944  0.45916  0.05352  1.0000 -0.4997894047
O   O4        1.0  0.53575  0.37246  0.93109  1.0000 -0.5348663508
O   O5        1.0  0.59436  0.54084  0.04028  1.0000 -0.4997894047
O   O6        1.0  0.55863  0.62754  0.16329  1.0000 -0.5348663508
O   O7        1.0  0.90564  0.94592  0.94648  1.0000 -0.4997894047
O   O8        1.0  0.94137  0.10466  0.06891  1.0000 -0.5357695996
O   O9        1.0  0.99944  0.94592  0.04028  1.0000 -0.4997894047
O   O10       1.0  0.03575  0.10466  0.16329  1.0000 -0.5357695996
O   O11       1.0  0.50056  0.54084  0.94648  1.0000 -0.4997894047
O   O12       1.0  0.46425  0.62754  0.06891  1.0000 -0.5348663508
O   O13       1.0  0.40564  0.45916  0.95972  1.0000 -0.4997894047
O   O14       1.0  0.44137  0.37246  0.83671  1.0000 -0.5348663508
O   O15       1.0  0.09436  0.05408  0.05352  1.0000 -0.4997894047
O   O16       1.0  0.05863  0.89534  0.93109  1.0000 -0.5357695996
