# DDEC6 charges by PACMAN v1.1 (https://github.com/mtap-research/PACMAN-charge/)
data_2021[Cu][ssb]3[ASR]1
_chemical_formula_sum              "Cu8 H32 C68 O32"
_cell_length_a       16.3484
_cell_length_b       16.3484
_cell_length_c       16.3484
_cell_angle_alpha    110.47
_cell_angle_beta     110.47
_cell_angle_gamma    107.491

_symmetry_space_group_name_H-M    "P 1"
_symmetry_Int_Tables_number       1

loop_
  _symmetry_equiv_pos_as_xyz
  'x, y, z'

loop_
  _atom_site_type_symbol
  _atom_site_label
  _atom_site_symmetry_multiplicity
  _atom_site_fract_x
  _atom_site_fract_y
  _atom_site_fract_z
  _atom_site_occupancy
  _atom_site_charge
Cu  Cu1       1.0  0.48619  0.91589  0.00000  1.0000 0.8799568571
Cu  Cu2       1.0  0.91589  0.48619  0.00000  1.0000 0.8799568571
Cu  Cu3       1.0  0.48619  0.48619  0.57030  1.0000 0.8799568571
Cu  Cu4       1.0  0.91589  0.91589  0.42970  1.0000 0.8799568571
Cu  Cu5       1.0  0.51381  0.51381  0.42970  1.0000 0.8799568571
Cu  Cu6       1.0  0.08411  0.08411  0.57030  1.0000 0.8799568571
Cu  Cu7       1.0  0.51381  0.08411  0.00000  1.0000 0.8799568571
Cu  Cu8       1.0  0.08411  0.51381  0.00000  1.0000 0.8799568571
H   H1        1.0  0.42260  0.96620  0.24140  1.0000 0.1279476789
H   H2        1.0  0.72480  0.18120  0.75860  1.0000 0.1279476789
H   H3        1.0  0.18120  0.42260  0.45640  1.0000 0.1279476789
H   H4        1.0  0.96620  0.72480  0.54360  1.0000 0.1279476789
H   H5        1.0  0.57740  0.81880  0.54360  1.0000 0.1279476789
H   H6        1.0  0.27520  0.03380  0.45640  1.0000 0.1279476789
H   H7        1.0  0.81880  0.27520  0.24140  1.0000 0.1279476789
H   H8        1.0  0.03380  0.57740  0.75860  1.0000 0.1279476789
H   H9        1.0  0.57740  0.03380  0.75860  1.0000 0.1279476789
H   H10       1.0  0.27520  0.81880  0.24140  1.0000 0.1279476789
H   H11       1.0  0.81880  0.57740  0.54360  1.0000 0.1279476789
H   H12       1.0  0.03380  0.27520  0.45640  1.0000 0.1279476789
H   H13       1.0  0.42260  0.18120  0.45640  1.0000 0.1279476789
H   H14       1.0  0.72480  0.96620  0.54360  1.0000 0.1279476789
H   H15       1.0  0.18120  0.72480  0.75860  1.0000 0.1279476789
H   H16       1.0  0.96620  0.42260  0.24140  1.0000 0.1279476789
H   H17       1.0  0.46770  0.22390  0.24380  1.0000 0.1375383109
H   H18       1.0  0.98010  0.22390  0.75620  1.0000 0.1375383109
H   H19       1.0  0.22390  0.46770  0.24380  1.0000 0.1375383109
H   H20       1.0  0.22390  0.98010  0.75620  1.0000 0.1375383109
H   H21       1.0  0.53230  0.77610  0.75620  1.0000 0.1375383109
H   H22       1.0  0.01990  0.77610  0.24380  1.0000 0.1375383109
H   H23       1.0  0.77610  0.01990  0.24380  1.0000 0.1375383109
H   H24       1.0  0.77610  0.53230  0.75620  1.0000 0.1375383109
H   H25       1.0  0.43440  0.95710  0.39150  1.0000 0.1226669678
H   H26       1.0  0.56560  0.04290  0.60850  1.0000 0.1226669678
H   H27       1.0  0.04290  0.43440  0.47730  1.0000 0.1226669678
H   H28       1.0  0.95710  0.56560  0.52270  1.0000 0.1226669678
H   H29       1.0  0.56560  0.95710  0.52270  1.0000 0.1226669678
H   H30       1.0  0.43440  0.04290  0.47730  1.0000 0.1226669678
H   H31       1.0  0.95710  0.43440  0.39150  1.0000 0.1226669678
H   H32       1.0  0.04290  0.56560  0.60850  1.0000 0.1226669678
C   C1        1.0  0.44600  0.09020  0.22720  1.0000 -0.013549694
C   C2        1.0  0.42960  0.03100  0.27180  1.0000 -0.1657171242
C   C3        1.0  0.45930  0.05330  0.13780  1.0000 0.5845860809
C   C4        1.0  0.86300  0.21880  0.77280  1.0000 -0.013549694
C   C5        1.0  0.75920  0.15780  0.72820  1.0000 -0.1657171242
C   C6        1.0  0.91550  0.32150  0.86220  1.0000 0.5845860809
C   C7        1.0  0.21880  0.44600  0.35580  1.0000 -0.013549694
C   C8        1.0  0.15780  0.42960  0.39860  1.0000 -0.1657171242
C   C9        1.0  0.32150  0.45930  0.40600  1.0000 0.5845860809
C   C10       1.0  0.09020  0.86300  0.64420  1.0000 -0.013549694
C   C11       1.0  0.03100  0.75920  0.60140  1.0000 -0.1657171242
C   C12       1.0  0.05330  0.91550  0.59400  1.0000 0.5845860809
C   C13       1.0  0.55400  0.78120  0.64420  1.0000 -0.013549694
C   C14       1.0  0.57040  0.84220  0.60140  1.0000 -0.1657171242
C   C15       1.0  0.54070  0.67850  0.59400  1.0000 0.5845860809
C   C16       1.0  0.13700  0.90980  0.35580  1.0000 -0.013549694
C   C17       1.0  0.24080  0.96900  0.39860  1.0000 -0.1657171242
C   C18       1.0  0.08450  0.94670  0.40600  1.0000 0.5845860809
C   C19       1.0  0.78120  0.13700  0.22720  1.0000 -0.013549694
C   C20       1.0  0.84220  0.24080  0.27180  1.0000 -0.1657171242
C   C21       1.0  0.67850  0.08450  0.13780  1.0000 0.5845860809
C   C22       1.0  0.90980  0.55400  0.77280  1.0000 -0.013549694
C   C23       1.0  0.96900  0.57040  0.72820  1.0000 -0.1657171242
C   C24       1.0  0.94670  0.54070  0.86220  1.0000 0.5845860809
C   C25       1.0  0.55400  0.90980  0.77280  1.0000 -0.013549694
C   C26       1.0  0.57040  0.96900  0.72820  1.0000 -0.1639339022
C   C27       1.0  0.54070  0.94670  0.86220  1.0000 0.5845860809
C   C28       1.0  0.13700  0.78120  0.22720  1.0000 -0.013549694
C   C29       1.0  0.24080  0.84220  0.27180  1.0000 -0.1657171242
C   C30       1.0  0.08450  0.67850  0.13780  1.0000 0.5845860809
C   C31       1.0  0.78120  0.55400  0.64420  1.0000 -0.013549694
C   C32       1.0  0.84220  0.57040  0.60140  1.0000 -0.1657171242
C   C33       1.0  0.67850  0.54070  0.59400  1.0000 0.5845860809
C   C34       1.0  0.90980  0.13700  0.35580  1.0000 -0.013549694
C   C35       1.0  0.96900  0.24080  0.39860  1.0000 -0.1657171242
C   C36       1.0  0.94670  0.08450  0.40600  1.0000 0.5845860809
C   C37       1.0  0.44600  0.21880  0.35580  1.0000 -0.013549694
C   C38       1.0  0.42960  0.15780  0.39860  1.0000 -0.1657171242
C   C39       1.0  0.45930  0.32150  0.40600  1.0000 0.5845860809
C   C40       1.0  0.86300  0.09020  0.64420  1.0000 -0.013549694
C   C41       1.0  0.75920  0.03100  0.60140  1.0000 -0.1657171242
C   C42       1.0  0.91550  0.05330  0.59400  1.0000 0.5845860809
C   C43       1.0  0.21880  0.86300  0.77280  1.0000 -0.013549694
C   C44       1.0  0.15780  0.75920  0.72820  1.0000 -0.1657171242
C   C45       1.0  0.32150  0.91550  0.86220  1.0000 0.5845860809
C   C46       1.0  0.09020  0.44600  0.22720  1.0000 -0.013549694
C   C47       1.0  0.03100  0.42960  0.27180  1.0000 -0.1657171242
C   C48       1.0  0.05330  0.45930  0.13780  1.0000 0.5845860809
C   C49       1.0  0.42350  0.06550  0.35800  1.0000 0.1279476789
C   C50       1.0  0.45490  0.18300  0.27190  1.0000 -0.1117161794
C   C51       1.0  0.70750  0.06550  0.64200  1.0000 0.1279476789
C   C52       1.0  0.91110  0.18300  0.72810  1.0000 -0.1117161794
C   C53       1.0  0.06550  0.42350  0.35800  1.0000 0.1279476789
C   C54       1.0  0.18300  0.45490  0.27190  1.0000 -0.1117161794
C   C55       1.0  0.06550  0.70750  0.64200  1.0000 0.1279476789
C   C56       1.0  0.18300  0.91110  0.72810  1.0000 -0.1117161794
C   C57       1.0  0.57650  0.93450  0.64200  1.0000 0.1279476789
C   C58       1.0  0.54510  0.81700  0.72810  1.0000 -0.1117161794
C   C59       1.0  0.29250  0.93450  0.35800  1.0000 0.1279476789
C   C60       1.0  0.08890  0.81700  0.27190  1.0000 -0.1117161794
C   C61       1.0  0.93450  0.29250  0.35800  1.0000 0.1279476789
C   C62       1.0  0.81700  0.08890  0.27190  1.0000 -0.1117161794
C   C63       1.0  0.93450  0.57650  0.64200  1.0000 0.1279476789
C   C64       1.0  0.81700  0.54510  0.72810  1.0000 -0.1117161794
C   C65       1.0  0.40310  0.00000  0.40310  1.0000 -0.3006660633
C   C66       1.0  0.59690  0.00000  0.59690  1.0000 -0.3006660633
C   C67       1.0  0.00000  0.40310  0.40310  1.0000 -0.3006660633
C   C68       1.0  0.00000  0.59690  0.59690  1.0000 -0.3006660633
O   O1        1.0  0.45330  0.96760  0.10190  1.0000 -0.5314287126
O   O2        1.0  0.47770  0.11020  0.10430  1.0000 -0.5047678145
O   O3        1.0  0.86570  0.35140  0.89810  1.0000 -0.5314287126
O   O4        1.0  0.00590  0.37340  0.89570  1.0000 -0.5047678145
O   O5        1.0  0.35140  0.45330  0.48570  1.0000 -0.5314287126
O   O6        1.0  0.37340  0.47770  0.36750  1.0000 -0.5047678145
O   O7        1.0  0.96760  0.86570  0.51430  1.0000 -0.5314287126
O   O8        1.0  0.11020  0.00590  0.63250  1.0000 -0.5047678145
O   O9        1.0  0.54670  0.64860  0.51430  1.0000 -0.5314287126
O   O10       1.0  0.52230  0.62660  0.63250  1.0000 -0.5047678145
O   O11       1.0  0.13430  0.03240  0.48570  1.0000 -0.5314287126
O   O12       1.0  0.99410  0.88980  0.36750  1.0000 -0.5056164853
O   O13       1.0  0.64860  0.13430  0.10190  1.0000 -0.5314287126
O   O14       1.0  0.62660  0.99410  0.10430  1.0000 -0.5056164853
O   O15       1.0  0.03240  0.54670  0.89810  1.0000 -0.5314287126
O   O16       1.0  0.88980  0.52230  0.89570  1.0000 -0.5047678145
O   O17       1.0  0.54670  0.03240  0.89810  1.0000 -0.5314287126
O   O18       1.0  0.52230  0.88980  0.89570  1.0000 -0.5056164853
O   O19       1.0  0.13430  0.64860  0.10190  1.0000 -0.5314287126
O   O20       1.0  0.99410  0.62660  0.10430  1.0000 -0.5047678145
O   O21       1.0  0.64860  0.54670  0.51430  1.0000 -0.5314287126
O   O22       1.0  0.62660  0.52230  0.63250  1.0000 -0.5047678145
O   O23       1.0  0.03240  0.13430  0.48570  1.0000 -0.5314287126
O   O24       1.0  0.88980  0.99410  0.36750  1.0000 -0.5056164853
O   O25       1.0  0.45330  0.35140  0.48570  1.0000 -0.5314287126
O   O26       1.0  0.47770  0.37340  0.36750  1.0000 -0.5047678145
O   O27       1.0  0.86570  0.96760  0.51430  1.0000 -0.5314287126
O   O28       1.0  0.00590  0.11020  0.63250  1.0000 -0.5047678145
O   O29       1.0  0.35140  0.86570  0.89810  1.0000 -0.5314287126
O   O30       1.0  0.37340  0.00590  0.89570  1.0000 -0.5047678145
O   O31       1.0  0.96760  0.45330  0.10190  1.0000 -0.5314287126
O   O32       1.0  0.11020  0.47770  0.10430  1.0000 -0.5047678145
