# DDEC6 charges by PACMAN v1.1 (https://github.com/mtap-research/PACMAN-charge/)
data_2021[Ni][dia]3[ASR]1
_chemical_formula_sum              "Ni2 H16 C24 N4 O8"
_cell_length_a       6.3135
_cell_length_b       10.3316
_cell_length_c       12.4615
_cell_angle_alpha    90
_cell_angle_beta     90
_cell_angle_gamma    90

_symmetry_space_group_name_H-M    "P 1"
_symmetry_Int_Tables_number       1

loop_
  _symmetry_equiv_pos_as_xyz
  'x, y, z'

loop_
  _atom_site_type_symbol
  _atom_site_label
  _atom_site_symmetry_multiplicity
  _atom_site_fract_x
  _atom_site_fract_y
  _atom_site_fract_z
  _atom_site_occupancy
  _atom_site_charge
Ni  Ni1       1.0  0.50000  0.23470  0.50000  1.0000 0.6906067837
Ni  Ni2       1.0  0.00000  0.73470  0.00000  1.0000 0.6906067837
H   H1        1.0  0.00328  0.35700  0.24908  1.0000 0.1381463591
H   H2        1.0  0.87381  0.49879  0.11566  1.0000 0.1038771603
H   H3        1.0  0.41157  0.69210  0.10817  1.0000 0.1206587735
H   H4        1.0  0.55362  0.55666  0.24006  1.0000 0.1381463591
H   H5        1.0  0.99672  0.35700  0.75092  1.0000 0.1381463591
H   H6        1.0  0.12619  0.49879  0.88434  1.0000 0.1038771603
H   H7        1.0  0.58843  0.69210  0.89183  1.0000 0.1206587735
H   H8        1.0  0.44638  0.55666  0.75994  1.0000 0.1381463591
H   H9        1.0  0.49672  0.85700  0.74908  1.0000 0.1381463591
H   H10       1.0  0.62619  0.99879  0.61566  1.0000 0.1038771603
H   H11       1.0  0.08843  0.19210  0.60817  1.0000 0.1206587735
H   H12       1.0  0.94638  0.05666  0.74006  1.0000 0.1381463591
H   H13       1.0  0.50328  0.85700  0.25092  1.0000 0.1381463591
H   H14       1.0  0.37381  0.99879  0.38434  1.0000 0.1038771603
H   H15       1.0  0.91157  0.19210  0.39183  1.0000 0.1206587735
H   H16       1.0  0.05362  0.05666  0.25994  1.0000 0.1381463591
C   C1        1.0  0.37200  0.36820  0.34900  1.0000 0.5397905219
C   C2        1.0  0.28900  0.44990  0.26180  1.0000 0.02298025
C   C3        1.0  0.08800  0.42620  0.22270  1.0000 -0.1490859133
C   C4        1.0  0.01400  0.51000  0.14160  1.0000 0.0813571769
C   C5        1.0  0.32800  0.62370  0.13680  1.0000 0.0881815139
C   C6        1.0  0.41200  0.54470  0.21670  1.0000 -0.1433968287
C   C7        1.0  0.62800  0.36820  0.65100  1.0000 0.5397905219
C   C8        1.0  0.71100  0.44990  0.73820  1.0000 0.02298025
C   C9        1.0  0.91200  0.42620  0.77730  1.0000 -0.1490859133
C   C10       1.0  0.98600  0.51000  0.85840  1.0000 0.0813571769
C   C11       1.0  0.67200  0.62370  0.86320  1.0000 0.0881815139
C   C12       1.0  0.58800  0.54470  0.78330  1.0000 -0.1433968287
C   C13       1.0  0.12800  0.86820  0.84900  1.0000 0.5397905219
C   C14       1.0  0.21100  0.94990  0.76180  1.0000 0.02298025
C   C15       1.0  0.41200  0.92620  0.72270  1.0000 -0.1490859133
C   C16       1.0  0.48600  0.01000  0.64160  1.0000 0.0813571769
C   C17       1.0  0.17200  0.12370  0.63680  1.0000 0.0881815139
C   C18       1.0  0.08800  0.04470  0.71670  1.0000 -0.1433968287
C   C19       1.0  0.87200  0.86820  0.15100  1.0000 0.5397905219
C   C20       1.0  0.78900  0.94990  0.23820  1.0000 0.02298025
C   C21       1.0  0.58800  0.92620  0.27730  1.0000 -0.1490859133
C   C22       1.0  0.51400  0.01000  0.35840  1.0000 0.0813571769
C   C23       1.0  0.82800  0.12370  0.36320  1.0000 0.0881815139
C   C24       1.0  0.91200  0.04470  0.28330  1.0000 -0.1433968287
N   N1        1.0  0.13100  0.60410  0.09960  1.0000 -0.2276862454
N   N2        1.0  0.86900  0.60410  0.90040  1.0000 -0.2276862454
N   N3        1.0  0.36900  0.10410  0.59960  1.0000 -0.2276862454
N   N4        1.0  0.63100  0.10410  0.40040  1.0000 -0.2276862454
O   O1        1.0  0.25660  0.28110  0.39380  1.0000 -0.5367114436
O   O2        1.0  0.56490  0.38490  0.38380  1.0000 -0.5215610754
O   O3        1.0  0.74340  0.28110  0.60620  1.0000 -0.5367114436
O   O4        1.0  0.43510  0.38490  0.61620  1.0000 -0.5215610754
O   O5        1.0  0.24340  0.78110  0.89380  1.0000 -0.5367114436
O   O6        1.0  0.93510  0.88490  0.88380  1.0000 -0.5215610754
O   O7        1.0  0.75660  0.78110  0.10620  1.0000 -0.5367114436
O   O8        1.0  0.06490  0.88490  0.11620  1.0000 -0.5215610754
