# DDEC6 charges by PACMAN v1.1 (https://github.com/mtap-research/PACMAN-charge/)
data_2021[Gd][nan]3[ASR]1
_chemical_formula_sum              "Gd2 H18 C24 O18"
_cell_length_a       8.8441
_cell_length_b       9.9166
_cell_length_c       10.3473
_cell_angle_alpha    77.769
_cell_angle_beta     82.908
_cell_angle_gamma    86.975

_symmetry_space_group_name_H-M    "P 1"
_symmetry_Int_Tables_number       1

loop_
  _symmetry_equiv_pos_as_xyz
  'x, y, z'

loop_
  _atom_site_type_symbol
  _atom_site_label
  _atom_site_symmetry_multiplicity
  _atom_site_fract_x
  _atom_site_fract_y
  _atom_site_fract_z
  _atom_site_occupancy
  _atom_site_charge
Gd  Gd1       1.0  0.24779  0.99733  0.48420  1.0000 1.9938197698
Gd  Gd2       1.0  0.75221  0.00267  0.51580  1.0000 1.9938197698
H   H1        1.0  0.24230  0.34975  0.84734  1.0000 0.1646522548
H   H2        1.0  0.39008  0.68122  0.95811  1.0000 0.1271295663
H   H3        1.0  0.07957  0.43387  0.20320  1.0000 0.1408323215
H   H4        1.0  0.88812  0.15577  0.15052  1.0000 0.1408323215
H   H5        1.0  0.91879  0.29122  0.19734  1.0000 0.1271295663
H   H6        1.0  0.61434  0.61789  0.67247  1.0000 0.1408323215
H   H7        1.0  0.55123  0.67688  0.79827  1.0000 0.1271295663
H   H8        1.0  0.33080  0.81029  0.10342  1.0000 0.1271295663
H   H9        1.0  0.43205  0.69894  0.18798  1.0000 0.1190580692
H   H10       1.0  0.75770  0.65025  0.15266  1.0000 0.1646522548
H   H11       1.0  0.60992  0.31878  0.04189  1.0000 0.1271295663
H   H12       1.0  0.92043  0.56613  0.79680  1.0000 0.1408323215
H   H13       1.0  0.11188  0.84423  0.84948  1.0000 0.1408323215
H   H14       1.0  0.08121  0.70878  0.80266  1.0000 0.1271295663
H   H15       1.0  0.38566  0.38211  0.32753  1.0000 0.1408323215
H   H16       1.0  0.44877  0.32312  0.20173  1.0000 0.1271295663
H   H17       1.0  0.66920  0.18971  0.89658  1.0000 0.1271295663
H   H18       1.0  0.56795  0.30106  0.81202  1.0000 0.1190580692
C   C1        1.0  0.14720  0.37360  0.02990  1.0000 0.2914435532
C   C2        1.0  0.24120  0.40470  0.91000  1.0000 -0.3622012172
C   C3        1.0  0.33220  0.51730  0.88520  1.0000 0.2775621529
C   C4        1.0  0.33010  0.60370  0.97600  1.0000 -0.3983589742
C   C5        1.0  0.23480  0.56860  0.09400  1.0000 0.2775621529
C   C6        1.0  0.14260  0.45480  0.12320  1.0000 -0.3775436316
C   C7        1.0  0.96760  0.21240  0.16590  1.0000 -0.171165112
C   C8        1.0  0.05760  0.12970  0.27140  1.0000 0.6261983778
C   C9        1.0  0.52230  0.64780  0.72110  1.0000 -0.171165112
C   C10       1.0  0.45100  0.76890  0.63360  1.0000 0.6421933736
C   C11       1.0  0.33160  0.74300  0.18640  1.0000 -0.1494305838
C   C12       1.0  0.29870  0.81440  0.30110  1.0000 0.6041507986
C   C13       1.0  0.85280  0.62640  0.97010  1.0000 0.2914435532
C   C14       1.0  0.75880  0.59530  0.09000  1.0000 -0.3622012172
C   C15       1.0  0.66780  0.48270  0.11480  1.0000 0.2775621529
C   C16       1.0  0.66990  0.39630  0.02400  1.0000 -0.3983589742
C   C17       1.0  0.76520  0.43140  0.90600  1.0000 0.2775621529
C   C18       1.0  0.85740  0.54520  0.87680  1.0000 -0.3775436316
C   C19       1.0  0.03240  0.78760  0.83410  1.0000 -0.171165112
C   C20       1.0  0.94240  0.87030  0.72860  1.0000 0.6261983778
C   C21       1.0  0.47770  0.35220  0.27890  1.0000 -0.171165112
C   C22       1.0  0.54900  0.23110  0.36640  1.0000 0.6421933736
C   C23       1.0  0.66840  0.25700  0.81360  1.0000 -0.1494305838
C   C24       1.0  0.70130  0.18560  0.69890  1.0000 0.6041507986
O   O1        1.0  0.98170  0.06800  0.37870  1.0000 -0.7329817746
O   O2        1.0  0.19850  0.12160  0.25750  1.0000 -0.5775710974
O   O3        1.0  0.31540  0.76940  0.61340  1.0000 -0.5938102338
O   O4        1.0  0.53720  0.86740  0.57950  1.0000 -0.7116727863
O   O5        1.0  0.40390  0.88560  0.32200  1.0000 -0.6243701015
O   O6        1.0  0.17010  0.81160  0.36680  1.0000 -0.5775710974
O   O7        1.0  0.06040  0.25970  0.04360  1.0000 -0.1592183147
O   O8        1.0  0.42350  0.53470  0.76470  1.0000 -0.171165112
O   O9        1.0  0.22200  0.64340  0.19350  1.0000 -0.1494305838
O   O10       1.0  0.01830  0.93200  0.62130  1.0000 -0.7329817746
O   O11       1.0  0.80150  0.87840  0.74250  1.0000 -0.5775710974
O   O12       1.0  0.68460  0.23060  0.38660  1.0000 -0.5938102338
O   O13       1.0  0.46280  0.13260  0.42050  1.0000 -0.7116727863
O   O14       1.0  0.59610  0.11440  0.67800  1.0000 -0.6243701015
O   O15       1.0  0.82990  0.18840  0.63320  1.0000 -0.5775710974
O   O16       1.0  0.93960  0.74030  0.95640  1.0000 -0.1592183147
O   O17       1.0  0.57650  0.46530  0.23530  1.0000 -0.171165112
O   O18       1.0  0.77800  0.35660  0.80650  1.0000 -0.1494305838
