# DDEC6 charges by PACMAN v1.1 (https://github.com/mtap-research/PACMAN-charge/)
data_2021[Cd][nan]3[ASR]4
_chemical_formula_sum              "Cd8 H132 C216 N24 O24"
_cell_length_a       16.3757
_cell_length_b       16.3757
_cell_length_c       24.672
_cell_angle_alpha    87.2016
_cell_angle_beta     92.7984
_cell_angle_gamma    86.4195

_symmetry_space_group_name_H-M    "P 1"
_symmetry_Int_Tables_number       1

loop_
  _symmetry_equiv_pos_as_xyz
  'x, y, z'

loop_
  _atom_site_type_symbol
  _atom_site_label
  _atom_site_symmetry_multiplicity
  _atom_site_fract_x
  _atom_site_fract_y
  _atom_site_fract_z
  _atom_site_occupancy
  _atom_site_charge
Cd  Cd1       1.0  0.40161  0.10817  0.17069  1.0000 0.8962059193
Cd  Cd2       1.0  0.08670  0.57642  0.74102  1.0000 0.9324293011
Cd  Cd3       1.0  0.10817  0.40161  0.32931  1.0000 0.8962059193
Cd  Cd4       1.0  0.57642  0.08670  0.75898  1.0000 0.9324293011
Cd  Cd5       1.0  0.59839  0.89183  0.82931  1.0000 0.8962059193
Cd  Cd6       1.0  0.91330  0.42358  0.25898  1.0000 0.9324293011
Cd  Cd7       1.0  0.89183  0.59839  0.67069  1.0000 0.8962059193
Cd  Cd8       1.0  0.42358  0.91330  0.24102  1.0000 0.9324293011
H   H1        1.0  0.21520  0.35660  0.96846  1.0000 0.1399665635
H   H2        1.0  0.16760  0.21926  0.47650  1.0000 0.1096536755
H   H3        1.0  0.39514  0.17660  0.04207  1.0000 0.1188885561
H   H4        1.0  0.37173  0.00771  0.36508  1.0000 0.1096536755
H   H5        1.0  0.42244  0.19862  0.80641  1.0000 0.1096536755
H   H6        1.0  0.20730  0.17850  0.29876  1.0000 0.1188885561
H   H7        1.0  0.01614  0.43698  0.53142  1.0000 0.1188885561
H   H8        1.0  0.06165  0.31521  0.49833  1.0000 0.1188885561
H   H9        1.0  0.32549  0.33493  0.82593  1.0000 0.1288044551
H   H10       1.0  0.44792  0.25972  0.96652  1.0000 0.1399665635
H   H11       1.0  0.14047  0.18247  0.38085  1.0000 0.1188885561
H   H12       1.0  0.16510  0.97550  0.48419  1.0000 0.1188885561
H   H13       1.0  0.32503  0.29847  0.20638  1.0000 0.1288044551
H   H14       1.0  0.30445  0.00521  0.44523  1.0000 0.1096536755
H   H15       1.0  0.23697  0.46615  0.81066  1.0000 0.1096536755
H   H16       1.0  0.09736  0.28422  0.93107  1.0000 0.1188885561
H   H17       1.0  0.07915  0.10251  0.60720  1.0000 0.1188885561
H   H18       1.0  0.15065  0.96367  0.65310  1.0000 0.1188885561
H   H19       1.0  0.00653  0.78069  0.55491  1.0000 0.1096536755
H   H20       1.0  0.12860  0.22258  0.64863  1.0000 0.1096536755
H   H21       1.0  0.07142  0.33906  0.68244  1.0000 0.1096536755
H   H22       1.0  0.10626  0.85246  0.69505  1.0000 0.1188885561
H   H23       1.0  0.95434  0.28838  0.92555  1.0000 0.1016225503
H   H24       1.0  0.71789  0.21227  0.82433  1.0000 0.1288044551
H   H25       1.0  0.25916  0.44672  0.03925  1.0000 0.1188885561
H   H26       1.0  0.25420  0.42862  0.20373  1.0000 0.1096536755
H   H27       1.0  0.04335  0.90181  0.51216  1.0000 0.1188885561
H   H28       1.0  0.94445  0.46709  0.80541  1.0000 0.1399665635
H   H29       1.0  0.55196  0.35942  0.94245  1.0000 0.1288044551
H   H30       1.0  0.88105  0.37897  0.86339  1.0000 0.1096536755
H   H31       1.0  0.24873  0.51101  0.12063  1.0000 0.1016225503
H   H32       1.0  0.76663  0.26353  0.89986  1.0000 0.1188885561
H   H33       1.0  0.69143  0.37419  0.94255  1.0000 0.1096536755
H   H34       1.0  0.35660  0.21520  0.53154  1.0000 0.1399665635
H   H35       1.0  0.21926  0.16760  0.02350  1.0000 0.1096536755
H   H36       1.0  0.17660  0.39514  0.45793  1.0000 0.1188885561
H   H37       1.0  0.00771  0.37173  0.13492  1.0000 0.1096536755
H   H38       1.0  0.19862  0.42244  0.69359  1.0000 0.1096536755
H   H39       1.0  0.17850  0.20730  0.20124  1.0000 0.1188885561
H   H40       1.0  0.43698  0.01614  0.96858  1.0000 0.1188885561
H   H41       1.0  0.31521  0.06165  0.00167  1.0000 0.1188885561
H   H42       1.0  0.33493  0.32549  0.67407  1.0000 0.1288044551
H   H43       1.0  0.25972  0.44792  0.53348  1.0000 0.1399665635
H   H44       1.0  0.18247  0.14047  0.11915  1.0000 0.1188885561
H   H45       1.0  0.97550  0.16510  0.01581  1.0000 0.1188885561
H   H46       1.0  0.29847  0.32503  0.29362  1.0000 0.1288044551
H   H47       1.0  0.00521  0.30445  0.05477  1.0000 0.1096536755
H   H48       1.0  0.46615  0.23697  0.68934  1.0000 0.1096536755
H   H49       1.0  0.28422  0.09736  0.56893  1.0000 0.1188885561
H   H50       1.0  0.10251  0.07915  0.89280  1.0000 0.1188885561
H   H51       1.0  0.96367  0.15065  0.84690  1.0000 0.1188885561
H   H52       1.0  0.78069  0.00653  0.94509  1.0000 0.1096536755
H   H53       1.0  0.22258  0.12860  0.85137  1.0000 0.1096536755
H   H54       1.0  0.33906  0.07142  0.81756  1.0000 0.1096536755
H   H55       1.0  0.85246  0.10626  0.80495  1.0000 0.1188885561
H   H56       1.0  0.28838  0.95434  0.57445  1.0000 0.1016225503
H   H57       1.0  0.21227  0.71789  0.67567  1.0000 0.1288044551
H   H58       1.0  0.44672  0.25916  0.46075  1.0000 0.1188885561
H   H59       1.0  0.42862  0.25420  0.29627  1.0000 0.1096536755
H   H60       1.0  0.90181  0.04335  0.98784  1.0000 0.1188885561
H   H61       1.0  0.46709  0.94445  0.69459  1.0000 0.1399665635
H   H62       1.0  0.35942  0.55196  0.55755  1.0000 0.1288044551
H   H63       1.0  0.37897  0.88105  0.63661  1.0000 0.1096536755
H   H64       1.0  0.51101  0.24873  0.37937  1.0000 0.1016225503
H   H65       1.0  0.26353  0.76663  0.60014  1.0000 0.1188885561
H   H66       1.0  0.37419  0.69143  0.55745  1.0000 0.1096536755
H   H67       1.0  0.78480  0.64340  0.03154  1.0000 0.1399665635
H   H68       1.0  0.83240  0.78074  0.52350  1.0000 0.1096536755
H   H69       1.0  0.60486  0.82340  0.95793  1.0000 0.1188885561
H   H70       1.0  0.62827  0.99229  0.63492  1.0000 0.1096536755
H   H71       1.0  0.57756  0.80138  0.19359  1.0000 0.1096536755
H   H72       1.0  0.79270  0.82150  0.70124  1.0000 0.1188885561
H   H73       1.0  0.98386  0.56302  0.46858  1.0000 0.1188885561
H   H74       1.0  0.93835  0.68479  0.50167  1.0000 0.1188885561
H   H75       1.0  0.67451  0.66507  0.17407  1.0000 0.1288044551
H   H76       1.0  0.55208  0.74028  0.03348  1.0000 0.1399665635
H   H77       1.0  0.85953  0.81753  0.61915  1.0000 0.1188885561
H   H78       1.0  0.83490  0.02450  0.51581  1.0000 0.1188885561
H   H79       1.0  0.67497  0.70153  0.79362  1.0000 0.1288044551
H   H80       1.0  0.69555  0.99479  0.55477  1.0000 0.1096536755
H   H81       1.0  0.76303  0.53385  0.18934  1.0000 0.1096536755
H   H82       1.0  0.90264  0.71578  0.06893  1.0000 0.1188885561
H   H83       1.0  0.92085  0.89749  0.39280  1.0000 0.1188885561
H   H84       1.0  0.84935  0.03633  0.34690  1.0000 0.1188885561
H   H85       1.0  0.99347  0.21931  0.44509  1.0000 0.1096536755
H   H86       1.0  0.87140  0.77742  0.35137  1.0000 0.1096536755
H   H87       1.0  0.92858  0.66094  0.31756  1.0000 0.1096536755
H   H88       1.0  0.89374  0.14754  0.30495  1.0000 0.1188885561
H   H89       1.0  0.04566  0.71162  0.07445  1.0000 0.1016225503
H   H90       1.0  0.28211  0.78773  0.17567  1.0000 0.1288044551
H   H91       1.0  0.74084  0.55328  0.96075  1.0000 0.1188885561
H   H92       1.0  0.74580  0.57138  0.79627  1.0000 0.1096536755
H   H93       1.0  0.95665  0.09819  0.48784  1.0000 0.1188885561
H   H94       1.0  0.05555  0.53291  0.19459  1.0000 0.1399665635
H   H95       1.0  0.44804  0.64058  0.05755  1.0000 0.1288044551
H   H96       1.0  0.11895  0.62103  0.13661  1.0000 0.1096536755
H   H97       1.0  0.75127  0.48899  0.87937  1.0000 0.1016225503
H   H98       1.0  0.23337  0.73647  0.10014  1.0000 0.1188885561
H   H99       1.0  0.30857  0.62581  0.05745  1.0000 0.1096536755
H   H100      1.0  0.64340  0.78480  0.46846  1.0000 0.1399665635
H   H101      1.0  0.78074  0.83240  0.97650  1.0000 0.1096536755
H   H102      1.0  0.82340  0.60486  0.54207  1.0000 0.1188885561
H   H103      1.0  0.99229  0.62827  0.86508  1.0000 0.1096536755
H   H104      1.0  0.80138  0.57756  0.30641  1.0000 0.1096536755
H   H105      1.0  0.82150  0.79270  0.79876  1.0000 0.1188885561
H   H106      1.0  0.56302  0.98386  0.03142  1.0000 0.1188885561
H   H107      1.0  0.68479  0.93835  0.99833  1.0000 0.1188885561
H   H108      1.0  0.66507  0.67451  0.32593  1.0000 0.1288044551
H   H109      1.0  0.74028  0.55208  0.46652  1.0000 0.1399665635
H   H110      1.0  0.81753  0.85953  0.88085  1.0000 0.1188885561
H   H111      1.0  0.02450  0.83490  0.98419  1.0000 0.1188885561
H   H112      1.0  0.70153  0.67497  0.70638  1.0000 0.1288044551
H   H113      1.0  0.99479  0.69555  0.94523  1.0000 0.1096536755
H   H114      1.0  0.53385  0.76303  0.31066  1.0000 0.1096536755
H   H115      1.0  0.71578  0.90264  0.43107  1.0000 0.1188885561
H   H116      1.0  0.89749  0.92085  0.10720  1.0000 0.1188885561
H   H117      1.0  0.03633  0.84935  0.15310  1.0000 0.1188885561
H   H118      1.0  0.21931  0.99347  0.05491  1.0000 0.1096536755
H   H119      1.0  0.77742  0.87140  0.14863  1.0000 0.1096536755
H   H120      1.0  0.66094  0.92858  0.18244  1.0000 0.1096536755
H   H121      1.0  0.14754  0.89374  0.19505  1.0000 0.1188885561
H   H122      1.0  0.71162  0.04566  0.42555  1.0000 0.1016225503
H   H123      1.0  0.78773  0.28211  0.32433  1.0000 0.1288044551
H   H124      1.0  0.55328  0.74084  0.53925  1.0000 0.1188885561
H   H125      1.0  0.57138  0.74580  0.70373  1.0000 0.1096536755
H   H126      1.0  0.09819  0.95665  0.01216  1.0000 0.1188885561
H   H127      1.0  0.53291  0.05555  0.30541  1.0000 0.1399665635
H   H128      1.0  0.64058  0.44804  0.44245  1.0000 0.1288044551
H   H129      1.0  0.62103  0.11895  0.36339  1.0000 0.1096536755
H   H130      1.0  0.48899  0.75127  0.62063  1.0000 0.1016225503
H   H131      1.0  0.73647  0.23337  0.39986  1.0000 0.1188885561
H   H132      1.0  0.62581  0.30857  0.44255  1.0000 0.1096536755
C   C1        1.0  0.26020  0.33940  0.94940  1.0000 -0.2791872821
C   C2        1.0  0.25830  0.34830  0.89390  1.0000 0.2078378038
C   C3        1.0  0.15540  0.17100  0.49500  1.0000 -0.2111661659
C   C4        1.0  0.33140  0.30380  0.97690  1.0000 0.2078378038
C   C5        1.0  0.10600  0.37300  0.87300  1.0000 0.1096536755
C   C6        1.0  0.17490  0.09750  0.47320  1.0000 0.0773426411
C   C7        1.0  0.36950  0.21910  0.05990  1.0000 0.1288044551
C   C8        1.0  0.32460  0.04160  0.36790  1.0000 -0.1008502978
C   C9        1.0  0.46910  0.21910  0.82220  1.0000 0.0773426411
C   C10       1.0  0.22680  0.14420  0.32830  1.0000 -0.0812419853
C   C11       1.0  0.29520  0.09180  0.32370  1.0000 -0.0431714444
C   C12       1.0  0.11790  0.17510  0.54420  1.0000 0.0773426411
C   C13       1.0  0.59430  0.24050  0.84270  1.0000 0.1188885561
C   C14       1.0  0.03590  0.39350  0.55510  1.0000 -0.1008502978
C   C15       1.0  0.21500  0.09440  0.42100  1.0000 0.069648691
C   C16       1.0  0.06410  0.32050  0.53570  1.0000 -0.1498274954
C   C17       1.0  0.32740  0.32680  0.86360  1.0000 -0.2982265777
C   C18       1.0  0.05480  0.80400  0.63130  1.0000 -0.0290037231
C   C19       1.0  0.40000  0.28200  0.94820  1.0000 -0.2791872821
C   C20       1.0  0.18600  0.14640  0.37770  1.0000 -0.1498274954
C   C21       1.0  0.15470  0.02530  0.49990  1.0000 -0.2111661659
C   C22       1.0  0.03750  0.40090  0.61130  1.0000 -0.0290037231
C   C23       1.0  0.32720  0.29740  0.12320  1.0000 0.1288044551
C   C24       1.0  0.09550  0.25510  0.56840  1.0000 0.069648691
C   C25       1.0  0.31120  0.32840  0.17390  1.0000 -0.1585881272
C   C26       1.0  0.28510  0.04070  0.41620  1.0000 -0.1585881272
C   C27       1.0  0.18910  0.44690  0.82390  1.0000 0.0598811727
C   C28       1.0  0.06740  0.32060  0.90650  1.0000 -0.1852833754
C   C29       1.0  0.05960  0.42980  0.83370  1.0000 0.1504644328
C   C30       1.0  0.39590  0.29390  0.89120  1.0000 0.2078378038
C   C31       1.0  0.10140  0.10100  0.57330  1.0000 -0.2111661659
C   C32       1.0  0.54800  0.28440  0.87810  1.0000 0.0773426411
C   C33       1.0  0.33740  0.09300  0.27150  1.0000 0.5606882148
C   C34       1.0  0.31010  0.34030  0.07360  1.0000 0.0878161364
C   C35       1.0  0.11920  0.92900  0.63330  1.0000 -0.1498274954
C   C36       1.0  0.02900  0.72440  0.65730  1.0000 0.5673176222
C   C37       1.0  0.03410  0.81870  0.57440  1.0000 -0.1086069695
C   C38       1.0  0.10290  0.26390  0.62550  1.0000 -0.1658919803
C   C39       1.0  0.09810  0.94990  0.57770  1.0000 0.0598811727
C   C40       1.0  0.11880  0.02680  0.55020  1.0000 0.069648691
C   C41       1.0  0.07100  0.33460  0.64500  1.0000 -0.1276309541
C   C42       1.0  0.09490  0.86110  0.65780  1.0000 -0.1008502978
C   C43       1.0  0.98210  0.32310  0.90300  1.0000 -0.1190200164
C   C44       1.0  0.68410  0.23830  0.84830  1.0000 -0.1365770637
C   C45       1.0  0.27480  0.41880  0.07220  1.0000 -0.2026411532
C   C46       1.0  0.27320  0.40700  0.17220  1.0000 -0.1086069695
C   C47       1.0  0.05640  0.89160  0.54910  1.0000 -0.1585881272
C   C48       1.0  0.97510  0.43150  0.83020  1.0000 -0.1798212271
C   C49       1.0  0.99670  0.47570  0.63330  1.0000 0.5606882148
C   C50       1.0  0.58460  0.33180  0.91850  1.0000 -0.1658919803
C   C51       1.0  0.93790  0.37830  0.86510  1.0000 -0.1190200164
C   C52       1.0  0.26310  0.45510  0.12070  1.0000 -0.1086069695
C   C53       1.0  0.71180  0.27560  0.88920  1.0000 -0.1008502978
C   C54       1.0  0.66560  0.33640  0.92180  1.0000 -0.1008502978
C   C55       1.0  0.33940  0.26020  0.55060  1.0000 -0.2791872821
C   C56       1.0  0.34830  0.25830  0.60610  1.0000 0.2078378038
C   C57       1.0  0.17100  0.15540  0.00500  1.0000 -0.2111661659
C   C58       1.0  0.30380  0.33140  0.52310  1.0000 0.2078378038
C   C59       1.0  0.37300  0.10600  0.62700  1.0000 0.1096536755
C   C60       1.0  0.09750  0.17490  0.02680  1.0000 0.0773426411
C   C61       1.0  0.21910  0.36950  0.44010  1.0000 0.1288044551
C   C62       1.0  0.04160  0.32460  0.13210  1.0000 -0.1008502978
C   C63       1.0  0.21910  0.46910  0.67780  1.0000 0.0773426411
C   C64       1.0  0.14420  0.22680  0.17170  1.0000 -0.0812419853
C   C65       1.0  0.09180  0.29520  0.17630  1.0000 -0.0431714444
C   C66       1.0  0.17510  0.11790  0.95580  1.0000 0.0773426411
C   C67       1.0  0.24050  0.59430  0.65730  1.0000 0.1188885561
C   C68       1.0  0.39350  0.03590  0.94490  1.0000 -0.1008502978
C   C69       1.0  0.09440  0.21500  0.07900  1.0000 0.069648691
C   C70       1.0  0.32050  0.06410  0.96430  1.0000 -0.1498274954
C   C71       1.0  0.32680  0.32740  0.63640  1.0000 -0.2982265777
C   C72       1.0  0.80400  0.05480  0.86870  1.0000 -0.0290037231
C   C73       1.0  0.28200  0.40000  0.55180  1.0000 -0.2791872821
C   C74       1.0  0.14640  0.18600  0.12230  1.0000 -0.1498274954
C   C75       1.0  0.02530  0.15470  0.00010  1.0000 -0.2111661659
C   C76       1.0  0.40090  0.03750  0.88870  1.0000 -0.0290037231
C   C77       1.0  0.29740  0.32720  0.37680  1.0000 0.1288044551
C   C78       1.0  0.25510  0.09550  0.93160  1.0000 0.069648691
C   C79       1.0  0.32840  0.31120  0.32610  1.0000 -0.1585881272
C   C80       1.0  0.04070  0.28510  0.08380  1.0000 -0.1585881272
C   C81       1.0  0.44690  0.18910  0.67610  1.0000 0.0541381263
C   C82       1.0  0.32060  0.06740  0.59350  1.0000 -0.1798212271
C   C83       1.0  0.42980  0.05960  0.66630  1.0000 0.1504644328
C   C84       1.0  0.29390  0.39590  0.60880  1.0000 0.2078378038
C   C85       1.0  0.10100  0.10140  0.92670  1.0000 -0.2111661659
C   C86       1.0  0.28440  0.54800  0.62190  1.0000 0.0773426411
C   C87       1.0  0.09300  0.33740  0.22850  1.0000 0.5606882148
C   C88       1.0  0.34030  0.31010  0.42640  1.0000 0.0878161364
C   C89       1.0  0.92900  0.11920  0.86670  1.0000 -0.1498274954
C   C90       1.0  0.72440  0.02900  0.84270  1.0000 0.5673176222
C   C91       1.0  0.81870  0.03410  0.92560  1.0000 -0.1086069695
C   C92       1.0  0.26390  0.10290  0.87450  1.0000 -0.1658919803
C   C93       1.0  0.94990  0.09810  0.92230  1.0000 0.0598811727
C   C94       1.0  0.02680  0.11880  0.94980  1.0000 0.069648691
C   C95       1.0  0.33460  0.07100  0.85500  1.0000 -0.1276309541
C   C96       1.0  0.86110  0.09490  0.84220  1.0000 -0.1008502978
C   C97       1.0  0.32310  0.98210  0.59700  1.0000 -0.1190200164
C   C98       1.0  0.23830  0.68410  0.65170  1.0000 -0.1365770637
C   C99       1.0  0.41880  0.27480  0.42780  1.0000 -0.2026411532
C   C100      1.0  0.40700  0.27320  0.32780  1.0000 -0.1086069695
C   C101      1.0  0.89160  0.05640  0.95090  1.0000 -0.1585881272
C   C102      1.0  0.43150  0.97510  0.66980  1.0000 -0.1798212271
C   C103      1.0  0.47570  0.99670  0.86670  1.0000 0.5606882148
C   C104      1.0  0.33180  0.58460  0.58150  1.0000 -0.1658919803
C   C105      1.0  0.37830  0.93790  0.63490  1.0000 -0.1190200164
C   C106      1.0  0.45510  0.26310  0.37930  1.0000 -0.1086069695
C   C107      1.0  0.27560  0.71180  0.61080  1.0000 -0.1008502978
C   C108      1.0  0.33640  0.66560  0.57820  1.0000 -0.1008502978
C   C109      1.0  0.73980  0.66060  0.05060  1.0000 -0.2791872821
C   C110      1.0  0.74170  0.65170  0.10610  1.0000 0.2078378038
C   C111      1.0  0.84460  0.82900  0.50500  1.0000 -0.2111661659
C   C112      1.0  0.66860  0.69620  0.02310  1.0000 0.2078378038
C   C113      1.0  0.89400  0.62700  0.12700  1.0000 0.1096536755
C   C114      1.0  0.82510  0.90250  0.52680  1.0000 0.0773426411
C   C115      1.0  0.63050  0.78090  0.94010  1.0000 0.1288044551
C   C116      1.0  0.67540  0.95840  0.63210  1.0000 -0.1008502978
C   C117      1.0  0.53090  0.78090  0.17780  1.0000 0.0773426411
C   C118      1.0  0.77320  0.85580  0.67170  1.0000 -0.0812419853
C   C119      1.0  0.70480  0.90820  0.67630  1.0000 -0.0431714444
C   C120      1.0  0.88210  0.82490  0.45580  1.0000 0.0773426411
C   C121      1.0  0.40570  0.75950  0.15730  1.0000 0.1188885561
C   C122      1.0  0.96410  0.60650  0.44490  1.0000 -0.1008502978
C   C123      1.0  0.78500  0.90560  0.57900  1.0000 0.069648691
C   C124      1.0  0.93590  0.67950  0.46430  1.0000 -0.1498274954
C   C125      1.0  0.67260  0.67320  0.13640  1.0000 -0.2982265777
C   C126      1.0  0.94520  0.19600  0.36870  1.0000 -0.0290037231
C   C127      1.0  0.60000  0.71800  0.05180  1.0000 -0.2791872821
C   C128      1.0  0.81400  0.85360  0.62230  1.0000 -0.1498274954
C   C129      1.0  0.84530  0.97470  0.50010  1.0000 -0.2111661659
C   C130      1.0  0.96250  0.59910  0.38870  1.0000 -0.0290037231
C   C131      1.0  0.67280  0.70260  0.87680  1.0000 0.1288044551
C   C132      1.0  0.90450  0.74490  0.43160  1.0000 0.069648691
C   C133      1.0  0.68880  0.67160  0.82610  1.0000 -0.1585881272
C   C134      1.0  0.71490  0.95930  0.58380  1.0000 -0.1585881272
C   C135      1.0  0.81090  0.55310  0.17610  1.0000 0.0598811727
C   C136      1.0  0.93260  0.67940  0.09350  1.0000 -0.1798212271
C   C137      1.0  0.94040  0.57020  0.16630  1.0000 0.1504644328
C   C138      1.0  0.60410  0.70610  0.10880  1.0000 0.2078378038
C   C139      1.0  0.89860  0.89900  0.42670  1.0000 -0.2111661659
C   C140      1.0  0.45200  0.71560  0.12190  1.0000 0.0773426411
C   C141      1.0  0.66260  0.90700  0.72850  1.0000 0.5606882148
C   C142      1.0  0.68990  0.65970  0.92640  1.0000 0.0878161364
C   C143      1.0  0.88080  0.07100  0.36670  1.0000 -0.1498274954
C   C144      1.0  0.97100  0.27560  0.34270  1.0000 0.5673176222
C   C145      1.0  0.96590  0.18130  0.42560  1.0000 -0.1086069695
C   C146      1.0  0.89710  0.73610  0.37450  1.0000 -0.1585881272
C   C147      1.0  0.90190  0.05010  0.42230  1.0000 0.0598811727
C   C148      1.0  0.88120  0.97320  0.44980  1.0000 0.069648691
C   C149      1.0  0.92900  0.66540  0.35500  1.0000 -0.1276309541
C   C150      1.0  0.90510  0.13890  0.34220  1.0000 -0.1008502978
C   C151      1.0  0.01790  0.67690  0.09700  1.0000 -0.1190200164
C   C152      1.0  0.31590  0.76170  0.15170  1.0000 -0.1365770637
C   C153      1.0  0.72520  0.58120  0.92780  1.0000 -0.2026411532
C   C154      1.0  0.72680  0.59300  0.82780  1.0000 -0.1086069695
C   C155      1.0  0.94360  0.10840  0.45090  1.0000 -0.1585881272
C   C156      1.0  0.02490  0.56850  0.16980  1.0000 -0.1798212271
C   C157      1.0  0.00330  0.52430  0.36670  1.0000 0.5606882148
C   C158      1.0  0.41540  0.66820  0.08150  1.0000 -0.1658919803
C   C159      1.0  0.06210  0.62170  0.13490  1.0000 -0.1190200164
C   C160      1.0  0.73690  0.54490  0.87930  1.0000 -0.1086069695
C   C161      1.0  0.28820  0.72440  0.11080  1.0000 -0.1008502978
C   C162      1.0  0.33440  0.66360  0.07820  1.0000 -0.1008502978
C   C163      1.0  0.66060  0.73980  0.44940  1.0000 -0.2791872821
C   C164      1.0  0.65170  0.74170  0.39390  1.0000 0.2078378038
C   C165      1.0  0.82900  0.84460  0.99500  1.0000 -0.2111661659
C   C166      1.0  0.69620  0.66860  0.47690  1.0000 0.2078378038
C   C167      1.0  0.62700  0.89400  0.37300  1.0000 0.1096536755
C   C168      1.0  0.90250  0.82510  0.97320  1.0000 0.0773426411
C   C169      1.0  0.78090  0.63050  0.55990  1.0000 0.1288044551
C   C170      1.0  0.95840  0.67540  0.86790  1.0000 -0.1008502978
C   C171      1.0  0.78090  0.53090  0.32220  1.0000 0.0773426411
C   C172      1.0  0.85580  0.77320  0.82830  1.0000 -0.0812419853
C   C173      1.0  0.90820  0.70480  0.82370  1.0000 -0.0431714444
C   C174      1.0  0.82490  0.88210  0.04420  1.0000 0.0773426411
C   C175      1.0  0.75950  0.40570  0.34270  1.0000 0.1188885561
C   C176      1.0  0.60650  0.96410  0.05510  1.0000 -0.1008502978
C   C177      1.0  0.90560  0.78500  0.92100  1.0000 0.069648691
C   C178      1.0  0.67950  0.93590  0.03570  1.0000 -0.1498274954
C   C179      1.0  0.67320  0.67260  0.36360  1.0000 -0.2982265777
C   C180      1.0  0.19600  0.94520  0.13130  1.0000 -0.0290037231
C   C181      1.0  0.71800  0.60000  0.44820  1.0000 -0.2791872821
C   C182      1.0  0.85360  0.81400  0.87770  1.0000 -0.1498274954
C   C183      1.0  0.97470  0.84530  0.99990  1.0000 -0.2111661659
C   C184      1.0  0.59910  0.96250  0.11130  1.0000 -0.0290037231
C   C185      1.0  0.70260  0.67280  0.62320  1.0000 0.1288044551
C   C186      1.0  0.74490  0.90450  0.06840  1.0000 0.069648691
C   C187      1.0  0.67160  0.68880  0.67390  1.0000 -0.1585881272
C   C188      1.0  0.95930  0.71490  0.91620  1.0000 -0.1585881272
C   C189      1.0  0.55310  0.81090  0.32390  1.0000 0.0598811727
C   C190      1.0  0.67940  0.93260  0.40650  1.0000 -0.1798212271
C   C191      1.0  0.57020  0.94040  0.33370  1.0000 0.1504644328
C   C192      1.0  0.70610  0.60410  0.39120  1.0000 0.2078378038
C   C193      1.0  0.89900  0.89860  0.07330  1.0000 -0.2111661659
C   C194      1.0  0.71560  0.45200  0.37810  1.0000 0.0773426411
C   C195      1.0  0.90700  0.66260  0.77150  1.0000 0.5606882148
C   C196      1.0  0.65970  0.68990  0.57360  1.0000 0.0878161364
C   C197      1.0  0.07100  0.88080  0.13330  1.0000 -0.1498274954
C   C198      1.0  0.27560  0.97100  0.15730  1.0000 0.5673176222
C   C199      1.0  0.18130  0.96590  0.07440  1.0000 -0.1086069695
C   C200      1.0  0.73610  0.89710  0.12550  1.0000 -0.1585881272
C   C201      1.0  0.05010  0.90190  0.07770  1.0000 0.0598811727
C   C202      1.0  0.97320  0.88120  0.05020  1.0000 0.069648691
C   C203      1.0  0.66540  0.92900  0.14500  1.0000 -0.1276309541
C   C204      1.0  0.13890  0.90510  0.15780  1.0000 -0.1008502978
C   C205      1.0  0.67690  0.01790  0.40300  1.0000 -0.1190200164
C   C206      1.0  0.76170  0.31590  0.34830  1.0000 -0.1365770637
C   C207      1.0  0.58120  0.72520  0.57220  1.0000 -0.2026411532
C   C208      1.0  0.59300  0.72680  0.67220  1.0000 -0.1086069695
C   C209      1.0  0.10840  0.94360  0.04910  1.0000 -0.1585881272
C   C210      1.0  0.56850  0.02490  0.33020  1.0000 -0.1798212271
C   C211      1.0  0.52430  0.00330  0.13330  1.0000 0.5606882148
C   C212      1.0  0.66820  0.41540  0.41850  1.0000 -0.1658919803
C   C213      1.0  0.62170  0.06210  0.36510  1.0000 -0.1190200164
C   C214      1.0  0.54490  0.73690  0.62070  1.0000 -0.1086069695
C   C215      1.0  0.72440  0.28820  0.38920  1.0000 -0.1008502978
C   C216      1.0  0.66360  0.33440  0.42180  1.0000 -0.1008502978
N   N1        1.0  0.36380  0.21840  0.11280  1.0000 -0.340478254
N   N2        1.0  0.18810  0.38590  0.86500  1.0000 -0.0616179379
N   N3        1.0  0.46730  0.26910  0.86340  1.0000 -0.0431714444
N   N4        1.0  0.54320  0.20160  0.80620  1.0000 -0.3612782783
N   N5        1.0  0.11510  0.47450  0.80590  1.0000 -0.3612782783
N   N6        1.0  0.33390  0.28850  0.03390  1.0000 -0.0616179379
N   N7        1.0  0.21840  0.36380  0.38720  1.0000 -0.340478254
N   N8        1.0  0.38590  0.18810  0.63500  1.0000 -0.0616179379
N   N9        1.0  0.26910  0.46730  0.63660  1.0000 -0.0431714444
N   N10       1.0  0.20160  0.54320  0.69380  1.0000 -0.3612782783
N   N11       1.0  0.47450  0.11510  0.69410  1.0000 -0.3612782783
N   N12       1.0  0.28850  0.33390  0.46610  1.0000 -0.0616179379
N   N13       1.0  0.63620  0.78160  0.88720  1.0000 -0.340478254
N   N14       1.0  0.81190  0.61410  0.13500  1.0000 -0.0616179379
N   N15       1.0  0.53270  0.73090  0.13660  1.0000 -0.0431714444
N   N16       1.0  0.45680  0.79840  0.19380  1.0000 -0.3612782783
N   N17       1.0  0.88490  0.52550  0.19410  1.0000 -0.3612782783
N   N18       1.0  0.66610  0.71150  0.96610  1.0000 -0.0616179379
N   N19       1.0  0.78160  0.63620  0.61280  1.0000 -0.340478254
N   N20       1.0  0.61410  0.81190  0.36500  1.0000 -0.0616179379
N   N21       1.0  0.73090  0.53270  0.36340  1.0000 -0.0431714444
N   N22       1.0  0.79840  0.45680  0.30620  1.0000 -0.3612782783
N   N23       1.0  0.52550  0.88490  0.30590  1.0000 -0.3612782783
N   N24       1.0  0.71150  0.66610  0.53390  1.0000 -0.0616179379
O   O1        1.0  0.39980  0.04480  0.26650  1.0000 -0.5841984726
O   O2        1.0  0.31380  0.14460  0.23400  1.0000 -0.522164417
O   O3        1.0  0.97540  0.68880  0.63380  1.0000 -0.5340149231
O   O4        1.0  0.06690  0.70350  0.70180  1.0000 -0.5630734838
O   O5        1.0  0.94190  0.51430  0.60370  1.0000 -0.5394608802
O   O6        1.0  0.01420  0.49380  0.68170  1.0000 -0.5977985687
O   O7        1.0  0.04480  0.39980  0.23350  1.0000 -0.5841984726
O   O8        1.0  0.14460  0.31380  0.26600  1.0000 -0.522164417
O   O9        1.0  0.68880  0.97540  0.86620  1.0000 -0.5340149231
O   O10       1.0  0.70350  0.06690  0.79820  1.0000 -0.5630734838
O   O11       1.0  0.51430  0.94190  0.89630  1.0000 -0.5394608802
O   O12       1.0  0.49380  0.01420  0.81830  1.0000 -0.5977985687
O   O13       1.0  0.60020  0.95520  0.73350  1.0000 -0.5841984726
O   O14       1.0  0.68620  0.85540  0.76600  1.0000 -0.522164417
O   O15       1.0  0.02460  0.31120  0.36620  1.0000 -0.5340149231
O   O16       1.0  0.93310  0.29650  0.29820  1.0000 -0.5630734838
O   O17       1.0  0.05810  0.48570  0.39630  1.0000 -0.5394608802
O   O18       1.0  0.98580  0.50620  0.31830  1.0000 -0.5977985687
O   O19       1.0  0.95520  0.60020  0.76650  1.0000 -0.5841984726
O   O20       1.0  0.85540  0.68620  0.73400  1.0000 -0.522164417
O   O21       1.0  0.31120  0.02460  0.13380  1.0000 -0.5340149231
O   O22       1.0  0.29650  0.93310  0.20180  1.0000 -0.5630734838
O   O23       1.0  0.48570  0.05810  0.10370  1.0000 -0.5394608802
O   O24       1.0  0.50620  0.98580  0.18170  1.0000 -0.5977985687
