# DDEC6 charges by PACMAN v1.1 (https://github.com/mtap-research/PACMAN-charge/)
data_2021[Zr][reo]3[ASR]2
_chemical_formula_sum              "Zr36 H48 C144 S24 O144"
_cell_length_a       27.3197
_cell_length_b       27.3197
_cell_length_c       27.3197
_cell_angle_alpha    60
_cell_angle_beta     60
_cell_angle_gamma    60

_symmetry_space_group_name_H-M    "P 1"
_symmetry_Int_Tables_number       1

loop_
  _symmetry_equiv_pos_as_xyz
  'x, y, z'

loop_
  _atom_site_type_symbol
  _atom_site_label
  _atom_site_symmetry_multiplicity
  _atom_site_fract_x
  _atom_site_fract_y
  _atom_site_fract_z
  _atom_site_occupancy
  _atom_site_charge
Zr  Zr1       1.0  0.89244  0.54592  0.01572  1.0000 2.2216781219
Zr  Zr2       1.0  0.01572  0.54592  0.89244  1.0000 2.2100263675
Zr  Zr3       1.0  0.54592  0.89244  0.54592  1.0000 2.2216781219
Zr  Zr4       1.0  0.54592  0.01572  0.54592  1.0000 2.2100263675
Zr  Zr5       1.0  0.54592  0.01572  0.89244  1.0000 2.2216781219
Zr  Zr6       1.0  0.54592  0.89244  0.01572  1.0000 2.2261915525
Zr  Zr7       1.0  0.89244  0.54592  0.54592  1.0000 2.2216781219
Zr  Zr8       1.0  0.01572  0.54592  0.54592  1.0000 2.2216781219
Zr  Zr9       1.0  0.01572  0.89244  0.54592  1.0000 2.2216781219
Zr  Zr10      1.0  0.89244  0.01572  0.54592  1.0000 2.2100263675
Zr  Zr11      1.0  0.54592  0.54592  0.89244  1.0000 2.2216781219
Zr  Zr12      1.0  0.54592  0.54592  0.01572  1.0000 2.2261915525
Zr  Zr13      1.0  0.10756  0.45408  0.98428  1.0000 2.2216781219
Zr  Zr14      1.0  0.98428  0.45408  0.10756  1.0000 2.2100263675
Zr  Zr15      1.0  0.45408  0.98428  0.45408  1.0000 2.2100263675
Zr  Zr16      1.0  0.45408  0.10756  0.45408  1.0000 2.2100263675
Zr  Zr17      1.0  0.45408  0.45408  0.10756  1.0000 2.2216781219
Zr  Zr18      1.0  0.45408  0.45408  0.98428  1.0000 2.2216781219
Zr  Zr19      1.0  0.10756  0.98428  0.45408  1.0000 2.2100263675
Zr  Zr20      1.0  0.98428  0.10756  0.45408  1.0000 2.2100263675
Zr  Zr21      1.0  0.98428  0.45408  0.45408  1.0000 2.2100263675
Zr  Zr22      1.0  0.10756  0.45408  0.45408  1.0000 2.2100263675
Zr  Zr23      1.0  0.45408  0.98428  0.10756  1.0000 2.2261915525
Zr  Zr24      1.0  0.45408  0.10756  0.98428  1.0000 2.2261915525
Zr  Zr25      1.0  0.00000  0.58094  0.00000  1.0000 1.8677971919
Zr  Zr26      1.0  0.00000  0.41906  0.00000  1.0000 1.8677971919
Zr  Zr27      1.0  0.58094  0.00000  0.41906  1.0000 1.8677971919
Zr  Zr28      1.0  0.41906  0.00000  0.58094  1.0000 1.8677971919
Zr  Zr29      1.0  0.58094  0.00000  0.00000  1.0000 1.8677971919
Zr  Zr30      1.0  0.41906  0.00000  0.00000  1.0000 1.8677971919
Zr  Zr31      1.0  0.00000  0.41906  0.58094  1.0000 1.8646474202
Zr  Zr32      1.0  0.00000  0.58094  0.41906  1.0000 1.8646474202
Zr  Zr33      1.0  0.00000  0.00000  0.58094  1.0000 1.8677971919
Zr  Zr34      1.0  0.00000  0.00000  0.41906  1.0000 1.8677971919
Zr  Zr35      1.0  0.41906  0.58094  0.00000  1.0000 1.8677971919
Zr  Zr36      1.0  0.58094  0.41906  0.00000  1.0000 1.8677971919
H   H1        1.0  0.00790  0.78010  0.86790  1.0000 0.093275965
H   H2        1.0  0.86790  0.34410  0.00790  1.0000 0.093275965
H   H3        1.0  0.78010  0.00790  0.34410  1.0000 0.093275965
H   H4        1.0  0.34410  0.86790  0.78010  1.0000 0.093275965
H   H5        1.0  0.78010  0.86790  0.00790  1.0000 0.093275965
H   H6        1.0  0.34410  0.00790  0.86790  1.0000 0.093275965
H   H7        1.0  0.00790  0.34410  0.78010  1.0000 0.093275965
H   H8        1.0  0.86790  0.78010  0.34410  1.0000 0.093275965
H   H9        1.0  0.86790  0.00790  0.78010  1.0000 0.093275965
H   H10       1.0  0.00790  0.86790  0.34410  1.0000 0.093275965
H   H11       1.0  0.34410  0.78010  0.00790  1.0000 0.093275965
H   H12       1.0  0.78010  0.34410  0.86790  1.0000 0.093275965
H   H13       1.0  0.99210  0.65590  0.13210  1.0000 0.093275965
H   H14       1.0  0.13210  0.21990  0.99210  1.0000 0.093275965
H   H15       1.0  0.21990  0.13210  0.65590  1.0000 0.093275965
H   H16       1.0  0.65590  0.99210  0.21990  1.0000 0.093275965
H   H17       1.0  0.21990  0.65590  0.99210  1.0000 0.093275965
H   H18       1.0  0.65590  0.21990  0.13210  1.0000 0.093275965
H   H19       1.0  0.99210  0.13210  0.21990  1.0000 0.093275965
H   H20       1.0  0.13210  0.99210  0.65590  1.0000 0.093275965
H   H21       1.0  0.13210  0.65590  0.21990  1.0000 0.093275965
H   H22       1.0  0.99210  0.21990  0.65590  1.0000 0.093275965
H   H23       1.0  0.65590  0.13210  0.99210  1.0000 0.093275965
H   H24       1.0  0.21990  0.99210  0.13210  1.0000 0.093275965
H   H25       1.0  0.99210  0.21990  0.13210  1.0000 0.093275965
H   H26       1.0  0.13210  0.65590  0.99210  1.0000 0.093275965
H   H27       1.0  0.21990  0.99210  0.65590  1.0000 0.093275965
H   H28       1.0  0.65590  0.13210  0.21990  1.0000 0.093275965
H   H29       1.0  0.21990  0.13210  0.99210  1.0000 0.093275965
H   H30       1.0  0.65590  0.99210  0.13210  1.0000 0.093275965
H   H31       1.0  0.99210  0.65590  0.21990  1.0000 0.093275965
H   H32       1.0  0.13210  0.21990  0.65590  1.0000 0.093275965
H   H33       1.0  0.13210  0.99210  0.21990  1.0000 0.093275965
H   H34       1.0  0.99210  0.13210  0.65590  1.0000 0.093275965
H   H35       1.0  0.65590  0.21990  0.99210  1.0000 0.093275965
H   H36       1.0  0.21990  0.65590  0.13210  1.0000 0.093275965
H   H37       1.0  0.00790  0.34410  0.86790  1.0000 0.093275965
H   H38       1.0  0.86790  0.78010  0.00790  1.0000 0.093275965
H   H39       1.0  0.78010  0.86790  0.34410  1.0000 0.093275965
H   H40       1.0  0.34410  0.00790  0.78010  1.0000 0.093275965
H   H41       1.0  0.78010  0.34410  0.00790  1.0000 0.093275965
H   H42       1.0  0.34410  0.78010  0.86790  1.0000 0.093275965
H   H43       1.0  0.00790  0.86790  0.78010  1.0000 0.093275965
H   H44       1.0  0.86790  0.00790  0.34410  1.0000 0.093275965
H   H45       1.0  0.86790  0.34410  0.78010  1.0000 0.093275965
H   H46       1.0  0.00790  0.78010  0.34410  1.0000 0.093275965
H   H47       1.0  0.34410  0.86790  0.00790  1.0000 0.093275965
H   H48       1.0  0.78010  0.00790  0.86790  1.0000 0.093275965
C   C1        1.0  0.01179  0.67773  0.87791  1.0000 0.5673875802
C   C2        1.0  0.00575  0.73741  0.83289  1.0000 -0.2615010343
C   C3        1.0  0.98766  0.79044  0.84008  1.0000 -0.1061216608
C   C4        1.0  0.87791  0.43257  0.01179  1.0000 0.5673875802
C   C5        1.0  0.83289  0.42395  0.00575  1.0000 -0.2615010343
C   C6        1.0  0.84008  0.38182  0.98766  1.0000 -0.1061216608
C   C7        1.0  0.67773  0.01179  0.43257  1.0000 0.5673875802
C   C8        1.0  0.73741  0.00575  0.42395  1.0000 -0.2615010343
C   C9        1.0  0.79044  0.98766  0.38182  1.0000 -0.1034669147
C   C10       1.0  0.43257  0.87791  0.67773  1.0000 0.5673875802
C   C11       1.0  0.42395  0.83289  0.73741  1.0000 -0.2615010343
C   C12       1.0  0.38182  0.84008  0.79044  1.0000 -0.1061216608
C   C13       1.0  0.67773  0.87791  0.01179  1.0000 0.5646126141
C   C14       1.0  0.73741  0.83289  0.00575  1.0000 -0.2615010343
C   C15       1.0  0.79044  0.84008  0.98766  1.0000 -0.1061216608
C   C16       1.0  0.43257  0.01179  0.87791  1.0000 0.5673875802
C   C17       1.0  0.42395  0.00575  0.83289  1.0000 -0.2615010343
C   C18       1.0  0.38182  0.98766  0.84008  1.0000 -0.1061216608
C   C19       1.0  0.01179  0.43257  0.67773  1.0000 0.5673875802
C   C20       1.0  0.00575  0.42395  0.73741  1.0000 -0.2615010343
C   C21       1.0  0.98766  0.38182  0.79044  1.0000 -0.1034669147
C   C22       1.0  0.87791  0.67773  0.43257  1.0000 0.5673875802
C   C23       1.0  0.83289  0.73741  0.42395  1.0000 -0.2615010343
C   C24       1.0  0.84008  0.79044  0.38182  1.0000 -0.1034669147
C   C25       1.0  0.87791  0.01179  0.67773  1.0000 0.5673875802
C   C26       1.0  0.83289  0.00575  0.73741  1.0000 -0.2615010343
C   C27       1.0  0.84008  0.98766  0.79044  1.0000 -0.1034669147
C   C28       1.0  0.01179  0.87791  0.43257  1.0000 0.5673875802
C   C29       1.0  0.00575  0.83289  0.42395  1.0000 -0.2615010343
C   C30       1.0  0.98766  0.84008  0.38182  1.0000 -0.1034669147
C   C31       1.0  0.43257  0.67773  0.01179  1.0000 0.5646126141
C   C32       1.0  0.42395  0.73741  0.00575  1.0000 -0.2615010343
C   C33       1.0  0.38182  0.79044  0.98766  1.0000 -0.1061216608
C   C34       1.0  0.67773  0.43257  0.87791  1.0000 0.5673875802
C   C35       1.0  0.73741  0.42395  0.83289  1.0000 -0.2615010343
C   C36       1.0  0.79044  0.38182  0.84008  1.0000 -0.1034669147
C   C37       1.0  0.98821  0.56743  0.12209  1.0000 0.5673875802
C   C38       1.0  0.99425  0.57605  0.16711  1.0000 -0.2615010343
C   C39       1.0  0.01234  0.61818  0.15992  1.0000 -0.1061216608
C   C40       1.0  0.12209  0.32227  0.98821  1.0000 0.5673875802
C   C41       1.0  0.16711  0.26259  0.99425  1.0000 -0.2615010343
C   C42       1.0  0.15992  0.20956  0.01234  1.0000 -0.1034669147
C   C43       1.0  0.32227  0.12209  0.56743  1.0000 0.5673875802
C   C44       1.0  0.26259  0.16711  0.57605  1.0000 -0.2615010343
C   C45       1.0  0.20956  0.15992  0.61818  1.0000 -0.1034669147
C   C46       1.0  0.56743  0.98821  0.32227  1.0000 0.5673875802
C   C47       1.0  0.57605  0.99425  0.26259  1.0000 -0.2615010343
C   C48       1.0  0.61818  0.01234  0.20956  1.0000 -0.1034669147
C   C49       1.0  0.32227  0.56743  0.98821  1.0000 0.5673875802
C   C50       1.0  0.26259  0.57605  0.99425  1.0000 -0.2615010343
C   C51       1.0  0.20956  0.61818  0.01234  1.0000 -0.1061216608
C   C52       1.0  0.56743  0.32227  0.12209  1.0000 0.5673875802
C   C53       1.0  0.57605  0.26259  0.16711  1.0000 -0.2615010343
C   C54       1.0  0.61818  0.20956  0.15992  1.0000 -0.1061216608
C   C55       1.0  0.98821  0.12209  0.32227  1.0000 0.5673875802
C   C56       1.0  0.99425  0.16711  0.26259  1.0000 -0.2615010343
C   C57       1.0  0.01234  0.15992  0.20956  1.0000 -0.1034669147
C   C58       1.0  0.12209  0.98821  0.56743  1.0000 0.5673875802
C   C59       1.0  0.16711  0.99425  0.57605  1.0000 -0.2615010343
C   C60       1.0  0.15992  0.01234  0.61818  1.0000 -0.1034669147
C   C61       1.0  0.12209  0.56743  0.32227  1.0000 0.5673875802
C   C62       1.0  0.16711  0.57605  0.26259  1.0000 -0.2615010343
C   C63       1.0  0.15992  0.61818  0.20956  1.0000 -0.1061216608
C   C64       1.0  0.98821  0.32227  0.56743  1.0000 0.5673875802
C   C65       1.0  0.99425  0.26259  0.57605  1.0000 -0.2615010343
C   C66       1.0  0.01234  0.20956  0.61818  1.0000 -0.1061216608
C   C67       1.0  0.56743  0.12209  0.98821  1.0000 0.5673875802
C   C68       1.0  0.57605  0.16711  0.99425  1.0000 -0.2615010343
C   C69       1.0  0.61818  0.15992  0.01234  1.0000 -0.1034669147
C   C70       1.0  0.32227  0.98821  0.12209  1.0000 0.5673875802
C   C71       1.0  0.26259  0.99425  0.16711  1.0000 -0.2615010343
C   C72       1.0  0.20956  0.01234  0.15992  1.0000 -0.1061216608
C   C73       1.0  0.98821  0.32227  0.12209  1.0000 0.5673875802
C   C74       1.0  0.99425  0.26259  0.16711  1.0000 -0.2615010343
C   C75       1.0  0.01234  0.20956  0.15992  1.0000 -0.1061216608
C   C76       1.0  0.12209  0.56743  0.98821  1.0000 0.5673875802
C   C77       1.0  0.16711  0.57605  0.99425  1.0000 -0.2615010343
C   C78       1.0  0.15992  0.61818  0.01234  1.0000 -0.1034669147
C   C79       1.0  0.32227  0.98821  0.56743  1.0000 0.5673875802
C   C80       1.0  0.26259  0.99425  0.57605  1.0000 -0.2615010343
C   C81       1.0  0.20956  0.01234  0.61818  1.0000 -0.1034669147
C   C82       1.0  0.56743  0.12209  0.32227  1.0000 0.5673875802
C   C83       1.0  0.57605  0.16711  0.26259  1.0000 -0.2615010343
C   C84       1.0  0.61818  0.15992  0.20956  1.0000 -0.1034669147
C   C85       1.0  0.32227  0.12209  0.98821  1.0000 0.5673875802
C   C86       1.0  0.26259  0.16711  0.99425  1.0000 -0.2615010343
C   C87       1.0  0.20956  0.15992  0.01234  1.0000 -0.1034669147
C   C88       1.0  0.56743  0.98821  0.12209  1.0000 0.5673875802
C   C89       1.0  0.57605  0.99425  0.16711  1.0000 -0.2615010343
C   C90       1.0  0.61818  0.01234  0.15992  1.0000 -0.1061216608
C   C91       1.0  0.98821  0.56743  0.32227  1.0000 0.5673875802
C   C92       1.0  0.99425  0.57605  0.26259  1.0000 -0.2615010343
C   C93       1.0  0.01234  0.61818  0.20956  1.0000 -0.1061216608
C   C94       1.0  0.12209  0.32227  0.56743  1.0000 0.5673875802
C   C95       1.0  0.16711  0.26259  0.57605  1.0000 -0.2615010343
C   C96       1.0  0.15992  0.20956  0.61818  1.0000 -0.1034669147
C   C97       1.0  0.12209  0.98821  0.32227  1.0000 0.5673875802
C   C98       1.0  0.16711  0.99425  0.26259  1.0000 -0.2615010343
C   C99       1.0  0.15992  0.01234  0.20956  1.0000 -0.1034669147
C   C100      1.0  0.98821  0.12209  0.56743  1.0000 0.5673875802
C   C101      1.0  0.99425  0.16711  0.57605  1.0000 -0.2615010343
C   C102      1.0  0.01234  0.15992  0.61818  1.0000 -0.1034669147
C   C103      1.0  0.56743  0.32227  0.98821  1.0000 0.5673875802
C   C104      1.0  0.57605  0.26259  0.99425  1.0000 -0.2615010343
C   C105      1.0  0.61818  0.20956  0.01234  1.0000 -0.1034669147
C   C106      1.0  0.32227  0.56743  0.12209  1.0000 0.5673875802
C   C107      1.0  0.26259  0.57605  0.16711  1.0000 -0.2615010343
C   C108      1.0  0.20956  0.61818  0.15992  1.0000 -0.1061216608
C   C109      1.0  0.01179  0.43257  0.87791  1.0000 0.5673875802
C   C110      1.0  0.00575  0.42395  0.83289  1.0000 -0.2615010343
C   C111      1.0  0.98766  0.38182  0.84008  1.0000 -0.1034669147
C   C112      1.0  0.87791  0.67773  0.01179  1.0000 0.5646126141
C   C113      1.0  0.83289  0.73741  0.00575  1.0000 -0.2615010343
C   C114      1.0  0.84008  0.79044  0.98766  1.0000 -0.1061216608
C   C115      1.0  0.67773  0.87791  0.43257  1.0000 0.5673875802
C   C116      1.0  0.73741  0.83289  0.42395  1.0000 -0.2615010343
C   C117      1.0  0.79044  0.84008  0.38182  1.0000 -0.1034669147
C   C118      1.0  0.43257  0.01179  0.67773  1.0000 0.5673875802
C   C119      1.0  0.42395  0.00575  0.73741  1.0000 -0.2615010343
C   C120      1.0  0.38182  0.98766  0.79044  1.0000 -0.1034669147
C   C121      1.0  0.67773  0.43257  0.01179  1.0000 0.5673875802
C   C122      1.0  0.73741  0.42395  0.00575  1.0000 -0.2615010343
C   C123      1.0  0.79044  0.38182  0.98766  1.0000 -0.1061216608
C   C124      1.0  0.43257  0.67773  0.87791  1.0000 0.5673875802
C   C125      1.0  0.42395  0.73741  0.83289  1.0000 -0.2615010343
C   C126      1.0  0.38182  0.79044  0.84008  1.0000 -0.1034669147
C   C127      1.0  0.01179  0.87791  0.67773  1.0000 0.5673875802
C   C128      1.0  0.00575  0.83289  0.73741  1.0000 -0.2615010343
C   C129      1.0  0.98766  0.84008  0.79044  1.0000 -0.1034669147
C   C130      1.0  0.87791  0.01179  0.43257  1.0000 0.5673875802
C   C131      1.0  0.83289  0.00575  0.42395  1.0000 -0.2615010343
C   C132      1.0  0.84008  0.98766  0.38182  1.0000 -0.1034669147
C   C133      1.0  0.87791  0.43257  0.67773  1.0000 0.5673875802
C   C134      1.0  0.83289  0.42395  0.73741  1.0000 -0.2615010343
C   C135      1.0  0.84008  0.38182  0.79044  1.0000 -0.1034669147
C   C136      1.0  0.01179  0.67773  0.43257  1.0000 0.5673875802
C   C137      1.0  0.00575  0.73741  0.42395  1.0000 -0.2615010343
C   C138      1.0  0.98766  0.79044  0.38182  1.0000 -0.1034669147
C   C139      1.0  0.43257  0.87791  0.01179  1.0000 0.5646126141
C   C140      1.0  0.42395  0.83289  0.00575  1.0000 -0.2615010343
C   C141      1.0  0.38182  0.84008  0.98766  1.0000 -0.1061216608
C   C142      1.0  0.67773  0.01179  0.87791  1.0000 0.5673875802
C   C143      1.0  0.73741  0.00575  0.83289  1.0000 -0.2615010343
C   C144      1.0  0.79044  0.98766  0.84008  1.0000 -0.1034669147
S   S1        1.0  0.02515  0.75761  0.75761  1.0000 0.153649959
S   S2        1.0  0.75761  0.45963  0.02515  1.0000 0.153649959
S   S3        1.0  0.75761  0.02515  0.45963  1.0000 0.153649959
S   S4        1.0  0.45963  0.75761  0.75761  1.0000 0.1606099957
S   S5        1.0  0.75761  0.75761  0.02515  1.0000 0.153649959
S   S6        1.0  0.45963  0.02515  0.75761  1.0000 0.1606099957
S   S7        1.0  0.02515  0.45963  0.75761  1.0000 0.1606099957
S   S8        1.0  0.75761  0.75761  0.45963  1.0000 0.153649959
S   S9        1.0  0.75761  0.02515  0.75761  1.0000 0.153649959
S   S10       1.0  0.02515  0.75761  0.45963  1.0000 0.153649959
S   S11       1.0  0.45963  0.75761  0.02515  1.0000 0.153649959
S   S12       1.0  0.75761  0.45963  0.75761  1.0000 0.1606099957
S   S13       1.0  0.97485  0.54037  0.24239  1.0000 0.1606099957
S   S14       1.0  0.24239  0.24239  0.97485  1.0000 0.153649959
S   S15       1.0  0.24239  0.24239  0.54037  1.0000 0.1606099957
S   S16       1.0  0.54037  0.97485  0.24239  1.0000 0.153649959
S   S17       1.0  0.24239  0.54037  0.97485  1.0000 0.153649959
S   S18       1.0  0.54037  0.24239  0.24239  1.0000 0.153649959
S   S19       1.0  0.97485  0.24239  0.24239  1.0000 0.1606099957
S   S20       1.0  0.24239  0.97485  0.54037  1.0000 0.1606099957
S   S21       1.0  0.24239  0.54037  0.24239  1.0000 0.153649959
S   S22       1.0  0.97485  0.24239  0.54037  1.0000 0.1606099957
S   S23       1.0  0.54037  0.24239  0.97485  1.0000 0.153649959
S   S24       1.0  0.24239  0.97485  0.24239  1.0000 0.153649959
O   O1        1.0  0.99949  0.66717  0.93233  1.0000 -0.3624426995
O   O2        1.0  0.02138  0.62964  0.87402  1.0000 -0.4819813525
O   O3        1.0  0.93233  0.40101  0.99949  1.0000 -0.3624426995
O   O4        1.0  0.87402  0.47496  0.02138  1.0000 -0.4819813525
O   O5        1.0  0.66717  0.99949  0.40101  1.0000 -0.3624426995
O   O6        1.0  0.62964  0.02138  0.47496  1.0000 -0.4819813525
O   O7        1.0  0.40101  0.93233  0.66717  1.0000 -0.3624426995
O   O8        1.0  0.47496  0.87402  0.62964  1.0000 -0.4819813525
O   O9        1.0  0.66717  0.93233  0.99949  1.0000 -0.3624426995
O   O10       1.0  0.62964  0.87402  0.02138  1.0000 -0.4819813525
O   O11       1.0  0.40101  0.99949  0.93233  1.0000 -0.3624426995
O   O12       1.0  0.47496  0.02138  0.87402  1.0000 -0.4819813525
O   O13       1.0  0.99949  0.40101  0.66717  1.0000 -0.3624426995
O   O14       1.0  0.02138  0.47496  0.62964  1.0000 -0.4819813525
O   O15       1.0  0.93233  0.66717  0.40101  1.0000 -0.3624426995
O   O16       1.0  0.87402  0.62964  0.47496  1.0000 -0.4819813525
O   O17       1.0  0.93233  0.99949  0.66717  1.0000 -0.3624426995
O   O18       1.0  0.87402  0.02138  0.62964  1.0000 -0.4819813525
O   O19       1.0  0.99949  0.93233  0.40101  1.0000 -0.3624426995
O   O20       1.0  0.02138  0.87402  0.47496  1.0000 -0.4819813525
O   O21       1.0  0.40101  0.66717  0.99949  1.0000 -0.3624426995
O   O22       1.0  0.47496  0.62964  0.02138  1.0000 -0.4819813525
O   O23       1.0  0.66717  0.40101  0.93233  1.0000 -0.3624426995
O   O24       1.0  0.62964  0.47496  0.87402  1.0000 -0.4819813525
O   O25       1.0  0.00051  0.59899  0.06767  1.0000 -0.3624426995
O   O26       1.0  0.97862  0.52504  0.12598  1.0000 -0.4819813525
O   O27       1.0  0.06767  0.33283  0.00051  1.0000 -0.3624426995
O   O28       1.0  0.12598  0.37036  0.97862  1.0000 -0.4819813525
O   O29       1.0  0.33283  0.06767  0.59899  1.0000 -0.3624426995
O   O30       1.0  0.37036  0.12598  0.52504  1.0000 -0.4819813525
O   O31       1.0  0.59899  0.00051  0.33283  1.0000 -0.3624426995
O   O32       1.0  0.52504  0.97862  0.37036  1.0000 -0.4819813525
O   O33       1.0  0.33283  0.59899  0.00051  1.0000 -0.3624426995
O   O34       1.0  0.37036  0.52504  0.97862  1.0000 -0.4819813525
O   O35       1.0  0.59899  0.33283  0.06767  1.0000 -0.3624426995
O   O36       1.0  0.52504  0.37036  0.12598  1.0000 -0.4819813525
O   O37       1.0  0.00051  0.06767  0.33283  1.0000 -0.3624426995
O   O38       1.0  0.97862  0.12598  0.37036  1.0000 -0.4819813525
O   O39       1.0  0.06767  0.00051  0.59899  1.0000 -0.3624426995
O   O40       1.0  0.12598  0.97862  0.52504  1.0000 -0.4819813525
O   O41       1.0  0.06767  0.59899  0.33283  1.0000 -0.3624426995
O   O42       1.0  0.12598  0.52504  0.37036  1.0000 -0.4819813525
O   O43       1.0  0.00051  0.33283  0.59899  1.0000 -0.3624426995
O   O44       1.0  0.97862  0.37036  0.52504  1.0000 -0.4819813525
O   O45       1.0  0.59899  0.06767  0.00051  1.0000 -0.3624426995
O   O46       1.0  0.52504  0.12598  0.97862  1.0000 -0.4819813525
O   O47       1.0  0.33283  0.00051  0.06767  1.0000 -0.3624426995
O   O48       1.0  0.37036  0.97862  0.12598  1.0000 -0.4819813525
O   O49       1.0  0.00051  0.33283  0.06767  1.0000 -0.3624426995
O   O50       1.0  0.97862  0.37036  0.12598  1.0000 -0.4819813525
O   O51       1.0  0.06767  0.59899  0.00051  1.0000 -0.3624426995
O   O52       1.0  0.12598  0.52504  0.97862  1.0000 -0.4819813525
O   O53       1.0  0.33283  0.00051  0.59899  1.0000 -0.3624426995
O   O54       1.0  0.37036  0.97862  0.52504  1.0000 -0.4819813525
O   O55       1.0  0.59899  0.06767  0.33283  1.0000 -0.3624426995
O   O56       1.0  0.52504  0.12598  0.37036  1.0000 -0.4819813525
O   O57       1.0  0.33283  0.06767  0.00051  1.0000 -0.3624426995
O   O58       1.0  0.37036  0.12598  0.97862  1.0000 -0.4819813525
O   O59       1.0  0.59899  0.00051  0.06767  1.0000 -0.3624426995
O   O60       1.0  0.52504  0.97862  0.12598  1.0000 -0.4819813525
O   O61       1.0  0.00051  0.59899  0.33283  1.0000 -0.3624426995
O   O62       1.0  0.97862  0.52504  0.37036  1.0000 -0.4819813525
O   O63       1.0  0.06767  0.33283  0.59899  1.0000 -0.3624426995
O   O64       1.0  0.12598  0.37036  0.52504  1.0000 -0.4819813525
O   O65       1.0  0.06767  0.00051  0.33283  1.0000 -0.3624426995
O   O66       1.0  0.12598  0.97862  0.37036  1.0000 -0.4819813525
O   O67       1.0  0.00051  0.06767  0.59899  1.0000 -0.3624426995
O   O68       1.0  0.97862  0.12598  0.52504  1.0000 -0.4819813525
O   O69       1.0  0.59899  0.33283  0.00051  1.0000 -0.3624426995
O   O70       1.0  0.52504  0.37036  0.97862  1.0000 -0.4819813525
O   O71       1.0  0.33283  0.59899  0.06767  1.0000 -0.3624426995
O   O72       1.0  0.37036  0.52504  0.12598  1.0000 -0.4819813525
O   O73       1.0  0.99949  0.40101  0.93233  1.0000 -0.3624426995
O   O74       1.0  0.02138  0.47496  0.87402  1.0000 -0.4819813525
O   O75       1.0  0.93233  0.66717  0.99949  1.0000 -0.3624426995
O   O76       1.0  0.87402  0.62964  0.02138  1.0000 -0.4819813525
O   O77       1.0  0.66717  0.93233  0.40101  1.0000 -0.3624426995
O   O78       1.0  0.62964  0.87402  0.47496  1.0000 -0.4819813525
O   O79       1.0  0.40101  0.99949  0.66717  1.0000 -0.3624426995
O   O80       1.0  0.47496  0.02138  0.62964  1.0000 -0.4819813525
O   O81       1.0  0.66717  0.40101  0.99949  1.0000 -0.3624426995
O   O82       1.0  0.62964  0.47496  0.02138  1.0000 -0.4819813525
O   O83       1.0  0.40101  0.66717  0.93233  1.0000 -0.3624426995
O   O84       1.0  0.47496  0.62964  0.87402  1.0000 -0.4819813525
O   O85       1.0  0.99949  0.93233  0.66717  1.0000 -0.3624426995
O   O86       1.0  0.02138  0.87402  0.62964  1.0000 -0.4819813525
O   O87       1.0  0.93233  0.99949  0.40101  1.0000 -0.3624426995
O   O88       1.0  0.87402  0.02138  0.47496  1.0000 -0.4819813525
O   O89       1.0  0.93233  0.40101  0.66717  1.0000 -0.3624426995
O   O90       1.0  0.87402  0.47496  0.62964  1.0000 -0.4819813525
O   O91       1.0  0.99949  0.66717  0.40101  1.0000 -0.3624426995
O   O92       1.0  0.02138  0.62964  0.47496  1.0000 -0.4819813525
O   O93       1.0  0.40101  0.93233  0.99949  1.0000 -0.3624426995
O   O94       1.0  0.47496  0.87402  0.02138  1.0000 -0.4819813525
O   O95       1.0  0.66717  0.99949  0.93233  1.0000 -0.3624426995
O   O96       1.0  0.62964  0.02138  0.87402  1.0000 -0.4819813525
O   O97       1.0  0.94945  0.59881  0.94945  1.0000 -1.0722350756
O   O98       1.0  0.94945  0.50229  0.94945  1.0000 -1.0805686633
O   O99       1.0  0.59881  0.94945  0.50229  1.0000 -1.0805686633
O   O100      1.0  0.50229  0.94945  0.59881  1.0000 -1.0805686633
O   O101      1.0  0.59881  0.94945  0.94945  1.0000 -1.0805686633
O   O102      1.0  0.50229  0.94945  0.94945  1.0000 -1.0805686633
O   O103      1.0  0.94945  0.50229  0.59881  1.0000 -1.0805686633
O   O104      1.0  0.94945  0.59881  0.50229  1.0000 -1.0805686633
O   O105      1.0  0.94945  0.94945  0.59881  1.0000 -1.0805686633
O   O106      1.0  0.94945  0.94945  0.50229  1.0000 -1.0805686633
O   O107      1.0  0.50229  0.59881  0.94945  1.0000 -1.0722350756
O   O108      1.0  0.59881  0.50229  0.94945  1.0000 -1.0860793273
O   O109      1.0  0.05055  0.49771  0.05055  1.0000 -1.0860793273
O   O110      1.0  0.05055  0.40119  0.05055  1.0000 -1.0805686633
O   O111      1.0  0.40119  0.05055  0.49771  1.0000 -1.0805686633
O   O112      1.0  0.49771  0.05055  0.40119  1.0000 -1.0722350756
O   O113      1.0  0.40119  0.49771  0.05055  1.0000 -1.0860793273
O   O114      1.0  0.49771  0.40119  0.05055  1.0000 -1.0805686633
O   O115      1.0  0.05055  0.05055  0.40119  1.0000 -1.0722350756
O   O116      1.0  0.05055  0.05055  0.49771  1.0000 -1.0805686633
O   O117      1.0  0.05055  0.49771  0.40119  1.0000 -1.0805686633
O   O118      1.0  0.05055  0.40119  0.49771  1.0000 -1.0805686633
O   O119      1.0  0.49771  0.05055  0.05055  1.0000 -1.0860793273
O   O120      1.0  0.40119  0.05055  0.05055  1.0000 -1.0860793273
O   O121      1.0  0.93083  0.45639  0.06917  1.0000 -1.1234537641
O   O122      1.0  0.06917  0.54361  0.93083  1.0000 -1.1278564672
O   O123      1.0  0.45639  0.93083  0.54361  1.0000 -1.1278564672
O   O124      1.0  0.54361  0.06917  0.45639  1.0000 -1.1278564672
O   O125      1.0  0.45639  0.06917  0.93083  1.0000 -1.1278564672
O   O126      1.0  0.54361  0.93083  0.06917  1.0000 -1.1278564672
O   O127      1.0  0.93083  0.54361  0.45639  1.0000 -1.1278564672
O   O128      1.0  0.06917  0.45639  0.54361  1.0000 -1.1278564672
O   O129      1.0  0.06917  0.93083  0.45639  1.0000 -1.1278564672
O   O130      1.0  0.93083  0.06917  0.54361  1.0000 -1.1278564672
O   O131      1.0  0.54361  0.45639  0.93083  1.0000 -1.1278564672
O   O132      1.0  0.45639  0.54361  0.06917  1.0000 -1.1234537641
O   O133      1.0  0.06917  0.45639  0.93083  1.0000 -1.1278564672
O   O134      1.0  0.93083  0.54361  0.06917  1.0000 -1.1234537641
O   O135      1.0  0.54361  0.93083  0.45639  1.0000 -1.1278564672
O   O136      1.0  0.45639  0.06917  0.54361  1.0000 -1.1278564672
O   O137      1.0  0.54361  0.45639  0.06917  1.0000 -1.1234537641
O   O138      1.0  0.45639  0.54361  0.93083  1.0000 -1.1278564672
O   O139      1.0  0.06917  0.93083  0.54361  1.0000 -1.1278564672
O   O140      1.0  0.93083  0.06917  0.45639  1.0000 -1.1278564672
O   O141      1.0  0.93083  0.45639  0.54361  1.0000 -1.1278564672
O   O142      1.0  0.06917  0.54361  0.45639  1.0000 -1.1278564672
O   O143      1.0  0.45639  0.93083  0.06917  1.0000 -1.1278564672
O   O144      1.0  0.54361  0.06917  0.93083  1.0000 -1.1278564672
