# DDEC6 charges by PACMAN v1.1 (https://github.com/mtap-research/PACMAN-charge/)
data_2021[Zn][dia]3[ASR]2
_chemical_formula_sum              "Zn4 H24 C64 N8 O48"
_cell_length_a       19.3358
_cell_length_b       17.8325
_cell_length_c       17.0687
_cell_angle_alpha    67.2444
_cell_angle_beta     58.2628
_cell_angle_gamma    54.4927

_symmetry_space_group_name_H-M    "P 1"
_symmetry_Int_Tables_number       1

loop_
  _symmetry_equiv_pos_as_xyz
  'x, y, z'

loop_
  _atom_site_type_symbol
  _atom_site_label
  _atom_site_symmetry_multiplicity
  _atom_site_fract_x
  _atom_site_fract_y
  _atom_site_fract_z
  _atom_site_occupancy
  _atom_site_charge
Zn  Zn1       1.0  0.81229  0.18771  0.81229  1.0000 0.9370279414
Zn  Zn2       1.0  0.06229  0.43771  0.06229  1.0000 0.9342926843
Zn  Zn3       1.0  0.18771  0.81229  0.18771  1.0000 0.9342926843
Zn  Zn4       1.0  0.43771  0.06229  0.43771  1.0000 0.9342926843
H   H1        1.0  0.98039  0.89089  0.78949  1.0000 0.1418005628
H   H2        1.0  0.82570  0.89701  0.06390  1.0000 0.1283411337
H   H3        1.0  0.89473  0.73799  0.08511  1.0000 0.1283411337
H   H4        1.0  0.78949  0.33923  0.98039  1.0000 0.1418005628
H   H5        1.0  0.06391  0.21339  0.82569  1.0000 0.1283411337
H   H6        1.0  0.08511  0.28217  0.89473  1.0000 0.1283411337
H   H7        1.0  0.35911  0.26961  0.91077  1.0000 0.1418005628
H   H8        1.0  0.35300  0.42430  0.03660  1.0000 0.1283411337
H   H9        1.0  0.51201  0.35527  0.96783  1.0000 0.1283411337
H   H10       1.0  0.91077  0.46051  0.35911  1.0000 0.1418005628
H   H11       1.0  0.03660  0.18610  0.35300  1.0000 0.1283411337
H   H12       1.0  0.96783  0.16489  0.51201  1.0000 0.1283411337
H   H13       1.0  0.89089  0.98039  0.33923  1.0000 0.1418005628
H   H14       1.0  0.89701  0.82569  0.21339  1.0000 0.1283411337
H   H15       1.0  0.73799  0.89473  0.28217  1.0000 0.1283411337
H   H16       1.0  0.33923  0.78949  0.89089  1.0000 0.1418005628
H   H17       1.0  0.21340  0.06391  0.89700  1.0000 0.1283411337
H   H18       1.0  0.28217  0.08511  0.73799  1.0000 0.1283411337
H   H19       1.0  0.26961  0.35911  0.46051  1.0000 0.1418005628
H   H20       1.0  0.42430  0.35300  0.18609  1.0000 0.1283411337
H   H21       1.0  0.35527  0.51201  0.16489  1.0000 0.1283411337
H   H22       1.0  0.46051  0.91077  0.26961  1.0000 0.1418005628
H   H23       1.0  0.18610  0.03660  0.42430  1.0000 0.1283411337
H   H24       1.0  0.16489  0.96783  0.35527  1.0000 0.1283411337
C   C1        1.0  0.97706  0.71776  0.94942  1.0000 -0.026428435
C   C2        1.0  0.00128  0.76622  0.86344  1.0000 0.0417675669
C   C3        1.0  0.96248  0.86048  0.84892  1.0000 -0.1069371943
C   C4        1.0  0.89448  0.91108  0.92572  1.0000 0.0255884025
C   C5        1.0  0.87030  0.86390  0.01290  1.0000 -0.1069371943
C   C6        1.0  0.91100  0.76880  0.02560  1.0000 -0.0845537426
C   C7        1.0  0.01787  0.61385  0.96295  1.0000 0.5532524837
C   C8        1.0  0.84830  0.01630  0.91150  1.0000 0.5299954815
C   C9        1.0  0.94942  0.35576  0.97706  1.0000 -0.026428435
C   C10       1.0  0.86344  0.36906  0.00128  1.0000 0.0417675669
C   C11       1.0  0.84892  0.32812  0.96248  1.0000 -0.1069371943
C   C12       1.0  0.92572  0.26872  0.89448  1.0000 0.0255884025
C   C13       1.0  0.01290  0.25290  0.87030  1.0000 -0.1069371943
C   C14       1.0  0.02560  0.29460  0.91100  1.0000 -0.0845537426
C   C15       1.0  0.96295  0.40533  0.01787  1.0000 0.5532524837
C   C16       1.0  0.91150  0.22390  0.84830  1.0000 0.5299954815
C   C17       1.0  0.53224  0.27294  0.89424  1.0000 -0.026428435
C   C18       1.0  0.48378  0.24872  0.88094  1.0000 0.0417675669
C   C19       1.0  0.38952  0.28752  0.92188  1.0000 -0.1069371943
C   C20       1.0  0.33892  0.35552  0.98128  1.0000 0.0255884025
C   C21       1.0  0.38610  0.37970  0.99710  1.0000 -0.1069371943
C   C22       1.0  0.48120  0.33900  0.95540  1.0000 -0.0845537426
C   C23       1.0  0.63615  0.23213  0.84467  1.0000 0.5532524837
C   C24       1.0  0.23370  0.40170  0.02610  1.0000 0.5299954815
C   C25       1.0  0.89424  0.30058  0.53224  1.0000 -0.026428435
C   C26       1.0  0.88094  0.38656  0.48378  1.0000 0.0417675669
C   C27       1.0  0.92188  0.40108  0.38952  1.0000 -0.1069371943
C   C28       1.0  0.98128  0.32428  0.33892  1.0000 0.0227591162
C   C29       1.0  0.99710  0.23710  0.38610  1.0000 -0.1069371943
C   C30       1.0  0.95540  0.22440  0.48120  1.0000 -0.0845537426
C   C31       1.0  0.84467  0.28705  0.63615  1.0000 0.5532524837
C   C32       1.0  0.02610  0.33850  0.23370  1.0000 0.5299954815
C   C33       1.0  0.71776  0.97706  0.35576  1.0000 -0.026428435
C   C34       1.0  0.76622  0.00128  0.36906  1.0000 0.0417675669
C   C35       1.0  0.86048  0.96248  0.32812  1.0000 -0.1069371943
C   C36       1.0  0.91108  0.89448  0.26872  1.0000 0.0227591162
C   C37       1.0  0.86390  0.87030  0.25290  1.0000 -0.1069371943
C   C38       1.0  0.76880  0.91100  0.29460  1.0000 -0.0845537426
C   C39       1.0  0.61385  0.01787  0.40533  1.0000 0.5532524837
C   C40       1.0  0.01630  0.84830  0.22390  1.0000 0.5299954815
C   C41       1.0  0.35576  0.94942  0.71776  1.0000 -0.026428435
C   C42       1.0  0.36906  0.86344  0.76622  1.0000 0.0417675669
C   C43       1.0  0.32812  0.84892  0.86048  1.0000 -0.1069371943
C   C44       1.0  0.26872  0.92572  0.91108  1.0000 0.0227591162
C   C45       1.0  0.25290  0.01290  0.86390  1.0000 -0.1069371943
C   C46       1.0  0.29460  0.02560  0.76880  1.0000 -0.0858879658
C   C47       1.0  0.40533  0.96295  0.61385  1.0000 0.5532524837
C   C48       1.0  0.22390  0.91150  0.01630  1.0000 0.5299954815
C   C49       1.0  0.27294  0.53224  0.30058  1.0000 -0.026428435
C   C50       1.0  0.24872  0.48378  0.38656  1.0000 0.0417675669
C   C51       1.0  0.28752  0.38952  0.40108  1.0000 -0.1069371943
C   C52       1.0  0.35552  0.33892  0.32428  1.0000 0.0227591162
C   C53       1.0  0.37970  0.38610  0.23710  1.0000 -0.1069371943
C   C54       1.0  0.33900  0.48120  0.22440  1.0000 -0.0858879658
C   C55       1.0  0.23213  0.63615  0.28705  1.0000 0.5532524837
C   C56       1.0  0.40170  0.23370  0.33850  1.0000 0.5299954815
C   C57       1.0  0.30058  0.89424  0.27294  1.0000 -0.026428435
C   C58       1.0  0.38656  0.88094  0.24872  1.0000 0.0417675669
C   C59       1.0  0.40108  0.92188  0.28752  1.0000 -0.1069371943
C   C60       1.0  0.32428  0.98128  0.35552  1.0000 0.0255884025
C   C61       1.0  0.23710  0.99710  0.37970  1.0000 -0.1069371943
C   C62       1.0  0.22440  0.95540  0.33900  1.0000 -0.0858879658
C   C63       1.0  0.28705  0.84467  0.23213  1.0000 0.5532524837
C   C64       1.0  0.33850  0.02610  0.40170  1.0000 0.5299954815
N   N1        1.0  0.07358  0.71942  0.78042  1.0000 0.5047460896
N   N2        1.0  0.78042  0.42658  0.07358  1.0000 0.5047460896
N   N3        1.0  0.53058  0.17642  0.82342  1.0000 0.5047460896
N   N4        1.0  0.82342  0.46958  0.53058  1.0000 0.5047460896
N   N5        1.0  0.71942  0.07358  0.42658  1.0000 0.5047460896
N   N6        1.0  0.42658  0.78042  0.71942  1.0000 0.5047460896
N   N7        1.0  0.17642  0.53058  0.46958  1.0000 0.5047460896
N   N8        1.0  0.46958  0.82342  0.17642  1.0000 0.5047460896
O   O1        1.0  0.99552  0.57512  0.04474  1.0000 -0.440173884
O   O2        1.0  0.07092  0.57256  0.89428  1.0000 -0.4208082867
O   O3        1.0  0.86844  0.05338  0.82676  1.0000 -0.4540749925
O   O4        1.0  0.79333  0.06047  0.97847  1.0000 -0.4208082867
O   O5        1.0  0.05287  0.72133  0.72533  1.0000 -0.2230975898
O   O6        1.0  0.15530  0.68370  0.76930  1.0000 -0.2332702121
O   O7        1.0  0.04474  0.38462  0.99552  1.0000 -0.440173884
O   O8        1.0  0.89428  0.46224  0.07092  1.0000 -0.4208082867
O   O9        1.0  0.82676  0.25142  0.86844  1.0000 -0.4540749925
O   O10       1.0  0.97847  0.16773  0.79333  1.0000 -0.4208082867
O   O11       1.0  0.72533  0.50047  0.05287  1.0000 -0.2230975898
O   O12       1.0  0.76930  0.39170  0.15530  1.0000 -0.2332702121
O   O13       1.0  0.67488  0.25448  0.86538  1.0000 -0.440173884
O   O14       1.0  0.67744  0.17908  0.78776  1.0000 -0.4208082867
O   O15       1.0  0.19662  0.38156  0.99858  1.0000 -0.4540749925
O   O16       1.0  0.18953  0.45667  0.08227  1.0000 -0.4208082867
O   O17       1.0  0.52867  0.19713  0.74953  1.0000 -0.2230975898
O   O18       1.0  0.56630  0.09470  0.85830  1.0000 -0.2332702121
O   O19       1.0  0.86538  0.20526  0.67488  1.0000 -0.440173884
O   O20       1.0  0.78776  0.35572  0.67744  1.0000 -0.4208082867
O   O21       1.0  0.99858  0.42324  0.19662  1.0000 -0.4540749925
O   O22       1.0  0.08227  0.27153  0.18953  1.0000 -0.4208082867
O   O23       1.0  0.74953  0.52467  0.52867  1.0000 -0.2230975898
O   O24       1.0  0.85830  0.48070  0.56630  1.0000 -0.2332702121
O   O25       1.0  0.57512  0.99552  0.38462  1.0000 -0.440173884
O   O26       1.0  0.57256  0.07092  0.46224  1.0000 -0.4208082867
O   O27       1.0  0.05338  0.86844  0.25142  1.0000 -0.4560202258
O   O28       1.0  0.06047  0.79333  0.16773  1.0000 -0.4208082867
O   O29       1.0  0.72133  0.05287  0.50047  1.0000 -0.2230975898
O   O30       1.0  0.68370  0.15530  0.39170  1.0000 -0.2332702121
O   O31       1.0  0.38462  0.04474  0.57512  1.0000 -0.440173884
O   O32       1.0  0.46224  0.89428  0.57256  1.0000 -0.4208082867
O   O33       1.0  0.25142  0.82676  0.05338  1.0000 -0.4560202258
O   O34       1.0  0.16773  0.97847  0.06047  1.0000 -0.4250398772
O   O35       1.0  0.50047  0.72533  0.72133  1.0000 -0.2230975898
O   O36       1.0  0.39170  0.76930  0.68370  1.0000 -0.2332702121
O   O37       1.0  0.25448  0.67488  0.20526  1.0000 -0.440173884
O   O38       1.0  0.17908  0.67744  0.35572  1.0000 -0.4208082867
O   O39       1.0  0.38156  0.19662  0.42324  1.0000 -0.4540749925
O   O40       1.0  0.45667  0.18953  0.27153  1.0000 -0.4250398772
O   O41       1.0  0.19713  0.52867  0.52467  1.0000 -0.2230975898
O   O42       1.0  0.09470  0.56630  0.48070  1.0000 -0.2332702121
O   O43       1.0  0.20526  0.86538  0.25448  1.0000 -0.440173884
O   O44       1.0  0.35572  0.78776  0.17908  1.0000 -0.4208082867
O   O45       1.0  0.42324  0.99858  0.38156  1.0000 -0.4560202258
O   O46       1.0  0.27153  0.08227  0.45667  1.0000 -0.4250398772
O   O47       1.0  0.52467  0.74953  0.19713  1.0000 -0.2230975898
O   O48       1.0  0.48070  0.85830  0.09470  1.0000 -0.2332702121
