# DDEC6 charges by PACMAN v1.1 (https://github.com/mtap-research/PACMAN-charge/)
data_2021[Zn][kgd]2[ASR]1
_chemical_formula_sum              "Zn2 H14 C30 N8 O8"
_cell_length_a       7.9522
_cell_length_b       9.3965
_cell_length_c       12.4443
_cell_angle_alpha    82.983
_cell_angle_beta     86.026
_cell_angle_gamma    66.322

_symmetry_space_group_name_H-M    "P 1"
_symmetry_Int_Tables_number       1

loop_
  _symmetry_equiv_pos_as_xyz
  'x, y, z'

loop_
  _atom_site_type_symbol
  _atom_site_label
  _atom_site_symmetry_multiplicity
  _atom_site_fract_x
  _atom_site_fract_y
  _atom_site_fract_z
  _atom_site_occupancy
  _atom_site_charge
Zn  Zn1       1.0  0.91966  0.35552  0.97448  1.0000 0.8403414596
Zn  Zn2       1.0  0.08034  0.64448  0.02552  1.0000 0.8403414596
H   H1        1.0  0.39910  0.93120  0.95200  1.0000 0.129332881
H   H2        1.0  0.80400  0.72880  0.74090  1.0000 0.1382425957
H   H3        1.0  0.43690  0.16690  0.66600  1.0000 0.1382425957
H   H4        1.0  0.67980  0.44130  0.18150  1.0000 0.1382425957
H   H5        1.0  0.05210  0.05180  0.09310  1.0000 0.1204424366
H   H6        1.0  0.63800  0.31670  0.34590  1.0000 0.1571190838
H   H7        1.0  0.02540  0.92110  0.25460  1.0000 0.1482216525
H   H8        1.0  0.60090  0.06880  0.04800  1.0000 0.129332881
H   H9        1.0  0.19600  0.27120  0.25910  1.0000 0.1382425957
H   H10       1.0  0.56310  0.83310  0.33400  1.0000 0.1382425957
H   H11       1.0  0.32020  0.55870  0.81850  1.0000 0.1382425957
H   H12       1.0  0.94790  0.94820  0.90690  1.0000 0.1204424366
H   H13       1.0  0.36200  0.68330  0.65410  1.0000 0.1571190838
H   H14       1.0  0.97460  0.07890  0.74540  1.0000 0.1482216525
C   C1        1.0  0.68550  0.66240  0.93590  1.0000 0.5709571648
C   C2        1.0  0.22190  0.20880  0.84160  1.0000 0.5510035265
C   C3        1.0  0.72600  0.95270  0.57840  1.0000 0.2894267249
C   C4        1.0  0.45880  0.93610  0.88550  1.0000 -0.1192257893
C   C5        1.0  0.70040  0.81460  0.75910  1.0000 -0.1317508709
C   C6        1.0  0.48090  0.07660  0.71400  1.0000 -0.1108883474
C   C7        1.0  0.81100  0.01630  0.42290  1.0000 0.2599072266
C   C8        1.0  0.74960  0.33490  0.19640  1.0000 0.1204424366
C   C9        1.0  0.39230  0.07120  0.81410  1.0000 -0.011638693
C   C10       1.0  0.96900  0.10620  0.14490  1.0000 0.0745941508
C   C11       1.0  0.61310  0.80910  0.85830  1.0000 -0.011638693
C   C12       1.0  0.63280  0.94970  0.68530  1.0000 0.0410735119
C   C13       1.0  0.82740  0.10480  0.31970  1.0000 0.0944994647
C   C14       1.0  0.72420  0.26080  0.29590  1.0000 -0.1317508709
C   C15       1.0  0.95280  0.02710  0.24110  1.0000 -0.144091573
C   C16       1.0  0.31450  0.33760  0.06410  1.0000 0.5709571648
C   C17       1.0  0.77810  0.79120  0.15840  1.0000 0.5510035265
C   C18       1.0  0.27400  0.04730  0.42160  1.0000 0.2894267249
C   C19       1.0  0.54120  0.06390  0.11450  1.0000 -0.1192257893
C   C20       1.0  0.29960  0.18540  0.24090  1.0000 -0.1317508709
C   C21       1.0  0.51910  0.92340  0.28600  1.0000 -0.1108883474
C   C22       1.0  0.18900  0.98370  0.57710  1.0000 0.2599072266
C   C23       1.0  0.25040  0.66510  0.80360  1.0000 0.1204424366
C   C24       1.0  0.60770  0.92880  0.18590  1.0000 -0.011638693
C   C25       1.0  0.03100  0.89380  0.85510  1.0000 0.0745941508
C   C26       1.0  0.38690  0.19090  0.14170  1.0000 -0.011638693
C   C27       1.0  0.36720  0.05030  0.31470  1.0000 0.0410735119
C   C28       1.0  0.17260  0.89520  0.68030  1.0000 0.0944994647
C   C29       1.0  0.27580  0.73920  0.70410  1.0000 -0.1317508709
C   C30       1.0  0.04720  0.97290  0.75890  1.0000 -0.144091573
N   N1        1.0  0.86970  0.26010  0.12140  1.0000 -0.2277287994
N   N2        1.0  0.86280  0.82930  0.54380  1.0000 -0.2277287994
N   N3        1.0  0.68690  0.07580  0.50410  1.0000 -0.3985326629
N   N4        1.0  0.92010  0.86760  0.44390  1.0000 -0.2086278689
N   N5        1.0  0.13030  0.73990  0.87860  1.0000 -0.2277287994
N   N6        1.0  0.13720  0.17070  0.45620  1.0000 -0.2277287994
N   N7        1.0  0.31310  0.92420  0.49590  1.0000 -0.3985326629
N   N8        1.0  0.07990  0.13240  0.55610  1.0000 -0.2086278689
O   O1        1.0  0.14810  0.19080  0.93310  1.0000 -0.5548117351
O   O2        1.0  0.85340  0.57110  0.91870  1.0000 -0.5588919711
O   O3        1.0  0.16260  0.32520  0.77790  1.0000 -0.4638716769
O   O4        1.0  0.58790  0.63440  0.00900  1.0000 -0.5088710379
O   O5        1.0  0.85190  0.80920  0.06690  1.0000 -0.5588919711
O   O6        1.0  0.14660  0.42890  0.08130  1.0000 -0.5588919711
O   O7        1.0  0.83740  0.67480  0.22210  1.0000 -0.4638716769
O   O8        1.0  0.41210  0.36560  0.99100  1.0000 -0.5088710379
