# DDEC6 charges by PACMAN v1.1 (https://github.com/mtap-research/PACMAN-charge/)
data_2021[Cd][sql]2[ASR]3
_chemical_formula_sum              "Cd2 H22 C32 N8 O10"
_cell_length_a       9.5063
_cell_length_b       10.1601
_cell_length_c       11.085
_cell_angle_alpha    113.778
_cell_angle_beta     105.872
_cell_angle_gamma    90.616

_symmetry_space_group_name_H-M    "P 1"
_symmetry_Int_Tables_number       1

loop_
  _symmetry_equiv_pos_as_xyz
  'x, y, z'

loop_
  _atom_site_type_symbol
  _atom_site_label
  _atom_site_symmetry_multiplicity
  _atom_site_fract_x
  _atom_site_fract_y
  _atom_site_fract_z
  _atom_site_occupancy
  _atom_site_charge
Cd  Cd1       1.0  0.49109  0.20857  0.18457  1.0000 0.914063535
Cd  Cd2       1.0  0.50891  0.79143  0.81543  1.0000 0.914063535
H   H1        1.0  0.44550  0.16850  0.84950  1.0000 0.1195873518
H   H2        1.0  0.30210  0.24160  0.68900  1.0000 0.153420768
H   H3        1.0  0.11000  0.36630  0.74070  1.0000 0.1026537635
H   H4        1.0  0.06970  0.98960  0.81330  1.0000 0.1195873518
H   H5        1.0  0.15890  0.06930  0.37030  1.0000 0.1082402983
H   H6        1.0  0.29390  0.99410  0.53060  1.0000 0.1082402983
H   H7        1.0  0.23190  0.72120  0.06580  1.0000 0.1082402983
H   H8        1.0  0.37430  0.64940  0.22780  1.0000 0.1082402983
H   H9        1.0  0.05610  0.44070  0.23950  1.0000 0.3200091639
H   H10       1.0  0.02330  0.44590  0.10230  1.0000 0.2881741443
H   H11       1.0  0.31340  0.34950  0.41150  1.0000 0.3406073072
H   H12       1.0  0.55450  0.83150  0.15050  1.0000 0.1195873518
H   H13       1.0  0.69790  0.75840  0.31100  1.0000 0.153420768
H   H14       1.0  0.89000  0.63370  0.25930  1.0000 0.1026537635
H   H15       1.0  0.93030  0.01040  0.18670  1.0000 0.1195873518
H   H16       1.0  0.84110  0.93070  0.62970  1.0000 0.1082402983
H   H17       1.0  0.70610  0.00590  0.46940  1.0000 0.1082402983
H   H18       1.0  0.76810  0.27880  0.93420  1.0000 0.1082402983
H   H19       1.0  0.62570  0.35060  0.77220  1.0000 0.1082402983
H   H20       1.0  0.94390  0.55930  0.76050  1.0000 0.3200091639
H   H21       1.0  0.97670  0.55410  0.89770  1.0000 0.2881741443
H   H22       1.0  0.68660  0.65050  0.58850  1.0000 0.3406073072
C   C1        1.0  0.36850  0.22060  0.86870  1.0000 0.1297596612
C   C2        1.0  0.28360  0.26280  0.77260  1.0000 -0.1744583033
C   C3        1.0  0.16970  0.33780  0.80500  1.0000 0.1026537635
C   C4        1.0  0.22960  0.32630  0.01180  1.0000 0.2667947926
C   C5        1.0  0.19710  0.35750  0.14440  1.0000 0.2881741443
C   C6        1.0  0.28230  0.91350  0.96490  1.0000 0.5630994656
C   C7        1.0  0.04120  0.99420  0.88850  1.0000 -0.1633966125
C   C8        1.0  0.13340  0.95120  0.98270  1.0000 -0.0655516672
C   C9        1.0  0.09300  0.95590  0.09830  1.0000 0.0366335579
C   C10       1.0  0.18260  0.90540  0.19990  1.0000 0.0770402917
C   C11       1.0  0.20180  0.98480  0.34100  1.0000 -0.1356550536
C   C12       1.0  0.28320  0.93990  0.43730  1.0000 -0.1014068729
C   C13       1.0  0.24620  0.77770  0.15940  1.0000 -0.1508939049
C   C14       1.0  0.33060  0.73350  0.25690  1.0000 -0.1225224144
C   C15       1.0  0.35030  0.81340  0.39660  1.0000 -0.0233425244
C   C16       1.0  0.44180  0.76910  0.50450  1.0000 0.5666082718
C   C17       1.0  0.63150  0.77940  0.13130  1.0000 0.1297596612
C   C18       1.0  0.71640  0.73720  0.22740  1.0000 -0.1744583033
C   C19       1.0  0.83030  0.66220  0.19500  1.0000 0.1026537635
C   C20       1.0  0.77040  0.67370  0.98820  1.0000 0.2667947926
C   C21       1.0  0.80290  0.64250  0.85560  1.0000 0.2881741443
C   C22       1.0  0.71770  0.08650  0.03510  1.0000 0.5630994656
C   C23       1.0  0.95880  0.00580  0.11150  1.0000 -0.1633966125
C   C24       1.0  0.86660  0.04880  0.01730  1.0000 -0.0655516672
C   C25       1.0  0.90700  0.04410  0.90170  1.0000 0.0366335579
C   C26       1.0  0.81740  0.09460  0.80010  1.0000 0.0770402917
C   C27       1.0  0.79820  0.01520  0.65900  1.0000 -0.1356550536
C   C28       1.0  0.71680  0.06010  0.56270  1.0000 -0.1014068729
C   C29       1.0  0.75380  0.22230  0.84060  1.0000 -0.1508939049
C   C30       1.0  0.66940  0.26650  0.74310  1.0000 -0.1225224144
C   C31       1.0  0.64970  0.18660  0.60340  1.0000 -0.0233425244
C   C32       1.0  0.55820  0.23090  0.49550  1.0000 0.5666082718
N   N1        1.0  0.34300  0.25280  0.99010  1.0000 -0.3225217096
N   N2        1.0  0.14060  0.37180  0.92550  1.0000 -0.3225217096
N   N3        1.0  0.07790  0.42250  0.16440  1.0000 -0.5310229442
N   N4        1.0  0.28550  0.31830  0.23010  1.0000 -0.2340807996
N   N5        1.0  0.65700  0.74720  0.00990  1.0000 -0.3225217096
N   N6        1.0  0.85940  0.62820  0.07450  1.0000 -0.3225217096
N   N7        1.0  0.92210  0.57750  0.83560  1.0000 -0.5310229442
N   N8        1.0  0.71450  0.68170  0.76990  1.0000 -0.2340807996
O   O1        1.0  0.39550  0.96830  0.06620  1.0000 -0.5557908199
O   O2        1.0  0.28270  0.82790  0.84470  1.0000 -0.5235098086
O   O3        1.0  0.42150  0.82360  0.62100  1.0000 -0.5432256243
O   O4        1.0  0.53480  0.68500  0.47380  1.0000 -0.5705296776
O   O5        1.0  0.24380  0.35250  0.35010  1.0000 -0.2819049588
O   O6        1.0  0.60450  0.03170  0.93380  1.0000 -0.5547770641
O   O7        1.0  0.71730  0.17210  0.15530  1.0000 -0.5235098086
O   O8        1.0  0.57850  0.17640  0.37900  1.0000 -0.5432256243
O   O9        1.0  0.46520  0.31500  0.52620  1.0000 -0.5705296776
O   O10       1.0  0.75620  0.64750  0.64990  1.0000 -0.2819049588
