# DDEC6 charges by PACMAN v1.1 (https://github.com/mtap-research/PACMAN-charge/)
data_2021[Sm][pcu]3[ASR]1
_chemical_formula_sum              "Sm4 H40 C48 N4 O24"
_cell_length_a       6.1775
_cell_length_b       22.1665
_cell_length_c       12.0924
_cell_angle_alpha    90
_cell_angle_beta     110.826
_cell_angle_gamma    90

_symmetry_space_group_name_H-M    "P 1"
_symmetry_Int_Tables_number       1

loop_
  _symmetry_equiv_pos_as_xyz
  'x, y, z'

loop_
  _atom_site_type_symbol
  _atom_site_label
  _atom_site_symmetry_multiplicity
  _atom_site_fract_x
  _atom_site_fract_y
  _atom_site_fract_z
  _atom_site_occupancy
  _atom_site_charge
Sm  Sm1       1.0  0.84743  0.75158  0.41291  1.0000 1.952668638
Sm  Sm2       1.0  0.15257  0.25158  0.08709  1.0000 1.952668638
Sm  Sm3       1.0  0.15257  0.24842  0.58709  1.0000 1.952668638
Sm  Sm4       1.0  0.84743  0.74842  0.91291  1.0000 1.952668638
H   H1        1.0  0.80514  0.40828  0.27912  1.0000 0.1310295919
H   H2        1.0  0.93418  0.50238  0.35293  1.0000 0.1099446165
H   H3        1.0  0.32027  0.53934  0.37610  1.0000 0.1221314977
H   H4        1.0  0.18742  0.44536  0.30083  1.0000 0.1099446165
H   H5        1.0  0.89512  0.59335  0.44588  1.0000 0.1221314977
H   H6        1.0  0.67346  0.60489  0.47690  1.0000 0.1310295919
H   H7        1.0  0.35599  0.68196  0.21643  1.0000 0.1624782095
H   H8        1.0  0.31816  0.61906  0.26647  1.0000 0.1310295919
H   H9        1.0  0.85118  0.60255  0.24180  1.0000 0.1384645859
H   H10       1.0  0.58823  0.60517  0.16187  1.0000 0.1384645859
H   H11       1.0  0.19486  0.90828  0.22088  1.0000 0.1310295919
H   H12       1.0  0.06582  0.00238  0.14707  1.0000 0.1099446165
H   H13       1.0  0.67973  0.03934  0.12390  1.0000 0.1221314977
H   H14       1.0  0.81258  0.94536  0.19917  1.0000 0.1099446165
H   H15       1.0  0.10488  0.09335  0.05412  1.0000 0.1221314977
H   H16       1.0  0.32654  0.10489  0.02310  1.0000 0.1310295919
H   H17       1.0  0.64401  0.18196  0.28357  1.0000 0.1624782095
H   H18       1.0  0.68184  0.11906  0.23353  1.0000 0.1310295919
H   H19       1.0  0.14882  0.10255  0.25820  1.0000 0.1384645859
H   H20       1.0  0.41177  0.10517  0.33813  1.0000 0.1384645859
H   H21       1.0  0.19486  0.59172  0.72088  1.0000 0.1310295919
H   H22       1.0  0.06582  0.49762  0.64707  1.0000 0.1099446165
H   H23       1.0  0.67973  0.46066  0.62390  1.0000 0.1221314977
H   H24       1.0  0.81258  0.55464  0.69917  1.0000 0.1099446165
H   H25       1.0  0.10488  0.40665  0.55412  1.0000 0.1221314977
H   H26       1.0  0.32654  0.39511  0.52310  1.0000 0.1310295919
H   H27       1.0  0.64401  0.31804  0.78357  1.0000 0.1624782095
H   H28       1.0  0.68184  0.38094  0.73353  1.0000 0.1310295919
H   H29       1.0  0.14882  0.39745  0.75820  1.0000 0.1384645859
H   H30       1.0  0.41177  0.39483  0.83813  1.0000 0.1384645859
H   H31       1.0  0.80514  0.09172  0.77912  1.0000 0.1310295919
H   H32       1.0  0.93418  0.99762  0.85293  1.0000 0.1099446165
H   H33       1.0  0.32027  0.96066  0.87610  1.0000 0.1221314977
H   H34       1.0  0.18742  0.05464  0.80083  1.0000 0.1099446165
H   H35       1.0  0.89512  0.90665  0.94588  1.0000 0.1221314977
H   H36       1.0  0.67346  0.89511  0.97690  1.0000 0.1310295919
H   H37       1.0  0.35599  0.81804  0.71643  1.0000 0.1624782095
H   H38       1.0  0.31816  0.88094  0.76647  1.0000 0.1310295919
H   H39       1.0  0.85118  0.89745  0.74180  1.0000 0.1384645859
H   H40       1.0  0.58823  0.89483  0.66187  1.0000 0.1384645859
C   C1        1.0  0.47880  0.41740  0.27910  1.0000 -0.0120120334
C   C2        1.0  0.70560  0.43480  0.29700  1.0000 -0.0862423917
C   C3        1.0  0.78250  0.49140  0.34140  1.0000 -0.1717146178
C   C4        1.0  0.63980  0.53210  0.36920  1.0000 0.1099446165
C   C5        1.0  0.41770  0.51340  0.35510  1.0000 -0.1717146178
C   C6        1.0  0.33770  0.45680  0.31010  1.0000 -0.1002661501
C   C7        1.0  0.72730  0.59450  0.41310  1.0000 -0.2099058693
C   C8        1.0  0.38620  0.35790  0.22390  1.0000 0.5831165622
C   C9        1.0  0.40460  0.65650  0.28630  1.0000 -0.3054684987
C   C10       1.0  0.35170  0.68790  0.38520  1.0000 0.6636396656
C   C11       1.0  0.71450  0.62800  0.21720  1.0000 -0.2797531774
C   C12       1.0  0.76020  0.68360  0.15540  1.0000 0.6691476117
C   C13       1.0  0.52120  0.91740  0.22090  1.0000 -0.0120120334
C   C14       1.0  0.29440  0.93480  0.20300  1.0000 -0.0862423917
C   C15       1.0  0.21750  0.99140  0.15860  1.0000 -0.1717146178
C   C16       1.0  0.36020  0.03210  0.13080  1.0000 0.1099446165
C   C17       1.0  0.58230  0.01340  0.14490  1.0000 -0.1717146178
C   C18       1.0  0.66230  0.95680  0.18990  1.0000 -0.1002661501
C   C19       1.0  0.27270  0.09450  0.08690  1.0000 -0.2099058693
C   C20       1.0  0.61380  0.85790  0.27610  1.0000 0.5831165622
C   C21       1.0  0.59540  0.15650  0.21370  1.0000 -0.3054684987
C   C22       1.0  0.64830  0.18790  0.11480  1.0000 0.6636396656
C   C23       1.0  0.28550  0.12800  0.28280  1.0000 -0.2797531774
C   C24       1.0  0.23980  0.18360  0.34460  1.0000 0.6691476117
C   C25       1.0  0.52120  0.58260  0.72090  1.0000 -0.0120120334
C   C26       1.0  0.29440  0.56520  0.70300  1.0000 -0.0862423917
C   C27       1.0  0.21750  0.50860  0.65860  1.0000 -0.1717146178
C   C28       1.0  0.36020  0.46790  0.63080  1.0000 0.1099446165
C   C29       1.0  0.58230  0.48660  0.64490  1.0000 -0.1717146178
C   C30       1.0  0.66230  0.54320  0.68990  1.0000 -0.1002661501
C   C31       1.0  0.27270  0.40550  0.58690  1.0000 -0.2099058693
C   C32       1.0  0.61380  0.64210  0.77610  1.0000 0.5831165622
C   C33       1.0  0.59540  0.34350  0.71370  1.0000 -0.3054684987
C   C34       1.0  0.64830  0.31210  0.61480  1.0000 0.6636396656
C   C35       1.0  0.28550  0.37200  0.78280  1.0000 -0.2797531774
C   C36       1.0  0.23980  0.31640  0.84460  1.0000 0.6691476117
C   C37       1.0  0.47880  0.08260  0.77910  1.0000 -0.0120120334
C   C38       1.0  0.70560  0.06520  0.79700  1.0000 -0.0862423917
C   C39       1.0  0.78250  0.00860  0.84140  1.0000 -0.1717146178
C   C40       1.0  0.63980  0.96790  0.86920  1.0000 0.1099446165
C   C41       1.0  0.41770  0.98660  0.85510  1.0000 -0.1717146178
C   C42       1.0  0.33770  0.04320  0.81010  1.0000 -0.1002661501
C   C43       1.0  0.72730  0.90550  0.91310  1.0000 -0.2099058693
C   C44       1.0  0.38620  0.14210  0.72390  1.0000 0.5831165622
C   C45       1.0  0.40460  0.84350  0.78630  1.0000 -0.3054684987
C   C46       1.0  0.35170  0.81210  0.88520  1.0000 0.6636396656
C   C47       1.0  0.71450  0.87200  0.71720  1.0000 -0.2797531774
C   C48       1.0  0.76020  0.81640  0.65540  1.0000 0.6691476117
N   N1        1.0  0.65480  0.64360  0.32180  1.0000 -0.1128495139
N   N2        1.0  0.34520  0.14360  0.17820  1.0000 -0.1128495139
N   N3        1.0  0.34520  0.35640  0.67820  1.0000 -0.1128495139
N   N4        1.0  0.65480  0.85640  0.82180  1.0000 -0.1128495139
O   O1        1.0  0.52110  0.31660  0.21580  1.0000 -0.6096670022
O   O2        1.0  0.16810  0.35060  0.18330  1.0000 -0.6386027624
O   O3        1.0  0.51030  0.71850  0.45730  1.0000 -0.6253445139
O   O4        1.0  0.77040  0.73380  0.20410  1.0000 -0.6386027624
O   O5        1.0  0.78890  0.67540  0.05870  1.0000 -0.6488626291
O   O6        1.0  0.15010  0.68380  0.38730  1.0000 -0.6641589393
O   O7        1.0  0.47890  0.81660  0.28420  1.0000 -0.6096670022
O   O8        1.0  0.83190  0.85060  0.31670  1.0000 -0.6386027624
O   O9        1.0  0.48970  0.21850  0.04270  1.0000 -0.6253445139
O   O10       1.0  0.22960  0.23380  0.29590  1.0000 -0.6386027624
O   O11       1.0  0.21110  0.17540  0.44130  1.0000 -0.6488626291
O   O12       1.0  0.84990  0.18380  0.11270  1.0000 -0.6641589393
O   O13       1.0  0.47890  0.68340  0.78420  1.0000 -0.6096670022
O   O14       1.0  0.83190  0.64940  0.81670  1.0000 -0.6386027624
O   O15       1.0  0.48970  0.28150  0.54270  1.0000 -0.6253445139
O   O16       1.0  0.22960  0.26620  0.79590  1.0000 -0.6386027624
O   O17       1.0  0.21110  0.32460  0.94130  1.0000 -0.6488626291
O   O18       1.0  0.84990  0.31620  0.61270  1.0000 -0.6641589393
O   O19       1.0  0.52110  0.18340  0.71580  1.0000 -0.6096670022
O   O20       1.0  0.16810  0.14940  0.68330  1.0000 -0.6386027624
O   O21       1.0  0.51030  0.78150  0.95730  1.0000 -0.6253445139
O   O22       1.0  0.77040  0.76620  0.70410  1.0000 -0.6386027624
O   O23       1.0  0.78890  0.82460  0.55870  1.0000 -0.6488626291
O   O24       1.0  0.15010  0.81620  0.88730  1.0000 -0.6641589393
