# DDEC6 charges by PACMAN v1.1 (https://github.com/mtap-research/PACMAN-charge/)
data_2021[U][cds]3[ASR]1
_chemical_formula_sum              "U8 H80 C80 N8 O40"
_cell_length_a       18.181
_cell_length_b       14.565
_cell_length_c       27.228
_cell_angle_alpha    90
_cell_angle_beta     93.017
_cell_angle_gamma    90

_symmetry_space_group_name_H-M    "P 1"
_symmetry_Int_Tables_number       1

loop_
  _symmetry_equiv_pos_as_xyz
  'x, y, z'

loop_
  _atom_site_type_symbol
  _atom_site_label
  _atom_site_symmetry_multiplicity
  _atom_site_fract_x
  _atom_site_fract_y
  _atom_site_fract_z
  _atom_site_occupancy
  _atom_site_charge
U   U1        1.0  0.17689  0.66310  0.26014  1.0000 2.3294960542
U   U2        1.0  0.32515  0.85205  0.25444  1.0000 2.3625759566
U   U3        1.0  0.82311  0.66310  0.23986  1.0000 2.3294960542
U   U4        1.0  0.67485  0.85205  0.24556  1.0000 2.3625759566
U   U5        1.0  0.82311  0.33690  0.73986  1.0000 2.3294960542
U   U6        1.0  0.67485  0.14795  0.74556  1.0000 2.3652935311
U   U7        1.0  0.17689  0.33690  0.76014  1.0000 2.3294960542
U   U8        1.0  0.32515  0.14795  0.75444  1.0000 2.3625759566
H   H1        1.0  0.45430  0.49550  0.42030  1.0000 0.099307878
H   H2        1.0  0.48500  0.39880  0.43640  1.0000 0.0889125574
H   H3        1.0  0.30230  0.48170  0.36180  1.0000 0.1119983839
H   H4        1.0  0.16290  0.07330  0.13500  1.0000 0.099307878
H   H5        1.0  0.37350  0.01050  0.16640  1.0000 0.1119983839
H   H6        1.0  0.10060  0.94410  0.04620  1.0000 0.099307878
H   H7        1.0  0.06530  0.02690  0.07320  1.0000 0.099307878
H   H8        1.0  0.33570  0.45120  0.44320  1.0000 0.099307878
H   H9        1.0  0.36650  0.35460  0.45880  1.0000 0.099307878
H   H10       1.0  0.30150  0.27820  0.26430  1.0000 0.1307534746
H   H11       1.0  0.38770  0.98640  0.08230  1.0000 0.1307534746
H   H12       1.0  0.45600  0.43000  0.51790  1.0000 0.0889125574
H   H13       1.0  0.42630  0.52690  0.50160  1.0000 0.0843294769
H   H14       1.0  0.05980  0.00430  0.97070  1.0000 0.0843294769
H   H15       1.0  0.02640  0.08880  0.99690  1.0000 0.0843294769
H   H16       1.0  0.39970  0.24630  0.39580  1.0000 0.1119983839
H   H17       1.0  0.14680  0.12750  0.04190  1.0000 0.099307878
H   H18       1.0  0.17690  0.05210  0.00720  1.0000 0.0889125574
H   H19       1.0  0.28920  0.99800  0.02800  1.0000 0.099307878
H   H20       1.0  0.36730  0.19040  0.31970  1.0000 0.1384663268
H   H21       1.0  0.54570  0.49550  0.07970  1.0000 0.099307878
H   H22       1.0  0.51500  0.39880  0.06360  1.0000 0.0889125574
H   H23       1.0  0.69770  0.48170  0.13820  1.0000 0.1119983839
H   H24       1.0  0.83710  0.07330  0.36500  1.0000 0.099307878
H   H25       1.0  0.62650  0.01050  0.33360  1.0000 0.1119983839
H   H26       1.0  0.89940  0.94410  0.45380  1.0000 0.099307878
H   H27       1.0  0.93470  0.02690  0.42680  1.0000 0.0889125574
H   H28       1.0  0.66430  0.45120  0.05680  1.0000 0.099307878
H   H29       1.0  0.63350  0.35460  0.04120  1.0000 0.099307878
H   H30       1.0  0.69850  0.27820  0.23570  1.0000 0.1307534746
H   H31       1.0  0.61230  0.98640  0.41770  1.0000 0.1307534746
H   H32       1.0  0.54400  0.43000  0.98210  1.0000 0.0889125574
H   H33       1.0  0.57370  0.52690  0.99840  1.0000 0.0843294769
H   H34       1.0  0.94020  0.00430  0.52930  1.0000 0.0889125574
H   H35       1.0  0.97360  0.08880  0.50310  1.0000 0.0889125574
H   H36       1.0  0.60030  0.24630  0.10420  1.0000 0.1119983839
H   H37       1.0  0.85320  0.12750  0.45810  1.0000 0.099307878
H   H38       1.0  0.82310  0.05210  0.49280  1.0000 0.0889125574
H   H39       1.0  0.71080  0.99800  0.47200  1.0000 0.099307878
H   H40       1.0  0.63270  0.19040  0.18030  1.0000 0.1384663268
H   H41       1.0  0.54570  0.50450  0.57970  1.0000 0.099307878
H   H42       1.0  0.51500  0.60120  0.56360  1.0000 0.0889125574
H   H43       1.0  0.69770  0.51830  0.63820  1.0000 0.1119983839
H   H44       1.0  0.83710  0.92670  0.86500  1.0000 0.099307878
H   H45       1.0  0.62650  0.98950  0.83360  1.0000 0.1119983839
H   H46       1.0  0.89940  0.05590  0.95380  1.0000 0.099307878
H   H47       1.0  0.93470  0.97310  0.92680  1.0000 0.0889125574
H   H48       1.0  0.66430  0.54880  0.55680  1.0000 0.099307878
H   H49       1.0  0.63350  0.64540  0.54120  1.0000 0.099307878
H   H50       1.0  0.69850  0.72180  0.73570  1.0000 0.1307534746
H   H51       1.0  0.61230  0.01360  0.91770  1.0000 0.1307534746
H   H52       1.0  0.54400  0.57000  0.48210  1.0000 0.0889125574
H   H53       1.0  0.57370  0.47310  0.49840  1.0000 0.0843294769
H   H54       1.0  0.94020  0.99570  0.02930  1.0000 0.0843294769
H   H55       1.0  0.97360  0.91120  0.00310  1.0000 0.0843294769
H   H56       1.0  0.60030  0.75370  0.60420  1.0000 0.1119983839
H   H57       1.0  0.85320  0.87250  0.95810  1.0000 0.099307878
H   H58       1.0  0.82310  0.94790  0.99280  1.0000 0.0889125574
H   H59       1.0  0.71080  0.00200  0.97200  1.0000 0.099307878
H   H60       1.0  0.63270  0.80960  0.68030  1.0000 0.1384663268
H   H61       1.0  0.45430  0.50450  0.92030  1.0000 0.099307878
H   H62       1.0  0.48500  0.60120  0.93640  1.0000 0.0889125574
H   H63       1.0  0.30230  0.51830  0.86180  1.0000 0.1119983839
H   H64       1.0  0.16290  0.92670  0.63500  1.0000 0.099307878
H   H65       1.0  0.37350  0.98950  0.66640  1.0000 0.1119983839
H   H66       1.0  0.10060  0.05590  0.54620  1.0000 0.099307878
H   H67       1.0  0.06530  0.97310  0.57320  1.0000 0.0889125574
H   H68       1.0  0.33570  0.54880  0.94320  1.0000 0.099307878
H   H69       1.0  0.36650  0.64540  0.95880  1.0000 0.099307878
H   H70       1.0  0.30150  0.72180  0.76430  1.0000 0.1307534746
H   H71       1.0  0.38770  0.01360  0.58230  1.0000 0.1307534746
H   H72       1.0  0.45600  0.57000  0.01790  1.0000 0.0889125574
H   H73       1.0  0.42630  0.47310  0.00160  1.0000 0.0889125574
H   H74       1.0  0.05980  0.99570  0.47070  1.0000 0.0889125574
H   H75       1.0  0.02640  0.91120  0.49690  1.0000 0.0889125574
H   H76       1.0  0.39970  0.75370  0.89580  1.0000 0.1119983839
H   H77       1.0  0.14680  0.87250  0.54190  1.0000 0.099307878
H   H78       1.0  0.17690  0.94790  0.50720  1.0000 0.0889125574
H   H79       1.0  0.28920  0.00200  0.52800  1.0000 0.099307878
H   H80       1.0  0.36730  0.80960  0.81970  1.0000 0.1384663268
C   C1        1.0  0.44870  0.44530  0.44320  1.0000 -0.2109463975
C   C2        1.0  0.31580  0.42260  0.35300  1.0000 -0.0124698168
C   C3        1.0  0.26550  0.04500  0.15960  1.0000 -0.1057074383
C   C4        1.0  0.20880  0.05550  0.12490  1.0000 -0.0124698168
C   C5        1.0  0.25570  0.45170  0.26970  1.0000 0.5594556763
C   C6        1.0  0.29750  0.39170  0.30620  1.0000 -0.0573282206
C   C7        1.0  0.33370  0.01820  0.14380  1.0000 -0.1016970188
C   C8        1.0  0.08870  0.00890  0.04350  1.0000 -0.2263409958
C   C9        1.0  0.25150  0.05610  0.21210  1.0000 0.6042364323
C   C10       1.0  0.37130  0.40440  0.43560  1.0000 -0.1391965501
C   C11       1.0  0.31570  0.30230  0.29490  1.0000 -0.0860988514
C   C12       1.0  0.34200  0.00280  0.09330  1.0000 -0.1583980896
C   C13       1.0  0.46270  0.48030  0.49520  1.0000 -0.1891195361
C   C14       1.0  0.03560  0.02300  0.00000  1.0000 -0.1891195361
C   C15       1.0  0.37280  0.28280  0.37330  1.0000 -0.0675704197
C   C16       1.0  0.15840  0.06270  0.03950  1.0000 -0.1474383452
C   C17       1.0  0.28410  0.01170  0.06100  1.0000 -0.0573282206
C   C18       1.0  0.35390  0.24980  0.32810  1.0000 -0.1391965501
C   C19       1.0  0.55130  0.44530  0.05680  1.0000 -0.2109463975
C   C20       1.0  0.68420  0.42260  0.14700  1.0000 -0.0124698168
C   C21       1.0  0.73450  0.04500  0.34040  1.0000 -0.1057074383
C   C22       1.0  0.79120  0.05550  0.37510  1.0000 -0.0124698168
C   C23       1.0  0.74430  0.45170  0.23030  1.0000 0.5594556763
C   C24       1.0  0.70250  0.39170  0.19380  1.0000 -0.0573282206
C   C25       1.0  0.66630  0.01820  0.35620  1.0000 -0.1016970188
C   C26       1.0  0.91130  0.00890  0.45650  1.0000 -0.2237346486
C   C27       1.0  0.74850  0.05610  0.28790  1.0000 0.6042364323
C   C28       1.0  0.62870  0.40440  0.06440  1.0000 -0.1391965501
C   C29       1.0  0.68430  0.30230  0.20510  1.0000 -0.0860988514
C   C30       1.0  0.65800  0.00280  0.40670  1.0000 -0.1583980896
C   C31       1.0  0.53730  0.48030  0.00480  1.0000 -0.1891195361
C   C32       1.0  0.96440  0.02300  0.50000  1.0000 -0.1891195361
C   C33       1.0  0.62720  0.28280  0.12670  1.0000 -0.0675704197
C   C34       1.0  0.84160  0.06270  0.46050  1.0000 -0.1474383452
C   C35       1.0  0.71590  0.01170  0.43900  1.0000 -0.0573282206
C   C36       1.0  0.64610  0.24980  0.17190  1.0000 -0.1391965501
C   C37       1.0  0.55130  0.55470  0.55680  1.0000 -0.2109463975
C   C38       1.0  0.68420  0.57740  0.64700  1.0000 -0.0124698168
C   C39       1.0  0.73450  0.95500  0.84040  1.0000 -0.1016970188
C   C40       1.0  0.79120  0.94450  0.87510  1.0000 -0.0124698168
C   C41       1.0  0.74430  0.54830  0.73030  1.0000 0.5594556763
C   C42       1.0  0.70250  0.60830  0.69380  1.0000 -0.0573282206
C   C43       1.0  0.66630  0.98180  0.85620  1.0000 -0.1016970188
C   C44       1.0  0.91130  0.99110  0.95650  1.0000 -0.2263409958
C   C45       1.0  0.74850  0.94390  0.78790  1.0000 0.6042364323
C   C46       1.0  0.62870  0.59560  0.56440  1.0000 -0.1391965501
C   C47       1.0  0.68430  0.69770  0.70510  1.0000 -0.0860988514
C   C48       1.0  0.65800  0.99720  0.90670  1.0000 -0.1583980896
C   C49       1.0  0.53730  0.51970  0.50480  1.0000 -0.1891195361
C   C50       1.0  0.96440  0.97700  0.00000  1.0000 -0.1891195361
C   C51       1.0  0.62720  0.71720  0.62670  1.0000 -0.0675704197
C   C52       1.0  0.84160  0.93730  0.96050  1.0000 -0.1474383452
C   C53       1.0  0.71590  0.98830  0.93900  1.0000 -0.0573282206
C   C54       1.0  0.64610  0.75020  0.67190  1.0000 -0.1391965501
C   C55       1.0  0.44870  0.55470  0.94320  1.0000 -0.2109463975
C   C56       1.0  0.31580  0.57740  0.85300  1.0000 -0.0124698168
C   C57       1.0  0.26550  0.95500  0.65960  1.0000 -0.1057074383
C   C58       1.0  0.20880  0.94450  0.62490  1.0000 -0.0124698168
C   C59       1.0  0.25570  0.54830  0.76970  1.0000 0.5594556763
C   C60       1.0  0.29750  0.60830  0.80620  1.0000 -0.0573282206
C   C61       1.0  0.33370  0.98180  0.64380  1.0000 -0.1016970188
C   C62       1.0  0.08870  0.99110  0.54350  1.0000 -0.2237346486
C   C63       1.0  0.25150  0.94390  0.71210  1.0000 0.6042364323
C   C64       1.0  0.37130  0.59560  0.93560  1.0000 -0.1391965501
C   C65       1.0  0.31570  0.69770  0.79490  1.0000 -0.0860988514
C   C66       1.0  0.34200  0.99720  0.59330  1.0000 -0.1583980896
C   C67       1.0  0.46270  0.51970  0.99520  1.0000 -0.1891195361
C   C68       1.0  0.03560  0.97700  0.50000  1.0000 -0.1891195361
C   C69       1.0  0.37280  0.71720  0.87330  1.0000 -0.0675704197
C   C70       1.0  0.15840  0.93730  0.53950  1.0000 -0.1474383452
C   C71       1.0  0.28410  0.98830  0.56100  1.0000 -0.0573282206
C   C72       1.0  0.35390  0.75020  0.82810  1.0000 -0.1391965501
C   C73       1.0  0.50000  0.80550  0.25000  1.0000 0.5728959426
C   C74       1.0  0.50000  0.90900  0.25000  1.0000 0.5514800831
C   C75       1.0  0.50000  0.19450  0.75000  1.0000 0.5728959426
C   C76       1.0  0.50000  0.09100  0.75000  1.0000 0.5514800831
C   C77       1.0  0.00000  0.60350  0.25000  1.0000 0.6042364323
C   C78       1.0  0.00000  0.70790  0.25000  1.0000 0.5943904802
C   C79       1.0  0.00000  0.39650  0.75000  1.0000 0.6042364323
C   C80       1.0  0.00000  0.29210  0.75000  1.0000 0.5943904802
N   N1        1.0  0.35260  0.36960  0.38630  1.0000 0.0196734768
N   N2        1.0  0.21730  0.04110  0.07670  1.0000 0.0058770201
N   N3        1.0  0.64740  0.36960  0.11370  1.0000 0.0196734768
N   N4        1.0  0.78270  0.04110  0.42330  1.0000 0.0046784248
N   N5        1.0  0.64740  0.63040  0.61370  1.0000 0.0196734768
N   N6        1.0  0.78270  0.95890  0.92330  1.0000 0.0058770201
N   N7        1.0  0.35260  0.63040  0.88630  1.0000 0.0196734768
N   N8        1.0  0.21730  0.95890  0.57670  1.0000 0.0058770201
O   O1        1.0  0.25520  0.43320  0.22720  1.0000 -0.4161712394
O   O2        1.0  0.22120  0.52170  0.28850  1.0000 -0.6622109876
O   O3        1.0  0.19920  0.82060  0.24830  1.0000 -1.1157231048
O   O4        1.0  0.30160  0.69500  0.26650  1.0000 -1.1446047739
O   O5        1.0  0.20990  0.11990  0.22320  1.0000 -0.5147810892
O   O6        1.0  0.44160  0.76740  0.26050  1.0000 -0.6156860307
O   O7        1.0  0.06060  0.74860  0.24330  1.0000 -0.6979588137
O   O8        1.0  0.28300  0.00080  0.24310  1.0000 -0.6622109876
O   O9        1.0  0.43950  0.94930  0.25110  1.0000 -0.6402679101
O   O10       1.0  0.06190  0.56520  0.25550  1.0000 -0.7235507832
O   O11       1.0  0.74480  0.43320  0.27280  1.0000 -0.4161712394
O   O12       1.0  0.77880  0.52170  0.21150  1.0000 -0.6622109876
O   O13       1.0  0.80080  0.82060  0.25170  1.0000 -1.1157231048
O   O14       1.0  0.69840  0.69500  0.23350  1.0000 -1.1446047739
O   O15       1.0  0.79010  0.11990  0.27680  1.0000 -0.5147810892
O   O16       1.0  0.55840  0.76740  0.23950  1.0000 -0.6156860307
O   O17       1.0  0.93940  0.74860  0.25670  1.0000 -0.6979588137
O   O18       1.0  0.71700  0.00080  0.25690  1.0000 -0.6622109876
O   O19       1.0  0.56050  0.94930  0.24890  1.0000 -0.6402679101
O   O20       1.0  0.93810  0.56520  0.24450  1.0000 -0.7235507832
O   O21       1.0  0.74480  0.56680  0.77280  1.0000 -0.4161712394
O   O22       1.0  0.77880  0.47830  0.71150  1.0000 -0.6622109876
O   O23       1.0  0.80080  0.17940  0.75170  1.0000 -1.1157231048
O   O24       1.0  0.69840  0.30500  0.73350  1.0000 -1.1446047739
O   O25       1.0  0.79010  0.88010  0.77680  1.0000 -0.5147810892
O   O26       1.0  0.55840  0.23260  0.73950  1.0000 -0.6156860307
O   O27       1.0  0.93940  0.25140  0.75670  1.0000 -0.6979588137
O   O28       1.0  0.71700  0.99920  0.75690  1.0000 -0.6622109876
O   O29       1.0  0.56050  0.05070  0.74890  1.0000 -0.6402679101
O   O30       1.0  0.93810  0.43480  0.74450  1.0000 -0.7235507832
O   O31       1.0  0.25520  0.56680  0.72720  1.0000 -0.4161712394
O   O32       1.0  0.22120  0.47830  0.78850  1.0000 -0.6622109876
O   O33       1.0  0.19920  0.17940  0.74830  1.0000 -1.1157231048
O   O34       1.0  0.30160  0.30500  0.76650  1.0000 -1.1446047739
O   O35       1.0  0.20990  0.88010  0.72320  1.0000 -0.5147810892
O   O36       1.0  0.44160  0.23260  0.76050  1.0000 -0.6156860307
O   O37       1.0  0.06060  0.25140  0.74330  1.0000 -0.6979588137
O   O38       1.0  0.28300  0.99920  0.74310  1.0000 -0.6622109876
O   O39       1.0  0.43950  0.05070  0.75110  1.0000 -0.6402679101
O   O40       1.0  0.06190  0.43480  0.75550  1.0000 -0.7235507832
