# DDEC6 charges by PACMAN v1.1 (https://github.com/mtap-research/PACMAN-charge/)
data_2021[Cd][tfz]3[ASR]5
_chemical_formula_sum              "Cd3 H14 C28 N20 O8"
_cell_length_a       9.472
_cell_length_b       10.723
_cell_length_c       12.341
_cell_angle_alpha    85.779
_cell_angle_beta     105.285
_cell_angle_gamma    115.848

_symmetry_space_group_name_H-M    "P 1"
_symmetry_Int_Tables_number       1

loop_
  _symmetry_equiv_pos_as_xyz
  'x, y, z'

loop_
  _atom_site_type_symbol
  _atom_site_label
  _atom_site_symmetry_multiplicity
  _atom_site_fract_x
  _atom_site_fract_y
  _atom_site_fract_z
  _atom_site_occupancy
  _atom_site_charge
Cd  Cd1       1.0  0.27011  0.38351  0.91162  1.0000 0.7435295475
Cd  Cd2       1.0  0.72989  0.61649  0.08838  1.0000 0.7435295475
Cd  Cd3       1.0  0.00000  0.50000  0.00000  1.0000 0.8147805226
H   H1        1.0  0.18070  0.08890  0.73730  1.0000 0.1316205802
H   H2        1.0  0.99460  0.90470  0.58480  1.0000 0.1316205802
H   H3        1.0  0.84080  0.91780  0.50810  1.0000 0.1380596054
H   H4        1.0  0.20380  0.87840  0.94050  1.0000 0.1210469497
H   H5        1.0  0.13270  0.05460  0.96470  1.0000 0.1139886422
H   H6        1.0  0.38960  0.11360  0.28690  1.0000 0.149701715
H   H7        1.0  0.47140  0.94540  0.26070  1.0000 0.149701715
H   H8        1.0  0.81930  0.91110  0.26270  1.0000 0.1316205802
H   H9        1.0  0.00540  0.09530  0.41520  1.0000 0.1316205802
H   H10       1.0  0.15920  0.08220  0.49190  1.0000 0.1380596054
H   H11       1.0  0.79620  0.12160  0.05950  1.0000 0.1210469497
H   H12       1.0  0.86730  0.94540  0.03530  1.0000 0.1139886422
H   H13       1.0  0.61040  0.88640  0.71310  1.0000 0.149701715
H   H14       1.0  0.52860  0.05460  0.73930  1.0000 0.149701715
C   C1        1.0  0.92480  0.34190  0.75680  1.0000 0.5733582271
C   C2        1.0  0.96770  0.24110  0.71270  1.0000 0.0246548993
C   C3        1.0  0.88870  0.15140  0.61660  1.0000 -0.0136420442
C   C4        1.0  0.75100  0.13720  0.52000  1.0000 0.5311813844
C   C5        1.0  0.10330  0.12340  0.71510  1.0000 0.1316205802
C   C6        1.0  0.95580  0.96890  0.54340  1.0000 -0.1124871517
C   C7        1.0  0.38390  0.77970  0.08030  1.0000 0.2838308704
C   C8        1.0  0.34080  0.89170  0.09890  1.0000 0.0328054868
C   C9        1.0  0.24130  0.92550  0.01010  1.0000 -0.1124871517
C   C10       1.0  0.19730  0.03000  0.02470  1.0000 -0.1315925824
C   C11       1.0  0.25090  0.09710  0.12970  1.0000 0.0328054868
C   C12       1.0  0.35260  0.06650  0.21740  1.0000 -0.0903608161
C   C13       1.0  0.40010  0.96470  0.20200  1.0000 -0.0607402258
C   C14       1.0  0.18830  0.19960  0.14330  1.0000 0.2678934825
C   C15       1.0  0.07520  0.65810  0.24320  1.0000 0.5733582271
C   C16       1.0  0.03230  0.75890  0.28730  1.0000 0.0246548993
C   C17       1.0  0.11130  0.84860  0.38340  1.0000 -0.0136420442
C   C18       1.0  0.24900  0.86280  0.48000  1.0000 0.5311813844
C   C19       1.0  0.89670  0.87660  0.28490  1.0000 0.1316205802
C   C20       1.0  0.04420  0.03110  0.45660  1.0000 -0.1124871517
C   C21       1.0  0.61610  0.22030  0.91970  1.0000 0.2838308704
C   C22       1.0  0.65920  0.10830  0.90110  1.0000 0.0328054868
C   C23       1.0  0.75870  0.07450  0.98990  1.0000 -0.1124871517
C   C24       1.0  0.80270  0.97000  0.97530  1.0000 -0.1315925824
C   C25       1.0  0.74910  0.90290  0.87030  1.0000 0.0328054868
C   C26       1.0  0.64740  0.93350  0.78260  1.0000 -0.0903608161
C   C27       1.0  0.59990  0.03530  0.79800  1.0000 -0.0607402258
C   C28       1.0  0.81170  0.80040  0.85670  1.0000 0.2678934825
N   N1        1.0  0.27860  0.66040  0.02140  1.0000 -0.2192707764
N   N2        1.0  0.36730  0.59380  0.01580  1.0000 -0.0607402258
N   N3        1.0  0.51820  0.66970  0.06860  1.0000 -0.0607402258
N   N4        1.0  0.53310  0.78800  0.11180  1.0000 -0.2287617432
N   N5        1.0  0.17010  0.28750  0.06520  1.0000 -0.2704691248
N   N6        1.0  0.09970  0.35290  0.10580  1.0000 -0.0496768835
N   N7        1.0  0.07510  0.30520  0.20200  1.0000 -0.0443512084
N   N8        1.0  0.12930  0.20530  0.22740  1.0000 -0.2704691248
N   N9        1.0  0.10000  0.22170  0.77150  1.0000 -0.3200750458
N   N10       1.0  0.98100  0.07980  0.62190  1.0000 0.0328054868
N   N11       1.0  0.72140  0.33960  0.97860  1.0000 -0.2192707764
N   N12       1.0  0.63270  0.40620  0.98420  1.0000 -0.0607402258
N   N13       1.0  0.48180  0.33030  0.93140  1.0000 -0.0607402258
N   N14       1.0  0.46690  0.21200  0.88820  1.0000 -0.2287617432
N   N15       1.0  0.82990  0.71250  0.93480  1.0000 -0.2704691248
N   N16       1.0  0.90030  0.64710  0.89420  1.0000 -0.0496768835
N   N17       1.0  0.92490  0.69480  0.79800  1.0000 -0.0443512084
N   N18       1.0  0.87070  0.79470  0.77260  1.0000 -0.2704691248
N   N19       1.0  0.90000  0.77830  0.22850  1.0000 -0.3200750458
N   N20       1.0  0.01900  0.92020  0.37810  1.0000 0.0328054868
O   O1        1.0  0.79700  0.35090  0.71000  1.0000 -0.4302748698
O   O2        1.0  0.02520  0.41030  0.84610  1.0000 -0.5699404585
O   O3        1.0  0.72210  0.07100  0.43440  1.0000 -0.5087366211
O   O4        1.0  0.66650  0.20440  0.53020  1.0000 -0.4427992212
O   O5        1.0  0.20300  0.64910  0.29000  1.0000 -0.4302748698
O   O6        1.0  0.97480  0.58970  0.15390  1.0000 -0.5699404585
O   O7        1.0  0.27790  0.92900  0.56560  1.0000 -0.5087366211
O   O8        1.0  0.33350  0.79560  0.46980  1.0000 -0.4427992212
