# DDEC6 charges by PACMAN v1.1 (https://github.com/mtap-research/PACMAN-charge/)
data_2021[Zn][nan]3[ASR]16
_chemical_formula_sum              "Zn4 H72 C108 N20 O16"
_cell_length_a       14.3048
_cell_length_b       14.3048
_cell_length_c       25.5009
_cell_angle_alpha    74.949
_cell_angle_beta     105.051
_cell_angle_gamma    140.252

_symmetry_space_group_name_H-M    "P 1"
_symmetry_Int_Tables_number       1

loop_
  _symmetry_equiv_pos_as_xyz
  'x, y, z'

loop_
  _atom_site_type_symbol
  _atom_site_label
  _atom_site_symmetry_multiplicity
  _atom_site_fract_x
  _atom_site_fract_y
  _atom_site_fract_z
  _atom_site_occupancy
  _atom_site_charge
Zn  Zn1       1.0  0.46917  0.95941  0.62951  1.0000 0.7440105174
Zn  Zn2       1.0  0.95941  0.46917  0.87049  1.0000 0.7440105174
Zn  Zn3       1.0  0.53083  0.04059  0.37049  1.0000 0.7440105174
Zn  Zn4       1.0  0.04059  0.53083  0.12951  1.0000 0.7440105174
H   H1        1.0  0.05020  0.37060  0.24640  1.0000 0.1286619228
H   H2        1.0  0.22470  0.68050  0.46970  1.0000 0.1286619228
H   H3        1.0  0.41290  0.85970  0.52640  1.0000 0.1201052834
H   H4        1.0  0.26240  0.07840  0.62990  1.0000 0.1201052834
H   H5        1.0  0.30320  0.55780  0.47420  1.0000 0.1286619228
H   H6        1.0  0.89550  0.07950  0.50090  1.0000 0.1201052834
H   H7        1.0  0.72430  0.01050  0.54420  1.0000 0.1201052834
H   H8        1.0  0.34480  0.34000  0.46130  1.0000 0.1201052834
H   H9        1.0  0.43780  0.25580  0.48760  1.0000 0.1201052834
H   H10       1.0  0.29850  0.65210  0.38580  1.0000 0.1286619228
H   H11       1.0  0.15540  0.14800  0.60180  1.0000 0.1286619228
H   H12       1.0  0.05170  0.34890  0.63580  1.0000 0.1111226362
H   H13       1.0  0.14610  0.66930  0.63440  1.0000 0.1019370358
H   H14       1.0  0.22230  0.41510  0.59240  1.0000 0.1286619228
H   H15       1.0  0.95150  0.48050  0.58230  1.0000 0.1286619228
H   H16       1.0  0.05280  0.17480  0.42050  1.0000 0.1286619228
H   H17       1.0  0.27370  0.73030  0.30610  1.0000 0.1286619228
H   H18       1.0  0.04770  0.26830  0.33200  1.0000 0.1286619228
H   H19       1.0  0.37060  0.05020  0.25360  1.0000 0.1286619228
H   H20       1.0  0.68050  0.22470  0.03030  1.0000 0.1286619228
H   H21       1.0  0.85970  0.41290  0.97360  1.0000 0.1201052834
H   H22       1.0  0.07840  0.26240  0.87010  1.0000 0.1201052834
H   H23       1.0  0.55780  0.30320  0.02580  1.0000 0.1286619228
H   H24       1.0  0.07950  0.89550  0.99910  1.0000 0.1201052834
H   H25       1.0  0.01050  0.72430  0.95580  1.0000 0.1201052834
H   H26       1.0  0.34000  0.34480  0.03870  1.0000 0.1201052834
H   H27       1.0  0.25580  0.43780  0.01240  1.0000 0.1201052834
H   H28       1.0  0.65210  0.29850  0.11420  1.0000 0.1286619228
H   H29       1.0  0.14800  0.15540  0.89820  1.0000 0.1286619228
H   H30       1.0  0.34890  0.05170  0.86420  1.0000 0.1111226362
H   H31       1.0  0.66930  0.14610  0.86560  1.0000 0.1019370358
H   H32       1.0  0.41510  0.22230  0.90760  1.0000 0.1286619228
H   H33       1.0  0.48050  0.95150  0.91770  1.0000 0.1286619228
H   H34       1.0  0.17480  0.05280  0.07950  1.0000 0.1286619228
H   H35       1.0  0.73030  0.27370  0.19390  1.0000 0.1286619228
H   H36       1.0  0.26830  0.04770  0.16800  1.0000 0.1286619228
H   H37       1.0  0.94980  0.62940  0.75360  1.0000 0.1286619228
H   H38       1.0  0.77530  0.31950  0.53030  1.0000 0.1286619228
H   H39       1.0  0.58710  0.14030  0.47360  1.0000 0.1201052834
H   H40       1.0  0.73760  0.92160  0.37010  1.0000 0.1201052834
H   H41       1.0  0.69680  0.44220  0.52580  1.0000 0.1286619228
H   H42       1.0  0.10450  0.92050  0.49910  1.0000 0.1201052834
H   H43       1.0  0.27570  0.98950  0.45580  1.0000 0.1201052834
H   H44       1.0  0.65520  0.66000  0.53870  1.0000 0.1201052834
H   H45       1.0  0.56220  0.74420  0.51240  1.0000 0.1201052834
H   H46       1.0  0.70150  0.34790  0.61420  1.0000 0.1286619228
H   H47       1.0  0.84460  0.85200  0.39820  1.0000 0.1286619228
H   H48       1.0  0.94830  0.65110  0.36420  1.0000 0.1111226362
H   H49       1.0  0.85390  0.33070  0.36560  1.0000 0.1019370358
H   H50       1.0  0.77770  0.58490  0.40760  1.0000 0.1286619228
H   H51       1.0  0.04850  0.51950  0.41770  1.0000 0.1286619228
H   H52       1.0  0.94720  0.82520  0.57950  1.0000 0.1286619228
H   H53       1.0  0.72630  0.26970  0.69390  1.0000 0.1286619228
H   H54       1.0  0.95230  0.73170  0.66800  1.0000 0.1286619228
H   H55       1.0  0.62940  0.94980  0.74640  1.0000 0.1286619228
H   H56       1.0  0.31950  0.77530  0.96970  1.0000 0.1286619228
H   H57       1.0  0.14030  0.58710  0.02640  1.0000 0.1201052834
H   H58       1.0  0.92160  0.73760  0.12990  1.0000 0.1201052834
H   H59       1.0  0.44220  0.69680  0.97420  1.0000 0.1286619228
H   H60       1.0  0.92050  0.10450  0.00090  1.0000 0.1201052834
H   H61       1.0  0.98950  0.27570  0.04420  1.0000 0.1201052834
H   H62       1.0  0.66000  0.65520  0.96130  1.0000 0.1201052834
H   H63       1.0  0.74420  0.56220  0.98760  1.0000 0.1201052834
H   H64       1.0  0.34790  0.70150  0.88580  1.0000 0.1286619228
H   H65       1.0  0.85200  0.84460  0.10180  1.0000 0.1286619228
H   H66       1.0  0.65110  0.94830  0.13580  1.0000 0.1111226362
H   H67       1.0  0.33070  0.85390  0.13440  1.0000 0.1019370358
H   H68       1.0  0.58490  0.77770  0.09240  1.0000 0.1286619228
H   H69       1.0  0.51950  0.04850  0.08230  1.0000 0.1286619228
H   H70       1.0  0.82520  0.94720  0.92050  1.0000 0.1286619228
H   H71       1.0  0.26970  0.72630  0.80610  1.0000 0.1286619228
H   H72       1.0  0.73170  0.95230  0.83200  1.0000 0.1286619228
C   C1        1.0  0.10253  0.46507  0.24966  1.0000 0.1019370358
C   C2        1.0  0.06305  0.55915  0.51803  1.0000 0.1111226362
C   C3        1.0  0.75806  0.13474  0.61923  1.0000 0.5514148865
C   C4        1.0  0.20556  0.67564  0.50304  1.0000 -0.1681928615
C   C5        1.0  0.17842  0.35658  0.45592  1.0000 0.1660385971
C   C6        1.0  0.17258  0.46842  0.35111  1.0000 0.1422761437
C   C7        1.0  0.36201  0.15939  0.56192  1.0000 -0.0455919373
C   C8        1.0  0.42666  0.10854  0.57870  1.0000 0.5355759655
C   C9        1.0  0.31828  0.78352  0.53717  1.0000 0.1019370358
C   C10       1.0  0.27692  0.12888  0.59560  1.0000 -0.0914442147
C   C11       1.0  0.23735  0.25185  0.52799  1.0000 0.2073331271
C   C12       1.0  0.25177  0.49943  0.44561  1.0000 -0.1462563108
C   C13       1.0  0.87014  0.17306  0.59457  1.0000 -0.0344107374
C   C14       1.0  0.92658  0.13362  0.52809  1.0000 -0.1818667976
C   C15       1.0  0.07479  0.25441  0.54211  1.0000 0.1660385971
C   C16       1.0  0.82399  0.09221  0.55393  1.0000 -0.0828999559
C   C17       1.0  0.32529  0.28471  0.49478  1.0000 -0.208968317
C   C18       1.0  0.38341  0.23659  0.51103  1.0000 -0.0964755248
C   C19       1.0  0.24911  0.55609  0.39282  1.0000 -0.1560017168
C   C20       1.0  0.21405  0.17195  0.57904  1.0000 -0.2028227038
C   C21       1.0  0.01986  0.29434  0.60871  1.0000 -0.0914442147
C   C22       1.0  0.16159  0.67101  0.60077  1.0000 0.0805266593
C   C23       1.0  0.12238  0.33462  0.58261  1.0000 -0.1890018803
C   C24       1.0  0.04380  0.55780  0.56947  1.0000 -0.1818667976
C   C25       1.0  0.10254  0.27106  0.41366  1.0000 -0.1560017168
C   C26       1.0  0.22470  0.66190  0.28187  1.0000 0.1111226362
C   C27       1.0  0.09915  0.32665  0.36063  1.0000 -0.1681928615
C   C28       1.0  0.46507  0.10253  0.25034  1.0000 0.1019370358
C   C29       1.0  0.55915  0.06305  0.98197  1.0000 0.1111226362
C   C30       1.0  0.13474  0.75806  0.88077  1.0000 0.5514148865
C   C31       1.0  0.67564  0.20556  0.99696  1.0000 -0.1681928615
C   C32       1.0  0.35658  0.17842  0.04408  1.0000 0.1660385971
C   C33       1.0  0.46842  0.17258  0.14889  1.0000 0.1422761437
C   C34       1.0  0.15939  0.36201  0.93808  1.0000 -0.0455919373
C   C35       1.0  0.10854  0.42666  0.92130  1.0000 0.5355759655
C   C36       1.0  0.78352  0.31828  0.96283  1.0000 0.1019370358
C   C37       1.0  0.12888  0.27692  0.90440  1.0000 -0.0914442147
C   C38       1.0  0.25185  0.23735  0.97201  1.0000 0.2073331271
C   C39       1.0  0.49943  0.25177  0.05439  1.0000 -0.1462563108
C   C40       1.0  0.17306  0.87014  0.90543  1.0000 -0.0344107374
C   C41       1.0  0.13362  0.92658  0.97191  1.0000 -0.1890018803
C   C42       1.0  0.25441  0.07479  0.95789  1.0000 0.1660385971
C   C43       1.0  0.09221  0.82399  0.94607  1.0000 -0.0828999559
C   C44       1.0  0.28471  0.32529  0.00522  1.0000 -0.208968317
C   C45       1.0  0.23659  0.38341  0.98897  1.0000 -0.0964755248
C   C46       1.0  0.55609  0.24911  0.10718  1.0000 -0.1560017168
C   C47       1.0  0.17195  0.21405  0.92096  1.0000 -0.2028227038
C   C48       1.0  0.29434  0.01986  0.89129  1.0000 -0.0914442147
C   C49       1.0  0.67101  0.16159  0.89923  1.0000 0.0805266593
C   C50       1.0  0.33462  0.12238  0.91739  1.0000 -0.1890018803
C   C51       1.0  0.55780  0.04380  0.93053  1.0000 -0.1818667976
C   C52       1.0  0.27106  0.10254  0.08634  1.0000 -0.1560017168
C   C53       1.0  0.66190  0.22470  0.21813  1.0000 0.1111226362
C   C54       1.0  0.32665  0.09915  0.13937  1.0000 -0.1681928615
C   C55       1.0  0.89747  0.53493  0.75034  1.0000 0.1019370358
C   C56       1.0  0.93695  0.44085  0.48197  1.0000 0.1111226362
C   C57       1.0  0.24194  0.86526  0.38077  1.0000 0.5514148865
C   C58       1.0  0.79444  0.32436  0.49696  1.0000 -0.1681928615
C   C59       1.0  0.82158  0.64342  0.54408  1.0000 0.1660385971
C   C60       1.0  0.82742  0.53158  0.64889  1.0000 0.1422761437
C   C61       1.0  0.63799  0.84061  0.43808  1.0000 -0.0455919373
C   C62       1.0  0.57334  0.89146  0.42130  1.0000 0.5355759655
C   C63       1.0  0.68172  0.21648  0.46283  1.0000 0.1019370358
C   C64       1.0  0.72308  0.87112  0.40440  1.0000 -0.0914442147
C   C65       1.0  0.76265  0.74815  0.47201  1.0000 0.2073331271
C   C66       1.0  0.74823  0.50057  0.55439  1.0000 -0.1462563108
C   C67       1.0  0.12986  0.82694  0.40543  1.0000 -0.0344107374
C   C68       1.0  0.07342  0.86638  0.47191  1.0000 -0.1890018803
C   C69       1.0  0.92521  0.74559  0.45789  1.0000 0.1660385971
C   C70       1.0  0.17601  0.90779  0.44607  1.0000 -0.0828999559
C   C71       1.0  0.67471  0.71529  0.50522  1.0000 -0.208968317
C   C72       1.0  0.61659  0.76341  0.48897  1.0000 -0.0964755248
C   C73       1.0  0.75089  0.44391  0.60718  1.0000 -0.1560017168
C   C74       1.0  0.78595  0.82805  0.42096  1.0000 -0.2028227038
C   C75       1.0  0.98014  0.70566  0.39129  1.0000 -0.0914442147
C   C76       1.0  0.83841  0.32899  0.39923  1.0000 0.0805266593
C   C77       1.0  0.87762  0.66538  0.41739  1.0000 -0.1890018803
C   C78       1.0  0.95620  0.44220  0.43053  1.0000 -0.1818667976
C   C79       1.0  0.89746  0.72894  0.58634  1.0000 -0.1560017168
C   C80       1.0  0.77530  0.33810  0.71813  1.0000 0.1111226362
C   C81       1.0  0.90085  0.67335  0.63937  1.0000 -0.1681928615
C   C82       1.0  0.53493  0.89747  0.74966  1.0000 0.1019370358
C   C83       1.0  0.44085  0.93695  0.01803  1.0000 0.1111226362
C   C84       1.0  0.86526  0.24194  0.11923  1.0000 0.5514148865
C   C85       1.0  0.32436  0.79444  0.00304  1.0000 -0.1681928615
C   C86       1.0  0.64342  0.82158  0.95592  1.0000 0.1660385971
C   C87       1.0  0.53158  0.82742  0.85111  1.0000 0.1422761437
C   C88       1.0  0.84061  0.63799  0.06192  1.0000 -0.0455919373
C   C89       1.0  0.89146  0.57334  0.07870  1.0000 0.5355759655
C   C90       1.0  0.21648  0.68172  0.03717  1.0000 0.1019370358
C   C91       1.0  0.87112  0.72308  0.09560  1.0000 -0.0914442147
C   C92       1.0  0.74815  0.76265  0.02799  1.0000 0.2073331271
C   C93       1.0  0.50057  0.74823  0.94561  1.0000 -0.1462563108
C   C94       1.0  0.82694  0.12986  0.09457  1.0000 -0.0344107374
C   C95       1.0  0.86638  0.07342  0.02809  1.0000 -0.1818667976
C   C96       1.0  0.74559  0.92521  0.04211  1.0000 0.1660385971
C   C97       1.0  0.90779  0.17601  0.05393  1.0000 -0.0828999559
C   C98       1.0  0.71529  0.67471  0.99478  1.0000 -0.208968317
C   C99       1.0  0.76341  0.61659  0.01103  1.0000 -0.0964755248
C   C100      1.0  0.44391  0.75089  0.89282  1.0000 -0.1560017168
C   C101      1.0  0.82805  0.78595  0.07904  1.0000 -0.2028227038
C   C102      1.0  0.70566  0.98014  0.10871  1.0000 -0.0914442147
C   C103      1.0  0.32899  0.83841  0.10077  1.0000 0.0805266593
C   C104      1.0  0.66538  0.87762  0.08261  1.0000 -0.1890018803
C   C105      1.0  0.44220  0.95620  0.06947  1.0000 -0.1818667976
C   C106      1.0  0.72894  0.89746  0.91366  1.0000 -0.1560017168
C   C107      1.0  0.33810  0.77530  0.78187  1.0000 0.1111226362
C   C108      1.0  0.67335  0.90085  0.86063  1.0000 -0.1681928615
N   N1        1.0  0.12197  0.55443  0.20947  1.0000 -0.1818667976
N   N2        1.0  0.29712  0.78328  0.58544  1.0000 -0.2242759
N   N3        1.0  0.16875  0.52845  0.29665  1.0000 -0.0182622479
N   N4        1.0  0.17923  0.30097  0.51147  1.0000 -0.1890018803
N   N5        1.0  0.20065  0.68135  0.22957  1.0000 -0.2028227038
N   N6        1.0  0.55443  0.12197  0.29053  1.0000 -0.1818667976
N   N7        1.0  0.78328  0.29712  0.91456  1.0000 -0.2242759
N   N8        1.0  0.52845  0.16875  0.20335  1.0000 -0.0182622479
N   N9        1.0  0.30097  0.17923  0.98853  1.0000 -0.1890018803
N   N10       1.0  0.68135  0.20065  0.27043  1.0000 -0.2028227038
N   N11       1.0  0.87803  0.44557  0.79053  1.0000 -0.1818667976
N   N12       1.0  0.70288  0.21672  0.41456  1.0000 -0.2242759
N   N13       1.0  0.83125  0.47155  0.70335  1.0000 -0.0182622479
N   N14       1.0  0.82077  0.69903  0.48853  1.0000 -0.1890018803
N   N15       1.0  0.79935  0.31865  0.77043  1.0000 -0.2028227038
N   N16       1.0  0.44557  0.87803  0.70947  1.0000 -0.1818667976
N   N17       1.0  0.21672  0.70288  0.08544  1.0000 -0.2242759
N   N18       1.0  0.47155  0.83125  0.79665  1.0000 -0.0182622479
N   N19       1.0  0.69903  0.82077  0.01147  1.0000 -0.1818667976
N   N20       1.0  0.31865  0.79935  0.72957  1.0000 -0.2028227038
O   O1        1.0  0.41902  0.05478  0.62847  1.0000 -0.5484401689
O   O2        1.0  0.62649  0.00951  0.61037  1.0000 -0.5484401689
O   O3        1.0  0.48623  0.12057  0.54554  1.0000 -0.5484401689
O   O4        1.0  0.79561  0.22539  0.64374  1.0000 -0.5751278009
O   O5        1.0  0.05478  0.41902  0.87153  1.0000 -0.5484401689
O   O6        1.0  0.00951  0.62649  0.88963  1.0000 -0.5484401689
O   O7        1.0  0.12057  0.48623  0.95446  1.0000 -0.5484401689
O   O8        1.0  0.22539  0.79561  0.85626  1.0000 -0.5751278009
O   O9        1.0  0.58098  0.94522  0.37153  1.0000 -0.5484401689
O   O10       1.0  0.37351  0.99049  0.38963  1.0000 -0.5484401689
O   O11       1.0  0.51377  0.87943  0.45446  1.0000 -0.5484401689
O   O12       1.0  0.20439  0.77461  0.35626  1.0000 -0.5751278009
O   O13       1.0  0.94522  0.58098  0.12847  1.0000 -0.5484401689
O   O14       1.0  0.99049  0.37351  0.11037  1.0000 -0.5484401689
O   O15       1.0  0.87943  0.51377  0.04554  1.0000 -0.5484401689
O   O16       1.0  0.77461  0.20439  0.14374  1.0000 -0.5741049256
