# DDEC6 charges by PACMAN v1.1 (https://github.com/mtap-research/PACMAN-charge/)
data_2021[Zn][pts]3[ASR]1
_chemical_formula_sum              "Zn4 H44 C88 O16"
_cell_length_a       16.6062
_cell_length_b       16.6062
_cell_length_c       12.565
_cell_angle_alpha    77.5307
_cell_angle_beta     102.469
_cell_angle_gamma    60.7056

_symmetry_space_group_name_H-M    "P 1"
_symmetry_Int_Tables_number       1

loop_
  _symmetry_equiv_pos_as_xyz
  'x, y, z'

loop_
  _atom_site_type_symbol
  _atom_site_label
  _atom_site_symmetry_multiplicity
  _atom_site_fract_x
  _atom_site_fract_y
  _atom_site_fract_z
  _atom_site_occupancy
  _atom_site_charge
Zn  Zn1       1.0  0.05539  0.19201  0.60206  1.0000 0.9130618987
Zn  Zn2       1.0  0.19201  0.05539  0.89794  1.0000 0.9130618987
Zn  Zn3       1.0  0.94461  0.80799  0.39794  1.0000 0.9130618987
Zn  Zn4       1.0  0.80799  0.94461  0.10206  1.0000 0.9130618987
H   H1        1.0  0.07253  0.46787  0.50962  1.0000 0.1180766667
H   H2        1.0  0.15450  0.54776  0.49958  1.0000 0.126570296
H   H3        1.0  0.41729  0.28449  0.65922  1.0000 0.1143505839
H   H4        1.0  0.33478  0.20224  0.65714  1.0000 0.1180766667
H   H5        1.0  0.25227  0.58201  0.62707  1.0000 0.1180766667
H   H6        1.0  0.45456  0.69466  0.59048  1.0000 0.1180766667
H   H7        1.0  0.57851  0.65569  0.52607  1.0000 0.1180766667
H   H8        1.0  0.42106  0.65064  0.78553  1.0000 0.1143505839
H   H9        1.0  0.17511  0.78977  0.49883  1.0000 0.126570296
H   H10       1.0  0.10775  0.92967  0.54560  1.0000 0.126570296
H   H11       1.0  0.35340  0.78968  0.83325  1.0000 0.1180766667
H   H12       1.0  0.46787  0.07253  0.99038  1.0000 0.1180766667
H   H13       1.0  0.54776  0.15450  0.00042  1.0000 0.126570296
H   H14       1.0  0.28449  0.41729  0.84078  1.0000 0.1143505839
H   H15       1.0  0.20224  0.33478  0.84286  1.0000 0.1180766667
H   H16       1.0  0.58201  0.25227  0.87293  1.0000 0.1180766667
H   H17       1.0  0.69466  0.45456  0.90952  1.0000 0.1180766667
H   H18       1.0  0.65569  0.57851  0.97393  1.0000 0.1180766667
H   H19       1.0  0.65064  0.42106  0.71447  1.0000 0.1143505839
H   H20       1.0  0.78977  0.17511  0.00117  1.0000 0.126570296
H   H21       1.0  0.92967  0.10775  0.95440  1.0000 0.126570296
H   H22       1.0  0.78968  0.35340  0.66675  1.0000 0.1180766667
H   H23       1.0  0.92747  0.53213  0.49038  1.0000 0.1180766667
H   H24       1.0  0.84550  0.45224  0.50042  1.0000 0.126570296
H   H25       1.0  0.58271  0.71551  0.34078  1.0000 0.1143505839
H   H26       1.0  0.66522  0.79776  0.34286  1.0000 0.1180766667
H   H27       1.0  0.74773  0.41799  0.37293  1.0000 0.1180766667
H   H28       1.0  0.54544  0.30534  0.40952  1.0000 0.1180766667
H   H29       1.0  0.42149  0.34431  0.47393  1.0000 0.1180766667
H   H30       1.0  0.57894  0.34936  0.21447  1.0000 0.1143505839
H   H31       1.0  0.82489  0.21023  0.50117  1.0000 0.126570296
H   H32       1.0  0.89225  0.07033  0.45440  1.0000 0.126570296
H   H33       1.0  0.64660  0.21032  0.16675  1.0000 0.1180766667
H   H34       1.0  0.53213  0.92747  0.00962  1.0000 0.1180766667
H   H35       1.0  0.45224  0.84550  0.99958  1.0000 0.126570296
H   H36       1.0  0.71551  0.58271  0.15922  1.0000 0.1143505839
H   H37       1.0  0.79776  0.66522  0.15714  1.0000 0.1180766667
H   H38       1.0  0.41799  0.74773  0.12707  1.0000 0.1180766667
H   H39       1.0  0.30534  0.54544  0.09048  1.0000 0.1180766667
H   H40       1.0  0.34431  0.42149  0.02607  1.0000 0.1180766667
H   H41       1.0  0.34936  0.57894  0.28553  1.0000 0.1143505839
H   H42       1.0  0.21023  0.82489  0.99883  1.0000 0.126570296
H   H43       1.0  0.07033  0.89225  0.04560  1.0000 0.126570296
H   H44       1.0  0.21032  0.64660  0.33325  1.0000 0.1180766667
C   C1        1.0  0.14090  0.28030  0.59150  1.0000 0.5510908184
C   C2        1.0  0.19390  0.32910  0.58420  1.0000 -0.0499934996
C   C3        1.0  0.14180  0.43020  0.53800  1.0000 -0.0724040302
C   C4        1.0  0.19170  0.47850  0.53290  1.0000 -0.1414750772
C   C5        1.0  0.29360  0.42600  0.57570  1.0000 0.0706177247
C   C6        1.0  0.34800  0.32160  0.62630  1.0000 -0.1591379973
C   C7        1.0  0.29850  0.27150  0.62780  1.0000 -0.0829845401
C   C8        1.0  0.34140  0.48040  0.57140  1.0000 0.021956448
C   C9        1.0  0.41830  0.45570  0.52630  1.0000 0.021956448
C   C10       1.0  0.46240  0.51140  0.52360  1.0000 -0.0115719735
C   C11       1.0  0.42690  0.59150  0.56430  1.0000 0.021956448
C   C12       1.0  0.34940  0.61600  0.60470  1.0000 0.021956448
C   C13       1.0  0.30660  0.56240  0.60430  1.0000 -0.1879941108
C   C14       1.0  0.47530  0.64330  0.56240  1.0000 -0.1414750772
C   C15       1.0  0.54820  0.62120  0.52260  1.0000 -0.1414750772
C   C16       1.0  0.35780  0.70660  0.73650  1.0000 -0.1475648167
C   C17       1.0  0.30520  0.70500  0.63650  1.0000 0.0777565358
C   C18       1.0  0.21190  0.78930  0.56640  1.0000 -0.1414750772
C   C19       1.0  0.17130  0.87390  0.59380  1.0000 -0.0916939708
C   C20       1.0  0.22570  0.87470  0.69290  1.0000 -0.0200508474
C   C21       1.0  0.31740  0.79060  0.76450  1.0000 -0.1022609728
C   C22       1.0  0.18820  0.96740  0.72510  1.0000 0.6046860633
C   C23       1.0  0.28030  0.14090  0.90850  1.0000 0.5510908184
C   C24       1.0  0.32910  0.19390  0.91580  1.0000 -0.0499934996
C   C25       1.0  0.43020  0.14180  0.96200  1.0000 -0.0724040302
C   C26       1.0  0.47850  0.19170  0.96710  1.0000 -0.1414750772
C   C27       1.0  0.42600  0.29360  0.92430  1.0000 0.0706177247
C   C28       1.0  0.32160  0.34800  0.87370  1.0000 -0.1591379973
C   C29       1.0  0.27150  0.29850  0.87220  1.0000 -0.0829845401
C   C30       1.0  0.48040  0.34140  0.92860  1.0000 0.021956448
C   C31       1.0  0.45570  0.41830  0.97370  1.0000 0.021956448
C   C32       1.0  0.51140  0.46240  0.97640  1.0000 -0.0115719735
C   C33       1.0  0.59150  0.42690  0.93570  1.0000 0.021956448
C   C34       1.0  0.61600  0.34940  0.89530  1.0000 0.021956448
C   C35       1.0  0.56240  0.30660  0.89570  1.0000 -0.1879941108
C   C36       1.0  0.64330  0.47530  0.93760  1.0000 -0.1414750772
C   C37       1.0  0.62120  0.54820  0.97740  1.0000 -0.1414750772
C   C38       1.0  0.70660  0.35780  0.76350  1.0000 -0.1475648167
C   C39       1.0  0.70500  0.30520  0.86350  1.0000 0.0777565358
C   C40       1.0  0.78930  0.21190  0.93360  1.0000 -0.1414750772
C   C41       1.0  0.87390  0.17130  0.90620  1.0000 -0.0916939708
C   C42       1.0  0.87470  0.22570  0.80710  1.0000 -0.0200508474
C   C43       1.0  0.79060  0.31740  0.73550  1.0000 -0.1022609728
C   C44       1.0  0.96740  0.18820  0.77490  1.0000 0.6046860633
C   C45       1.0  0.85910  0.71970  0.40850  1.0000 0.5510908184
C   C46       1.0  0.80610  0.67090  0.41580  1.0000 -0.0499934996
C   C47       1.0  0.85820  0.56980  0.46200  1.0000 -0.0724040302
C   C48       1.0  0.80830  0.52150  0.46710  1.0000 -0.1414750772
C   C49       1.0  0.70640  0.57400  0.42430  1.0000 0.0706177247
C   C50       1.0  0.65200  0.67840  0.37370  1.0000 -0.1591379973
C   C51       1.0  0.70150  0.72850  0.37220  1.0000 -0.0829845401
C   C52       1.0  0.65860  0.51960  0.42860  1.0000 0.021956448
C   C53       1.0  0.58170  0.54430  0.47370  1.0000 0.021956448
C   C54       1.0  0.53760  0.48860  0.47640  1.0000 -0.0115719735
C   C55       1.0  0.57310  0.40850  0.43570  1.0000 0.021956448
C   C56       1.0  0.65060  0.38400  0.39530  1.0000 0.021956448
C   C57       1.0  0.69340  0.43760  0.39570  1.0000 -0.1879941108
C   C58       1.0  0.52470  0.35670  0.43760  1.0000 -0.1414750772
C   C59       1.0  0.45180  0.37880  0.47740  1.0000 -0.1414750772
C   C60       1.0  0.64220  0.29340  0.26350  1.0000 -0.1475648167
C   C61       1.0  0.69480  0.29500  0.36350  1.0000 0.0777565358
C   C62       1.0  0.78810  0.21070  0.43360  1.0000 -0.1414750772
C   C63       1.0  0.82870  0.12610  0.40620  1.0000 -0.0916939708
C   C64       1.0  0.77430  0.12530  0.30710  1.0000 -0.0200508474
C   C65       1.0  0.68260  0.20940  0.23550  1.0000 -0.1022609728
C   C66       1.0  0.81180  0.03260  0.27490  1.0000 0.6046860633
C   C67       1.0  0.71970  0.85910  0.09150  1.0000 0.5510908184
C   C68       1.0  0.67090  0.80610  0.08420  1.0000 -0.0499934996
C   C69       1.0  0.56980  0.85820  0.03800  1.0000 -0.0724040302
C   C70       1.0  0.52150  0.80830  0.03290  1.0000 -0.1414750772
C   C71       1.0  0.57400  0.70640  0.07570  1.0000 0.0706177247
C   C72       1.0  0.67840  0.65200  0.12630  1.0000 -0.1591379973
C   C73       1.0  0.72850  0.70150  0.12780  1.0000 -0.0829845401
C   C74       1.0  0.51960  0.65860  0.07140  1.0000 0.021956448
C   C75       1.0  0.54430  0.58170  0.02630  1.0000 0.021956448
C   C76       1.0  0.48860  0.53760  0.02360  1.0000 -0.0115719735
C   C77       1.0  0.40850  0.57310  0.06430  1.0000 0.021956448
C   C78       1.0  0.38400  0.65060  0.10470  1.0000 0.021956448
C   C79       1.0  0.43760  0.69340  0.10430  1.0000 -0.1879941108
C   C80       1.0  0.35670  0.52470  0.06240  1.0000 -0.1414750772
C   C81       1.0  0.37880  0.45180  0.02260  1.0000 -0.1414750772
C   C82       1.0  0.29340  0.64220  0.23650  1.0000 -0.1475648167
C   C83       1.0  0.29500  0.69480  0.13650  1.0000 0.0777565358
C   C84       1.0  0.21070  0.78810  0.06640  1.0000 -0.1414750772
C   C85       1.0  0.12610  0.82870  0.09380  1.0000 -0.0916939708
C   C86       1.0  0.12530  0.77430  0.19290  1.0000 -0.0200508474
C   C87       1.0  0.20940  0.68260  0.26450  1.0000 -0.1022609728
C   C88       1.0  0.03260  0.81180  0.22510  1.0000 0.6046860633
O   O1        1.0  0.18538  0.18618  0.62200  1.0000 -0.5328490319
O   O2        1.0  0.04970  0.33090  0.56800  1.0000 -0.5216930094
O   O3        1.0  0.22988  0.95808  0.82460  1.0000 -0.5216930094
O   O4        1.0  0.11426  0.04646  0.64200  1.0000 -0.5541187706
O   O5        1.0  0.18618  0.18538  0.87800  1.0000 -0.5328490319
O   O6        1.0  0.33090  0.04970  0.93200  1.0000 -0.5216930094
O   O7        1.0  0.95808  0.22988  0.67540  1.0000 -0.5216930094
O   O8        1.0  0.04646  0.11426  0.85800  1.0000 -0.5541187706
O   O9        1.0  0.81462  0.81382  0.37800  1.0000 -0.5328490319
O   O10       1.0  0.95030  0.66910  0.43200  1.0000 -0.5216930094
O   O11       1.0  0.77012  0.04192  0.17540  1.0000 -0.5216930094
O   O12       1.0  0.88574  0.95354  0.35800  1.0000 -0.5541187706
O   O13       1.0  0.81382  0.81462  0.12200  1.0000 -0.5328490319
O   O14       1.0  0.66910  0.95030  0.06800  1.0000 -0.5216930094
O   O15       1.0  0.04192  0.77012  0.32460  1.0000 -0.5216930094
O   O16       1.0  0.95354  0.88574  0.14200  1.0000 -0.5541187706
