# DDEC6 charges by PACMAN v1.1 (https://github.com/mtap-research/PACMAN-charge/)
data_2021[V][nan]3[ASR]7
_chemical_formula_sum              "V4 H12 C32 O20"
_cell_length_a       12.2186
_cell_length_b       12.2186
_cell_length_c       12.2186
_cell_angle_alpha    103.892
_cell_angle_beta     103.892
_cell_angle_gamma    121.319

_symmetry_space_group_name_H-M    "P 1"
_symmetry_Int_Tables_number       1

loop_
  _symmetry_equiv_pos_as_xyz
  'x, y, z'

loop_
  _atom_site_type_symbol
  _atom_site_label
  _atom_site_symmetry_multiplicity
  _atom_site_fract_x
  _atom_site_fract_y
  _atom_site_fract_z
  _atom_site_occupancy
  _atom_site_charge
V   V1        1.0  0.69613  0.69613  0.39226  1.0000 1.8589171566
V   V2        1.0  0.30387  0.30387  0.60774  1.0000 1.8589171566
V   V3        1.0  0.94613  0.05387  0.50000  1.0000 1.8589171566
V   V4        1.0  0.55387  0.44613  0.50000  1.0000 1.8589171566
H   H1        1.0  0.98100  0.03326  0.18048  1.0000 0.1361990221
H   H2        1.0  0.85278  0.80052  0.81952  1.0000 0.1361990221
H   H3        1.0  0.28326  0.60278  0.55226  1.0000 0.1361990221
H   H4        1.0  0.05052  0.73100  0.44774  1.0000 0.1361990221
H   H5        1.0  0.26900  0.94948  0.55226  1.0000 0.1361990221
H   H6        1.0  0.39722  0.71674  0.44774  1.0000 0.1361990221
H   H7        1.0  0.96674  0.01900  0.81952  1.0000 0.1361990221
H   H8        1.0  0.19948  0.14722  0.18048  1.0000 0.1361990221
H   H9        1.0  0.62569  0.62569  0.00000  1.0000 0.1457683429
H   H10       1.0  0.87569  0.37569  0.50000  1.0000 0.1457683429
H   H11       1.0  0.62431  0.12431  0.50000  1.0000 0.1457683429
H   H12       1.0  0.37431  0.37431  0.00000  1.0000 0.1457683429
C   C1        1.0  0.80310  0.82980  0.10930  1.0000 -0.0147976642
C   C2        1.0  0.79440  0.84240  0.23120  1.0000 0.6275545679
C   C3        1.0  0.91750  0.94730  0.10800  1.0000 -0.1271779664
C   C4        1.0  0.72050  0.69380  0.89070  1.0000 -0.0147976642
C   C5        1.0  0.61120  0.56320  0.76880  1.0000 0.6275545679
C   C6        1.0  0.83930  0.80950  0.89200  1.0000 -0.1271779664
C   C7        1.0  0.07980  0.47050  0.52670  1.0000 -0.0147976642
C   C8        1.0  0.09240  0.36120  0.54800  1.0000 0.6275545679
C   C9        1.0  0.19730  0.58930  0.52980  1.0000 -0.1271779664
C   C10       1.0  0.94380  0.55310  0.47330  1.0000 -0.0147976642
C   C11       1.0  0.81320  0.54440  0.45200  1.0000 0.6275545679
C   C12       1.0  0.05950  0.66750  0.47020  1.0000 -0.1271779664
C   C13       1.0  0.44690  0.05620  0.52670  1.0000 -0.0147976642
C   C14       1.0  0.45560  0.18680  0.54800  1.0000 0.6275545679
C   C15       1.0  0.33250  0.94050  0.52980  1.0000 -0.1271779664
C   C16       1.0  0.52950  0.92020  0.47330  1.0000 -0.0147976642
C   C17       1.0  0.63880  0.90760  0.45200  1.0000 0.6275545679
C   C18       1.0  0.41070  0.80270  0.47020  1.0000 -0.1271779664
C   C19       1.0  0.17020  0.19690  0.89070  1.0000 -0.0147976642
C   C20       1.0  0.15760  0.20560  0.76880  1.0000 0.6275545679
C   C21       1.0  0.05270  0.08250  0.89200  1.0000 -0.1271779664
C   C22       1.0  0.30620  0.27950  0.10930  1.0000 -0.0147976642
C   C23       1.0  0.43680  0.38880  0.23120  1.0000 0.6275545679
C   C24       1.0  0.19050  0.16070  0.10800  1.0000 -0.1271779664
C   C25       1.0  0.93750  0.93750  0.00000  1.0000 0.0638700019
C   C26       1.0  0.70340  0.70340  0.00000  1.0000 -0.094182776
C   C27       1.0  0.18750  0.68750  0.50000  1.0000 0.0638700019
C   C28       1.0  0.95340  0.45340  0.50000  1.0000 -0.094182776
C   C29       1.0  0.31250  0.81250  0.50000  1.0000 0.0638700019
C   C30       1.0  0.54660  0.04660  0.50000  1.0000 -0.094182776
C   C31       1.0  0.06250  0.06250  0.00000  1.0000 0.0638700019
C   C32       1.0  0.29660  0.29660  0.00000  1.0000 -0.094182776
O   O1        1.0  0.85880  0.96824  0.31464  1.0000 -0.5860003094
O   O2        1.0  0.72751  0.72922  0.24329  1.0000 -0.557561902
O   O3        1.0  0.65360  0.54416  0.68536  1.0000 -0.5860003094
O   O4        1.0  0.48593  0.48422  0.75671  1.0000 -0.557561902
O   O5        1.0  0.21824  0.40360  0.60944  1.0000 -0.5860003094
O   O6        1.0  0.97922  0.23593  0.50171  1.0000 -0.557561902
O   O7        1.0  0.79416  0.60880  0.39056  1.0000 -0.5845728718
O   O8        1.0  0.73422  0.47751  0.49829  1.0000 -0.557561902
O   O9        1.0  0.39120  0.20584  0.60944  1.0000 -0.5860003094
O   O10       1.0  0.52249  0.26578  0.50171  1.0000 -0.557561902
O   O11       1.0  0.59640  0.78176  0.39056  1.0000 -0.5860003094
O   O12       1.0  0.76407  0.02078  0.49829  1.0000 -0.557561902
O   O13       1.0  0.03176  0.14120  0.68536  1.0000 -0.5860003094
O   O14       1.0  0.27078  0.27249  0.75671  1.0000 -0.557561902
O   O15       1.0  0.45584  0.34640  0.31464  1.0000 -0.5860003094
O   O16       1.0  0.51578  0.51407  0.24329  1.0000 -0.557561902
O   O17       1.0  0.86840  0.87500  0.49340  1.0000 -0.9311610811
O   O18       1.0  0.38160  0.37500  0.50660  1.0000 -0.9311610811
O   O19       1.0  0.12500  0.13160  0.50660  1.0000 -0.9311610811
O   O20       1.0  0.62500  0.61840  0.49340  1.0000 -0.9311610811
