# DDEC6 charges by PACMAN v1.1 (https://github.com/mtap-research/PACMAN-charge/)
data_2021[Al][nan]3[ASR]18
_chemical_formula_sum              "Al8 H24 C40 N16 O40"
_cell_length_a       12.081
_cell_length_b       15.1347
_cell_length_c       13.8726
_cell_angle_alpha    90
_cell_angle_beta     102.175
_cell_angle_gamma    90

_symmetry_space_group_name_H-M    "P 1"
_symmetry_Int_Tables_number       1

loop_
  _symmetry_equiv_pos_as_xyz
  'x, y, z'

loop_
  _atom_site_type_symbol
  _atom_site_label
  _atom_site_symmetry_multiplicity
  _atom_site_fract_x
  _atom_site_fract_y
  _atom_site_fract_z
  _atom_site_occupancy
  _atom_site_charge
Al  Al1       1.0  0.76501  0.43587  0.56588  1.0000 1.6236233458
Al  Al2       1.0  0.23499  0.93587  0.93412  1.0000 1.6236233458
Al  Al3       1.0  0.23499  0.56413  0.43412  1.0000 1.6236233458
Al  Al4       1.0  0.76501  0.06413  0.06588  1.0000 1.6236233458
Al  Al5       1.0  0.00000  0.50000  0.50000  1.0000 1.6236233458
Al  Al6       1.0  0.00000  0.00000  0.00000  1.0000 1.6236233458
Al  Al7       1.0  0.50000  0.50000  0.50000  1.0000 1.6236233458
Al  Al8       1.0  0.50000  0.00000  0.00000  1.0000 1.6236233458
H   H1        1.0  0.81124  0.47540  0.41033  1.0000 0.4299388199
H   H2        1.0  0.67598  0.57154  0.50396  1.0000 0.4299388199
H   H3        1.0  0.19563  0.28841  0.66510  1.0000 0.278865759
H   H4        1.0  0.60325  0.71557  0.68131  1.0000 0.278865759
H   H5        1.0  0.92138  0.20692  0.74491  1.0000 0.1692546725
H   H6        1.0  0.28894  0.78431  0.67039  1.0000 0.1692546725
H   H7        1.0  0.18876  0.97540  0.08967  1.0000 0.4299388199
H   H8        1.0  0.32402  0.07154  0.99604  1.0000 0.4299388199
H   H9        1.0  0.80437  0.78841  0.83490  1.0000 0.278865759
H   H10       1.0  0.39675  0.21557  0.81869  1.0000 0.278865759
H   H11       1.0  0.07862  0.70692  0.75509  1.0000 0.1692546725
H   H12       1.0  0.71106  0.28431  0.82961  1.0000 0.1692546725
H   H13       1.0  0.18876  0.52460  0.58967  1.0000 0.4299388199
H   H14       1.0  0.32402  0.42846  0.49604  1.0000 0.4299388199
H   H15       1.0  0.80437  0.71159  0.33490  1.0000 0.278865759
H   H16       1.0  0.39675  0.28443  0.31869  1.0000 0.278865759
H   H17       1.0  0.07862  0.79308  0.25509  1.0000 0.1692546725
H   H18       1.0  0.71106  0.21569  0.32961  1.0000 0.1692546725
H   H19       1.0  0.81124  0.02460  0.91033  1.0000 0.4299388199
H   H20       1.0  0.67598  0.92846  0.00396  1.0000 0.4299388199
H   H21       1.0  0.19563  0.21159  0.16510  1.0000 0.278865759
H   H22       1.0  0.60325  0.78443  0.18131  1.0000 0.278865759
H   H23       1.0  0.92138  0.29308  0.24491  1.0000 0.1692546725
H   H24       1.0  0.28894  0.71569  0.17039  1.0000 0.1692546725
C   C1        1.0  0.98060  0.34780  0.62450  1.0000 0.6076163247
C   C2        1.0  0.09030  0.07930  0.84150  1.0000 0.6185497537
C   C3        1.0  0.41120  0.89320  0.82930  1.0000 0.6185497537
C   C4        1.0  0.40950  0.65680  0.57310  1.0000 0.6025971964
C   C5        1.0  0.99580  0.21160  0.73730  1.0000 -0.2342178256
C   C6        1.0  0.04020  0.27380  0.68370  1.0000 0.0354359865
C   C7        1.0  0.43770  0.72690  0.64820  1.0000 0.0303329469
C   C8        1.0  0.36750  0.78080  0.68750  1.0000 -0.2342178256
C   C9        1.0  0.08630  0.15730  0.77770  1.0000 0.0195953183
C   C10       1.0  0.44160  0.82960  0.75950  1.0000 0.0141987547
C   C11       1.0  0.01940  0.84780  0.87550  1.0000 0.6076163247
C   C12       1.0  0.90970  0.57930  0.65850  1.0000 0.6185497537
C   C13       1.0  0.58880  0.39320  0.67070  1.0000 0.6185497537
C   C14       1.0  0.59050  0.15680  0.92690  1.0000 0.6025971964
C   C15       1.0  0.00420  0.71160  0.76270  1.0000 -0.2342178256
C   C16       1.0  0.95980  0.77380  0.81630  1.0000 0.0303329469
C   C17       1.0  0.56230  0.22690  0.85180  1.0000 0.0303329469
C   C18       1.0  0.63250  0.28080  0.81250  1.0000 -0.2342178256
C   C19       1.0  0.91370  0.65730  0.72230  1.0000 0.0195953183
C   C20       1.0  0.55840  0.32960  0.74050  1.0000 0.0141987547
C   C21       1.0  0.01940  0.65220  0.37550  1.0000 0.6076163247
C   C22       1.0  0.90970  0.92070  0.15850  1.0000 0.6185497537
C   C23       1.0  0.58880  0.10680  0.17070  1.0000 0.6185497537
C   C24       1.0  0.59050  0.34320  0.42690  1.0000 0.6025971964
C   C25       1.0  0.00420  0.78840  0.26270  1.0000 -0.2342178256
C   C26       1.0  0.95980  0.72620  0.31630  1.0000 0.0303329469
C   C27       1.0  0.56230  0.27310  0.35180  1.0000 0.0303329469
C   C28       1.0  0.63250  0.21920  0.31250  1.0000 -0.2342178256
C   C29       1.0  0.91370  0.84270  0.22230  1.0000 0.0195953183
C   C30       1.0  0.55840  0.17040  0.24050  1.0000 0.0141987547
C   C31       1.0  0.98060  0.15220  0.12450  1.0000 0.6076163247
C   C32       1.0  0.09030  0.42070  0.34150  1.0000 0.6185497537
C   C33       1.0  0.41120  0.60680  0.32930  1.0000 0.6185497537
C   C34       1.0  0.40950  0.84320  0.07310  1.0000 0.6025971964
C   C35       1.0  0.99580  0.28840  0.23730  1.0000 -0.2342178256
C   C36       1.0  0.04020  0.22620  0.18370  1.0000 0.0354359865
C   C37       1.0  0.43770  0.77310  0.14820  1.0000 0.0303329469
C   C38       1.0  0.36750  0.71920  0.18750  1.0000 -0.2342178256
C   C39       1.0  0.08630  0.34270  0.27770  1.0000 0.0195953183
C   C40       1.0  0.44160  0.67040  0.25950  1.0000 0.0141987547
N   N1        1.0  0.15080  0.25790  0.69260  1.0000 -0.0729766891
N   N2        1.0  0.54530  0.74250  0.69410  1.0000 -0.0623713874
N   N3        1.0  0.18190  0.18710  0.75080  1.0000 -0.2061523714
N   N4        1.0  0.55000  0.80470  0.76150  1.0000 -0.1987481967
N   N5        1.0  0.84920  0.75790  0.80740  1.0000 -0.0729766891
N   N6        1.0  0.45470  0.24250  0.80590  1.0000 -0.0623713874
N   N7        1.0  0.81810  0.68710  0.74920  1.0000 -0.2061523714
N   N8        1.0  0.45000  0.30470  0.73850  1.0000 -0.1987481967
N   N9        1.0  0.84920  0.74210  0.30740  1.0000 -0.0729766891
N   N10       1.0  0.45470  0.25750  0.30590  1.0000 -0.0623713874
N   N11       1.0  0.81810  0.81290  0.24920  1.0000 -0.2061523714
N   N12       1.0  0.45000  0.19530  0.23850  1.0000 -0.1987481967
N   N13       1.0  0.15080  0.24210  0.19260  1.0000 -0.0729766891
N   N14       1.0  0.54530  0.75750  0.19410  1.0000 -0.0623713874
N   N15       1.0  0.18190  0.31290  0.25080  1.0000 -0.2061523714
N   N16       1.0  0.55000  0.69530  0.26150  1.0000 -0.1987481967
O   O1        1.0  0.84990  0.47156  0.47570  1.0000 -1.0156054303
O   O2        1.0  0.65230  0.51590  0.51950  1.0000 -1.0132228539
O   O3        1.0  0.87660  0.35190  0.62040  1.0000 -0.5490666434
O   O4        1.0  0.31110  0.89220  0.83760  1.0000 -0.5490666434
O   O5        1.0  0.30850  0.65120  0.52690  1.0000 -0.5587356493
O   O6        1.0  0.01450  0.07380  0.89080  1.0000 -0.5665457503
O   O7        1.0  0.03930  0.40070  0.58650  1.0000 -0.5853997673
O   O8        1.0  0.16760  0.02390  0.84180  1.0000 -0.5665457503
O   O9        1.0  0.49090  0.60880  0.56430  1.0000 -0.5779449747
O   O10       1.0  0.48880  0.93810  0.87880  1.0000 -0.5587356493
O   O11       1.0  0.15010  0.97156  0.02430  1.0000 -1.0156054303
O   O12       1.0  0.34770  0.01590  0.98050  1.0000 -1.0132228539
O   O13       1.0  0.12340  0.85190  0.87960  1.0000 -0.5490666434
O   O14       1.0  0.68890  0.39220  0.66240  1.0000 -0.5490666434
O   O15       1.0  0.69150  0.15120  0.97310  1.0000 -0.5587356493
O   O16       1.0  0.98550  0.57380  0.60920  1.0000 -0.5665457503
O   O17       1.0  0.96070  0.90070  0.91350  1.0000 -0.5853997673
O   O18       1.0  0.83240  0.52390  0.65820  1.0000 -0.5665457503
O   O19       1.0  0.50910  0.10880  0.93570  1.0000 -0.5779449747
O   O20       1.0  0.51120  0.43810  0.62120  1.0000 -0.5587356493
O   O21       1.0  0.15010  0.52844  0.52430  1.0000 -1.0156054303
O   O22       1.0  0.34770  0.48410  0.48050  1.0000 -1.0132228539
O   O23       1.0  0.12340  0.64810  0.37960  1.0000 -0.5490666434
O   O24       1.0  0.68890  0.10780  0.16240  1.0000 -0.5490666434
O   O25       1.0  0.69150  0.34880  0.47310  1.0000 -0.5587356493
O   O26       1.0  0.98550  0.92620  0.10920  1.0000 -0.5665457503
O   O27       1.0  0.96070  0.59930  0.41350  1.0000 -0.5853997673
O   O28       1.0  0.83240  0.97610  0.15820  1.0000 -0.5665457503
O   O29       1.0  0.50910  0.39120  0.43570  1.0000 -0.5779449747
O   O30       1.0  0.51120  0.06190  0.12120  1.0000 -0.5587356493
O   O31       1.0  0.84990  0.02844  0.97570  1.0000 -1.0156054303
O   O32       1.0  0.65230  0.98410  0.01950  1.0000 -1.0132228539
O   O33       1.0  0.87660  0.14810  0.12040  1.0000 -0.5490666434
O   O34       1.0  0.31110  0.60780  0.33760  1.0000 -0.5490666434
O   O35       1.0  0.30850  0.84880  0.02690  1.0000 -0.5587356493
O   O36       1.0  0.01450  0.42620  0.39080  1.0000 -0.5665457503
O   O37       1.0  0.03930  0.09930  0.08650  1.0000 -0.5779449747
O   O38       1.0  0.16760  0.47610  0.34180  1.0000 -0.5665457503
O   O39       1.0  0.49090  0.89120  0.06430  1.0000 -0.5779449747
O   O40       1.0  0.48880  0.56190  0.37880  1.0000 -0.5587356493
