# DDEC6 charges by PACMAN v1.1 (https://github.com/mtap-research/PACMAN-charge/)
data_2021[Tb][rtl]3[ASR]1
_chemical_formula_sum              "Tb4 H24 C56 N4 O24"
_cell_length_a       10.726
_cell_length_b       16.607
_cell_length_c       16.9749
_cell_angle_alpha    90
_cell_angle_beta     118.355
_cell_angle_gamma    90

_symmetry_space_group_name_H-M    "P 1"
_symmetry_Int_Tables_number       1

loop_
  _symmetry_equiv_pos_as_xyz
  'x, y, z'

loop_
  _atom_site_type_symbol
  _atom_site_label
  _atom_site_symmetry_multiplicity
  _atom_site_fract_x
  _atom_site_fract_y
  _atom_site_fract_z
  _atom_site_occupancy
  _atom_site_charge
Tb  Tb1       1.0  0.42295  0.59677  0.54107  1.0000 2.0389901048
Tb  Tb2       1.0  0.57705  0.09677  0.95893  1.0000 2.0389901048
Tb  Tb3       1.0  0.57705  0.40323  0.45893  1.0000 2.0389901048
Tb  Tb4       1.0  0.42295  0.90323  0.04107  1.0000 2.0389901048
H   H1        1.0  0.57820  0.47400  0.80280  1.0000 0.1220154337
H   H2        1.0  0.83360  0.33460  0.74650  1.0000 0.1220154337
H   H3        1.0  0.82990  0.32210  0.98260  1.0000 0.1117898713
H   H4        1.0  0.02310  0.07230  0.98760  1.0000 0.1302688068
H   H5        1.0  0.25720  0.20820  0.90860  1.0000 0.1220154337
H   H6        1.0  0.08260  0.30370  0.85840  1.0000 0.1117898713
H   H7        1.0  0.42180  0.97400  0.69720  1.0000 0.1220154337
H   H8        1.0  0.16640  0.83460  0.75350  1.0000 0.1220154337
H   H9        1.0  0.17010  0.82210  0.51740  1.0000 0.1117898713
H   H10       1.0  0.97690  0.57230  0.51240  1.0000 0.1302688068
H   H11       1.0  0.74280  0.70820  0.59140  1.0000 0.1220154337
H   H12       1.0  0.91740  0.80370  0.64160  1.0000 0.1117898713
H   H13       1.0  0.42180  0.52600  0.19720  1.0000 0.1220154337
H   H14       1.0  0.16640  0.66540  0.25350  1.0000 0.1220154337
H   H15       1.0  0.17010  0.67790  0.01740  1.0000 0.1117898713
H   H16       1.0  0.97690  0.92770  0.01240  1.0000 0.1302688068
H   H17       1.0  0.74280  0.79180  0.09140  1.0000 0.1220154337
H   H18       1.0  0.91740  0.69630  0.14160  1.0000 0.1117898713
H   H19       1.0  0.57820  0.02600  0.30280  1.0000 0.1220154337
H   H20       1.0  0.83360  0.16540  0.24650  1.0000 0.1220154337
H   H21       1.0  0.82990  0.17790  0.48260  1.0000 0.1117898713
H   H22       1.0  0.02310  0.42770  0.48760  1.0000 0.1302688068
H   H23       1.0  0.25720  0.29180  0.40860  1.0000 0.1220154337
H   H24       1.0  0.08260  0.19630  0.35840  1.0000 0.1117898713
C   C1        1.0  0.64560  0.43330  0.81970  1.0000 0.0664782862
C   C2        1.0  0.69290  0.40910  0.76000  1.0000 -0.0671499518
C   C3        1.0  0.79720  0.34930  0.78440  1.0000 -0.1172213943
C   C4        1.0  0.84510  0.31230  0.86930  1.0000 0.0166238027
C   C5        1.0  0.79300  0.34290  0.92500  1.0000 0.0484701877
C   C6        1.0  0.95390  0.24950  0.90010  1.0000 0.0484701877
C   C7        1.0  0.93940  0.17900  0.93850  1.0000 -0.0343425327
C   C8        1.0  0.03660  0.12020  0.96430  1.0000 -0.0920133309
C   C9        1.0  0.16290  0.13250  0.95510  1.0000 -0.0513957262
C   C10       1.0  0.17730  0.20070  0.91590  1.0000 -0.0970882975
C   C11       1.0  0.07390  0.25800  0.88710  1.0000 -0.151999315
C   C12       1.0  0.62610  0.44430  0.66720  1.0000 0.6438877678
C   C13       1.0  0.80950  0.16060  0.94730  1.0000 0.5701177216
C   C14       1.0  0.26830  0.06760  0.98080  1.0000 0.6239869839
C   C15       1.0  0.35440  0.93330  0.68030  1.0000 0.0664782862
C   C16       1.0  0.30710  0.90910  0.74000  1.0000 -0.0671499518
C   C17       1.0  0.20280  0.84930  0.71560  1.0000 -0.1172213943
C   C18       1.0  0.15490  0.81230  0.63070  1.0000 0.0166238027
C   C19       1.0  0.20700  0.84290  0.57500  1.0000 0.0484701877
C   C20       1.0  0.04610  0.74950  0.59990  1.0000 0.0484701877
C   C21       1.0  0.06060  0.67900  0.56150  1.0000 -0.036242509
C   C22       1.0  0.96340  0.62020  0.53570  1.0000 -0.0920133309
C   C23       1.0  0.83710  0.63250  0.54490  1.0000 -0.0513957262
C   C24       1.0  0.82270  0.70070  0.58410  1.0000 -0.0970882975
C   C25       1.0  0.92610  0.75800  0.61290  1.0000 -0.151999315
C   C26       1.0  0.37390  0.94430  0.83280  1.0000 0.6438877678
C   C27       1.0  0.19050  0.66060  0.55270  1.0000 0.5701177216
C   C28       1.0  0.73170  0.56760  0.51920  1.0000 0.6239869839
C   C29       1.0  0.35440  0.56670  0.18030  1.0000 0.0664782862
C   C30       1.0  0.30710  0.59090  0.24000  1.0000 -0.0671499518
C   C31       1.0  0.20280  0.65070  0.21560  1.0000 -0.1172213943
C   C32       1.0  0.15490  0.68770  0.13070  1.0000 0.0166238027
C   C33       1.0  0.20700  0.65710  0.07500  1.0000 0.0484701877
C   C34       1.0  0.04610  0.75050  0.09990  1.0000 0.0484701877
C   C35       1.0  0.06060  0.82100  0.06150  1.0000 -0.036242509
C   C36       1.0  0.96340  0.87980  0.03570  1.0000 -0.0920133309
C   C37       1.0  0.83710  0.86750  0.04490  1.0000 -0.0513957262
C   C38       1.0  0.82270  0.79930  0.08410  1.0000 -0.0970882975
C   C39       1.0  0.92610  0.74200  0.11290  1.0000 -0.151999315
C   C40       1.0  0.37390  0.55570  0.33280  1.0000 0.6438877678
C   C41       1.0  0.19050  0.83940  0.05270  1.0000 0.5701177216
C   C42       1.0  0.73170  0.93240  0.01920  1.0000 0.6239869839
C   C43       1.0  0.64560  0.06670  0.31970  1.0000 0.0664782862
C   C44       1.0  0.69290  0.09090  0.26000  1.0000 -0.0671499518
C   C45       1.0  0.79720  0.15070  0.28440  1.0000 -0.1172213943
C   C46       1.0  0.84510  0.18770  0.36930  1.0000 0.0166238027
C   C47       1.0  0.79300  0.15710  0.42500  1.0000 0.0484701877
C   C48       1.0  0.95390  0.25050  0.40010  1.0000 0.0484701877
C   C49       1.0  0.93940  0.32100  0.43850  1.0000 -0.0343425327
C   C50       1.0  0.03660  0.37980  0.46430  1.0000 -0.0920133309
C   C51       1.0  0.16290  0.36750  0.45510  1.0000 -0.0513957262
C   C52       1.0  0.17730  0.29930  0.41590  1.0000 -0.0970882975
C   C53       1.0  0.07390  0.24200  0.38710  1.0000 -0.151999315
C   C54       1.0  0.62610  0.05570  0.16720  1.0000 0.6438877678
C   C55       1.0  0.80950  0.33940  0.44730  1.0000 0.5701177216
C   C56       1.0  0.26830  0.43240  0.48080  1.0000 0.6239869839
N   N1        1.0  0.69360  0.39980  0.90060  1.0000 -0.2542758637
N   N2        1.0  0.30640  0.89980  0.59940  1.0000 -0.2542758637
N   N3        1.0  0.30640  0.60020  0.09940  1.0000 -0.2558572868
N   N4        1.0  0.69360  0.10020  0.40060  1.0000 -0.2558572868
O   O1        1.0  0.54650  0.50230  0.65240  1.0000 -0.6547292822
O   O2        1.0  0.66667  0.41570  0.61420  1.0000 -0.6696892732
O   O3        1.0  0.81350  0.16010  0.02130  1.0000 -0.6096372136
O   O4        1.0  0.69880  0.14110  0.87720  1.0000 -0.6398419046
O   O5        1.0  0.24650  0.00340  0.01260  1.0000 -0.6096372136
O   O6        1.0  0.37560  0.07910  0.97250  1.0000 -0.7246966117
O   O7        1.0  0.45350  0.00230  0.84760  1.0000 -0.6547292822
O   O8        1.0  0.33333  0.91570  0.88580  1.0000 -0.6696892732
O   O9        1.0  0.18650  0.66010  0.47870  1.0000 -0.6096372136
O   O10       1.0  0.30120  0.64110  0.62280  1.0000 -0.6398419046
O   O11       1.0  0.75350  0.50340  0.48740  1.0000 -0.6096372136
O   O12       1.0  0.62440  0.57910  0.52750  1.0000 -0.7255163147
O   O13       1.0  0.45350  0.49770  0.34760  1.0000 -0.6564222925
O   O14       1.0  0.33333  0.58430  0.38580  1.0000 -0.6696892732
O   O15       1.0  0.18650  0.83990  0.97870  1.0000 -0.6096372136
O   O16       1.0  0.30120  0.85890  0.12280  1.0000 -0.6398419046
O   O17       1.0  0.75350  0.99660  0.98740  1.0000 -0.6096372136
O   O18       1.0  0.62440  0.92090  0.02750  1.0000 -0.7255163147
O   O19       1.0  0.54650  0.99770  0.15240  1.0000 -0.6564222925
O   O20       1.0  0.66667  0.08430  0.11420  1.0000 -0.6696892732
O   O21       1.0  0.81350  0.33990  0.52130  1.0000 -0.6096372136
O   O22       1.0  0.69880  0.35890  0.37720  1.0000 -0.6398419046
O   O23       1.0  0.24650  0.49660  0.51260  1.0000 -0.6096372136
O   O24       1.0  0.37560  0.42090  0.47250  1.0000 -0.7255163147
