# DDEC6 charges by PACMAN v1.1 (https://github.com/mtap-research/PACMAN-charge/)
data_2021[Zr][nan]3[ASR]1
_chemical_formula_sum              "Zr4 C32 O20 F16"
_cell_length_a       14.1542
_cell_length_b       14.1542
_cell_length_c       8.0821
_cell_angle_alpha    84.4556
_cell_angle_beta     95.5444
_cell_angle_gamma    131.568

_symmetry_space_group_name_H-M    "P 1"
_symmetry_Int_Tables_number       1

loop_
  _symmetry_equiv_pos_as_xyz
  'x, y, z'

loop_
  _atom_site_type_symbol
  _atom_site_label
  _atom_site_symmetry_multiplicity
  _atom_site_fract_x
  _atom_site_fract_y
  _atom_site_fract_z
  _atom_site_occupancy
  _atom_site_charge
Zr  Zr1       1.0  0.95381  0.07155  0.84690  1.0000 2.3900090491
Zr  Zr2       1.0  0.07155  0.95381  0.65310  1.0000 2.3900090491
Zr  Zr3       1.0  0.04619  0.92845  0.15310  1.0000 2.3900090491
Zr  Zr4       1.0  0.92845  0.04619  0.34690  1.0000 2.3900090491
C   C1        1.0  0.94249  0.50941  0.59576  1.0000 0.1324971279
C   C2        1.0  0.91375  0.39787  0.61004  1.0000 0.1657338066
C   C3        1.0  0.97853  0.38583  0.50719  1.0000 -0.236941272
C   C4        1.0  0.97729  0.28197  0.53819  1.0000 0.6685334181
C   C5        1.0  0.49925  0.41013  0.80834  1.0000 0.1510185635
C   C6        1.0  0.61761  0.52857  0.80904  1.0000 0.1570353394
C   C7        1.0  0.50941  0.94249  0.90424  1.0000 0.1324971279
C   C8        1.0  0.39787  0.91375  0.88996  1.0000 0.1657338066
C   C9        1.0  0.38583  0.97853  0.99281  1.0000 -0.236941272
C   C10       1.0  0.28197  0.97729  0.96181  1.0000 0.6685334181
C   C11       1.0  0.41013  0.49925  0.69166  1.0000 0.1510185635
C   C12       1.0  0.52857  0.61761  0.69096  1.0000 0.1570353394
C   C13       1.0  0.05751  0.49059  0.40424  1.0000 0.1324971279
C   C14       1.0  0.08625  0.60213  0.38996  1.0000 0.1657338066
C   C15       1.0  0.02147  0.61417  0.49281  1.0000 -0.2349445487
C   C16       1.0  0.02271  0.71803  0.46181  1.0000 0.6685334181
C   C17       1.0  0.50075  0.58987  0.19166  1.0000 0.1510185635
C   C18       1.0  0.38239  0.47143  0.19096  1.0000 0.1570353394
C   C19       1.0  0.49059  0.05751  0.09576  1.0000 0.1324971279
C   C20       1.0  0.60213  0.08625  0.11004  1.0000 0.1657338066
C   C21       1.0  0.61417  0.02147  0.00719  1.0000 -0.2349445487
C   C22       1.0  0.71803  0.02271  0.03819  1.0000 0.6685334181
C   C23       1.0  0.58987  0.50075  0.30834  1.0000 0.1510185635
C   C24       1.0  0.47143  0.38239  0.30904  1.0000 0.1570353394
C   C25       1.0  0.39555  0.39555  0.75000  1.0000 -0.236941272
C   C26       1.0  0.63233  0.63233  0.75000  1.0000 -0.236941272
C   C27       1.0  0.75922  0.75922  0.75000  1.0000 0.659056369
C   C28       1.0  0.26876  0.26876  0.75000  1.0000 0.6685334181
C   C29       1.0  0.60445  0.60445  0.25000  1.0000 -0.236941272
C   C30       1.0  0.36767  0.36767  0.25000  1.0000 -0.236941272
C   C31       1.0  0.24078  0.24078  0.25000  1.0000 0.659056369
C   C32       1.0  0.73124  0.73124  0.25000  1.0000 0.6685334181
O   O1        1.0  0.97941  0.24909  0.68496  1.0000 -0.567658324
O   O2        1.0  0.94184  0.20972  0.42640  1.0000 -0.5766012336
O   O3        1.0  0.78126  0.84348  0.82690  1.0000 -0.5485618675
O   O4        1.0  0.18320  0.24762  0.82390  1.0000 -0.567658324
O   O5        1.0  0.97172  0.04676  0.58022  1.0000 -1.2030554975
O   O6        1.0  0.24909  0.97941  0.81504  1.0000 -0.567658324
O   O7        1.0  0.20972  0.94184  0.07360  1.0000 -0.5766012336
O   O8        1.0  0.84348  0.78126  0.67310  1.0000 -0.5485618675
O   O9        1.0  0.24762  0.18320  0.67610  1.0000 -0.567658324
O   O10       1.0  0.04676  0.97172  0.91978  1.0000 -1.2030554975
O   O11       1.0  0.02059  0.75091  0.31504  1.0000 -0.567658324
O   O12       1.0  0.05816  0.79028  0.57360  1.0000 -0.5766012336
O   O13       1.0  0.21874  0.15652  0.17310  1.0000 -0.5485618675
O   O14       1.0  0.81680  0.75238  0.17610  1.0000 -0.567658324
O   O15       1.0  0.02828  0.95324  0.41978  1.0000 -1.2030554975
O   O16       1.0  0.75091  0.02059  0.18496  1.0000 -0.567658324
O   O17       1.0  0.79028  0.05816  0.92640  1.0000 -0.5766012336
O   O18       1.0  0.15652  0.21874  0.32690  1.0000 -0.5485618675
O   O19       1.0  0.75238  0.81680  0.32390  1.0000 -0.567658324
O   O20       1.0  0.95324  0.02828  0.08022  1.0000 -1.2030554975
F   F1        1.0  0.86761  0.32711  0.75080  1.0000 -0.1016136373
F   F2        1.0  0.89968  0.53742  0.70542  1.0000 -0.1073801669
F   F3        1.0  0.71775  0.54153  0.85253  1.0000 -0.0916044826
F   F4        1.0  0.48395  0.31153  0.87453  1.0000 -0.0916044826
F   F5        1.0  0.32711  0.86761  0.74920  1.0000 -0.1016136373
F   F6        1.0  0.53742  0.89968  0.79458  1.0000 -0.1073801669
F   F7        1.0  0.54153  0.71775  0.64747  1.0000 -0.0916044826
F   F8        1.0  0.31153  0.48395  0.62547  1.0000 -0.0916044826
F   F9        1.0  0.13239  0.67289  0.24920  1.0000 -0.1016136373
F   F10       1.0  0.10032  0.46258  0.29458  1.0000 -0.1073801669
F   F11       1.0  0.28225  0.45847  0.14747  1.0000 -0.0916044826
F   F12       1.0  0.51605  0.68847  0.12547  1.0000 -0.0916044826
F   F13       1.0  0.67289  0.13239  0.25080  1.0000 -0.1016136373
F   F14       1.0  0.46258  0.10032  0.20542  1.0000 -0.1073801669
F   F15       1.0  0.45847  0.28225  0.35253  1.0000 -0.0916044826
F   F16       1.0  0.68847  0.51605  0.37453  1.0000 -0.0916044826
