# DDEC6 charges by PACMAN v1.1 (https://github.com/mtap-research/PACMAN-charge/)
data_2021[Co][nan]3[ASR]10
_chemical_formula_sum              "Co4 H32 C48 N16 O18"
_cell_length_a       12.4723
_cell_length_b       12.4723
_cell_length_c       14.6179
_cell_angle_alpha    82.0711
_cell_angle_beta     97.9289
_cell_angle_gamma    121.031

_symmetry_space_group_name_H-M    "P 1"
_symmetry_Int_Tables_number       1

loop_
  _symmetry_equiv_pos_as_xyz
  'x, y, z'

loop_
  _atom_site_type_symbol
  _atom_site_label
  _atom_site_symmetry_multiplicity
  _atom_site_fract_x
  _atom_site_fract_y
  _atom_site_fract_z
  _atom_site_occupancy
  _atom_site_charge
Co  Co1       1.0  0.40017  0.23651  0.25997  1.0000 0.9024613956
Co  Co2       1.0  0.23651  0.40017  0.24003  1.0000 0.9024613956
Co  Co3       1.0  0.59983  0.76349  0.74003  1.0000 0.9024613956
Co  Co4       1.0  0.76349  0.59983  0.75997  1.0000 0.9024613956
H   H1        1.0  0.46741  0.46165  0.30533  1.0000 0.3844119022
H   H2        1.0  0.64860  0.52672  0.55942  1.0000 0.118350136
H   H3        1.0  0.61831  0.01715  0.60546  1.0000 0.1293748701
H   H4        1.0  0.70222  0.32738  0.77537  1.0000 0.118350136
H   H5        1.0  0.56954  0.17538  0.52816  1.0000 0.1293748701
H   H6        1.0  0.59766  0.94362  0.87246  1.0000 0.118350136
H   H7        1.0  0.79332  0.95870  0.97844  1.0000 0.1116312255
H   H8        1.0  0.93792  0.10504  0.08116  1.0000 0.1116312255
H   H9        1.0  0.46165  0.46741  0.19467  1.0000 0.3844119022
H   H10       1.0  0.52672  0.64860  0.94058  1.0000 0.118350136
H   H11       1.0  0.01715  0.61831  0.89454  1.0000 0.1293748701
H   H12       1.0  0.32738  0.70222  0.72463  1.0000 0.118350136
H   H13       1.0  0.17538  0.56954  0.97184  1.0000 0.1293748701
H   H14       1.0  0.94362  0.59766  0.62754  1.0000 0.118350136
H   H15       1.0  0.95870  0.79332  0.52156  1.0000 0.1116312255
H   H16       1.0  0.10504  0.93792  0.41884  1.0000 0.1116312255
H   H17       1.0  0.53259  0.53835  0.69467  1.0000 0.3844119022
H   H18       1.0  0.35140  0.47328  0.44058  1.0000 0.118350136
H   H19       1.0  0.38169  0.98285  0.39454  1.0000 0.1293748701
H   H20       1.0  0.29778  0.67262  0.22463  1.0000 0.118350136
H   H21       1.0  0.43046  0.82462  0.47184  1.0000 0.1293748701
H   H22       1.0  0.40234  0.05638  0.12754  1.0000 0.118350136
H   H23       1.0  0.20668  0.04130  0.02156  1.0000 0.1116312255
H   H24       1.0  0.06208  0.89496  0.91884  1.0000 0.1116312255
H   H25       1.0  0.53835  0.53259  0.80533  1.0000 0.3844119022
H   H26       1.0  0.47328  0.35140  0.05942  1.0000 0.118350136
H   H27       1.0  0.98285  0.38169  0.10546  1.0000 0.1293748701
H   H28       1.0  0.67262  0.29778  0.27537  1.0000 0.118350136
H   H29       1.0  0.82462  0.43046  0.02816  1.0000 0.1293748701
H   H30       1.0  0.05638  0.40234  0.37246  1.0000 0.118350136
H   H31       1.0  0.04130  0.20668  0.47844  1.0000 0.1116312255
H   H32       1.0  0.89496  0.06208  0.58116  1.0000 0.1116312255
C   C1        1.0  0.60292  0.35408  0.52819  1.0000 -0.0327038378
C   C2        1.0  0.64595  0.45125  0.58515  1.0000 0.0679280581
C   C3        1.0  0.63235  0.23325  0.65871  1.0000 0.0957939113
C   C4        1.0  0.61642  0.02338  0.66920  1.0000 0.1116312255
C   C5        1.0  0.18059  0.18461  0.12570  1.0000 0.587860317
C   C6        1.0  0.67650  0.33470  0.71167  1.0000 0.0141944373
C   C7        1.0  0.59708  0.24292  0.56560  1.0000 -0.1660698159
C   C8        1.0  0.55806  0.36914  0.42841  1.0000 0.5718084286
C   C9        1.0  0.08672  0.08808  0.06060  1.0000 -0.0122506539
C   C10       1.0  0.60500  0.98640  0.81260  1.0000 0.1520909081
C   C11       1.0  0.87723  0.97517  0.98720  1.0000 -0.1116526974
C   C12       1.0  0.96330  0.06250  0.04800  1.0000 -0.1116526974
C   C13       1.0  0.35408  0.60292  0.97181  1.0000 -0.0327038378
C   C14       1.0  0.45125  0.64595  0.91485  1.0000 0.0679280581
C   C15       1.0  0.23325  0.63235  0.84129  1.0000 0.0957939113
C   C16       1.0  0.02338  0.61642  0.83080  1.0000 0.1116312255
C   C17       1.0  0.18461  0.18059  0.37430  1.0000 0.587860317
C   C18       1.0  0.33470  0.67650  0.78833  1.0000 0.0141944373
C   C19       1.0  0.24292  0.59708  0.93440  1.0000 -0.1660698159
C   C20       1.0  0.36914  0.55806  0.07159  1.0000 0.5718084286
C   C21       1.0  0.08808  0.08672  0.43940  1.0000 -0.0122506539
C   C22       1.0  0.98640  0.60500  0.68740  1.0000 0.1520909081
C   C23       1.0  0.97517  0.87723  0.51280  1.0000 -0.1116526974
C   C24       1.0  0.06250  0.96330  0.45200  1.0000 -0.1116526974
C   C25       1.0  0.39708  0.64592  0.47181  1.0000 -0.0327038378
C   C26       1.0  0.35405  0.54875  0.41485  1.0000 0.0679280581
C   C27       1.0  0.36765  0.76675  0.34129  1.0000 0.0957939113
C   C28       1.0  0.38358  0.97662  0.33080  1.0000 0.1116312255
C   C29       1.0  0.81941  0.81539  0.87430  1.0000 0.587860317
C   C30       1.0  0.32350  0.66530  0.28833  1.0000 0.0141944373
C   C31       1.0  0.40292  0.75708  0.43440  1.0000 -0.1660698159
C   C32       1.0  0.44194  0.63086  0.57159  1.0000 0.5718084286
C   C33       1.0  0.91328  0.91192  0.93940  1.0000 -0.0122506539
C   C34       1.0  0.39500  0.01360  0.18740  1.0000 0.1520909081
C   C35       1.0  0.12277  0.02483  0.01280  1.0000 -0.1116526974
C   C36       1.0  0.03670  0.93750  0.95200  1.0000 -0.1116526974
C   C37       1.0  0.64592  0.39708  0.02819  1.0000 -0.0327038378
C   C38       1.0  0.54875  0.35405  0.08515  1.0000 0.0679280581
C   C39       1.0  0.76675  0.36765  0.15871  1.0000 0.0957939113
C   C40       1.0  0.97662  0.38358  0.16920  1.0000 0.1116312255
C   C41       1.0  0.81539  0.81941  0.62570  1.0000 0.587860317
C   C42       1.0  0.66530  0.32350  0.21167  1.0000 0.0141944373
C   C43       1.0  0.75708  0.40292  0.06560  1.0000 -0.1660698159
C   C44       1.0  0.63086  0.44194  0.92841  1.0000 0.5718084286
C   C45       1.0  0.91192  0.91328  0.56060  1.0000 -0.0122506539
C   C46       1.0  0.01360  0.39500  0.31260  1.0000 0.1520909081
C   C47       1.0  0.02483  0.12277  0.48720  1.0000 -0.1116526974
C   C48       1.0  0.93750  0.03670  0.54800  1.0000 -0.1116526974
N   N1        1.0  0.60693  0.93801  0.73585  1.0000 -0.3107087901
N   N2        1.0  0.68362  0.44266  0.67479  1.0000 -0.2377489051
N   N3        1.0  0.62297  0.12043  0.70373  1.0000 0.118350136
N   N4        1.0  0.61391  0.09649  0.79794  1.0000 -0.2377489051
N   N5        1.0  0.93801  0.60693  0.76415  1.0000 -0.3107087901
N   N6        1.0  0.44266  0.68362  0.82521  1.0000 -0.2377489051
N   N7        1.0  0.12043  0.62297  0.79627  1.0000 0.1116312255
N   N8        1.0  0.09649  0.61391  0.70206  1.0000 -0.2377489051
N   N9        1.0  0.39307  0.06199  0.26415  1.0000 -0.3107087901
N   N10       1.0  0.31638  0.55734  0.32521  1.0000 -0.2377489051
N   N11       1.0  0.37703  0.87957  0.29627  1.0000 0.1116312255
N   N12       1.0  0.38609  0.90351  0.20206  1.0000 -0.2377489051
N   N13       1.0  0.06199  0.39307  0.23585  1.0000 -0.3107087901
N   N14       1.0  0.55734  0.31638  0.17479  1.0000 -0.2377489051
N   N15       1.0  0.87957  0.37703  0.20373  1.0000 0.1116312255
N   N16       1.0  0.90351  0.38609  0.29794  1.0000 -0.2377489051
O   O1        1.0  0.51618  0.27510  0.38206  1.0000 -0.5793341687
O   O2        1.0  0.28655  0.19257  0.13976  1.0000 -0.5660170754
O   O3        1.0  0.14606  0.24742  0.15944  1.0000 -0.5464795669
O   O4        1.0  0.56248  0.47052  0.40065  1.0000 -0.5292902579
O   O5        1.0  0.27510  0.51618  0.11794  1.0000 -0.5793341687
O   O6        1.0  0.19257  0.28655  0.36024  1.0000 -0.5660170754
O   O7        1.0  0.24742  0.14606  0.34056  1.0000 -0.5464795669
O   O8        1.0  0.47052  0.56248  0.09935  1.0000 -0.5292902579
O   O9        1.0  0.48382  0.72490  0.61794  1.0000 -0.5793341687
O   O10       1.0  0.71345  0.80743  0.86024  1.0000 -0.5660170754
O   O11       1.0  0.85394  0.75258  0.84056  1.0000 -0.5464795669
O   O12       1.0  0.43752  0.52948  0.59935  1.0000 -0.5292902579
O   O13       1.0  0.72490  0.48382  0.88206  1.0000 -0.5793341687
O   O14       1.0  0.80743  0.71345  0.63976  1.0000 -0.5660170754
O   O15       1.0  0.75258  0.85394  0.65944  1.0000 -0.5464795669
O   O16       1.0  0.52948  0.43752  0.90065  1.0000 -0.5292902579
O   O17       1.0  0.41720  0.41720  0.25000  1.0000 -0.7937935283
O   O18       1.0  0.58280  0.58280  0.75000  1.0000 -0.7937935283
