# DDEC6 charges by PACMAN v1.1 (https://github.com/mtap-research/PACMAN-charge/)
data_2021[Al][nan]3[ASR]5
_chemical_formula_sum              "Al8 H24 C40 N16 O40"
_cell_length_a       12.2664
_cell_length_b       14.5037
_cell_length_c       14.2909
_cell_angle_alpha    90
_cell_angle_beta     101.465
_cell_angle_gamma    90

_symmetry_space_group_name_H-M    "P 1"
_symmetry_Int_Tables_number       1

loop_
  _symmetry_equiv_pos_as_xyz
  'x, y, z'

loop_
  _atom_site_type_symbol
  _atom_site_label
  _atom_site_symmetry_multiplicity
  _atom_site_fract_x
  _atom_site_fract_y
  _atom_site_fract_z
  _atom_site_occupancy
  _atom_site_charge
Al  Al1       1.0  0.76281  0.43669  0.05727  1.0000 1.6169757854
Al  Al2       1.0  0.23719  0.93669  0.44273  1.0000 1.6169757854
Al  Al3       1.0  0.23719  0.56331  0.94273  1.0000 1.6169757854
Al  Al4       1.0  0.76281  0.06331  0.55727  1.0000 1.6169757854
Al  Al5       1.0  0.00000  0.50000  0.00000  1.0000 1.6341004978
Al  Al6       1.0  0.00000  0.00000  0.50000  1.0000 1.6341004978
Al  Al7       1.0  0.50000  0.50000  0.00000  1.0000 1.6341004978
Al  Al8       1.0  0.50000  0.00000  0.50000  1.0000 1.6341004978
H   H1        1.0  0.81220  0.48541  0.91014  1.0000 0.4314024012
H   H2        1.0  0.67232  0.57794  0.99912  1.0000 0.4314024012
H   H3        1.0  0.91535  0.20430  0.24721  1.0000 0.17355466
H   H4        1.0  0.22020  0.13348  0.22700  1.0000 0.28126016
H   H5        1.0  0.71264  0.27402  0.31227  1.0000 0.17355466
H   H6        1.0  0.40862  0.26825  0.36347  1.0000 0.28126016
H   H7        1.0  0.18780  0.98541  0.58986  1.0000 0.4314024012
H   H8        1.0  0.32768  0.07794  0.50088  1.0000 0.4314024012
H   H9        1.0  0.08465  0.70430  0.25279  1.0000 0.17355466
H   H10       1.0  0.77980  0.63348  0.27300  1.0000 0.28126016
H   H11       1.0  0.28736  0.77402  0.18773  1.0000 0.17355466
H   H12       1.0  0.59138  0.76825  0.13653  1.0000 0.28126016
H   H13       1.0  0.18780  0.51459  0.08986  1.0000 0.4314024012
H   H14       1.0  0.32768  0.42206  0.00088  1.0000 0.4314024012
H   H15       1.0  0.08465  0.79570  0.75279  1.0000 0.17355466
H   H16       1.0  0.77980  0.86652  0.77300  1.0000 0.28126016
H   H17       1.0  0.28736  0.72598  0.68773  1.0000 0.17355466
H   H18       1.0  0.59138  0.73175  0.63653  1.0000 0.28126016
H   H19       1.0  0.81220  0.01459  0.41014  1.0000 0.4314024012
H   H20       1.0  0.67232  0.92206  0.49912  1.0000 0.4314024012
H   H21       1.0  0.91535  0.29570  0.74721  1.0000 0.17355466
H   H22       1.0  0.22020  0.36652  0.72700  1.0000 0.28126016
H   H23       1.0  0.71264  0.22598  0.81227  1.0000 0.17355466
H   H24       1.0  0.40862  0.23175  0.86347  1.0000 0.28126016
C   C1        1.0  0.97082  0.33660  0.11008  1.0000 0.6174516093
C   C2        1.0  0.02642  0.25781  0.16483  1.0000 0.0308926902
C   C3        1.0  0.59115  0.39987  0.16982  1.0000 0.6174516093
C   C4        1.0  0.98620  0.20192  0.22994  1.0000 -0.2363235301
C   C5        1.0  0.56615  0.34620  0.25056  1.0000 0.0308926902
C   C6        1.0  0.07263  0.14269  0.26331  1.0000 0.0226050361
C   C7        1.0  0.63590  0.28541  0.31009  1.0000 -0.2363235301
C   C8        1.0  0.08478  0.07065  0.33725  1.0000 0.5992602419
C   C9        1.0  0.56837  0.24569  0.36495  1.0000 0.0308926902
C   C10       1.0  0.59333  0.16917  0.43404  1.0000 0.5992602419
C   C11       1.0  0.02918  0.83660  0.38992  1.0000 0.6174516093
C   C12       1.0  0.97358  0.75781  0.33517  1.0000 0.0308926902
C   C13       1.0  0.40885  0.89987  0.33018  1.0000 0.6174516093
C   C14       1.0  0.01380  0.70192  0.27006  1.0000 -0.2363235301
C   C15       1.0  0.43385  0.84620  0.24944  1.0000 0.0308926902
C   C16       1.0  0.92737  0.64269  0.23669  1.0000 0.0226050361
C   C17       1.0  0.36410  0.78541  0.18991  1.0000 -0.2363235301
C   C18       1.0  0.91522  0.57065  0.16275  1.0000 0.5992602419
C   C19       1.0  0.43163  0.74569  0.13505  1.0000 0.0308926902
C   C20       1.0  0.40667  0.66917  0.06596  1.0000 0.5992602419
C   C21       1.0  0.02918  0.66340  0.88992  1.0000 0.6174516093
C   C22       1.0  0.97358  0.74219  0.83517  1.0000 0.0308926902
C   C23       1.0  0.40885  0.60013  0.83018  1.0000 0.6174516093
C   C24       1.0  0.01380  0.79808  0.77006  1.0000 -0.2363235301
C   C25       1.0  0.43385  0.65380  0.74944  1.0000 0.0308926902
C   C26       1.0  0.92737  0.85731  0.73669  1.0000 0.0226050361
C   C27       1.0  0.36410  0.71459  0.68991  1.0000 -0.2363235301
C   C28       1.0  0.91522  0.92935  0.66275  1.0000 0.5992602419
C   C29       1.0  0.43163  0.75431  0.63505  1.0000 0.0308926902
C   C30       1.0  0.40667  0.83083  0.56596  1.0000 0.5992602419
C   C31       1.0  0.97082  0.16340  0.61008  1.0000 0.6174516093
C   C32       1.0  0.02642  0.24219  0.66483  1.0000 0.0308926902
C   C33       1.0  0.59115  0.10013  0.66982  1.0000 0.6174516093
C   C34       1.0  0.98620  0.29808  0.72994  1.0000 -0.2363235301
C   C35       1.0  0.56615  0.15380  0.75056  1.0000 0.0308926902
C   C36       1.0  0.07263  0.35731  0.76331  1.0000 0.0226050361
C   C37       1.0  0.63590  0.21459  0.81009  1.0000 -0.2340149123
C   C38       1.0  0.08478  0.42935  0.83725  1.0000 0.5992602419
C   C39       1.0  0.56837  0.25431  0.86495  1.0000 0.0308926902
C   C40       1.0  0.59333  0.33083  0.93404  1.0000 0.5992602419
N   N1        1.0  0.13068  0.23453  0.15886  1.0000 -0.1903846495
N   N2        1.0  0.15649  0.16330  0.21826  1.0000 -0.0680939125
N   N3        1.0  0.46304  0.34550  0.26921  1.0000 -0.1903846495
N   N4        1.0  0.46614  0.28314  0.33832  1.0000 -0.0680939125
N   N5        1.0  0.86932  0.73453  0.34114  1.0000 -0.1903846495
N   N6        1.0  0.84351  0.66330  0.28174  1.0000 -0.0680939125
N   N7        1.0  0.53696  0.84550  0.23079  1.0000 -0.1903846495
N   N8        1.0  0.53386  0.78314  0.16168  1.0000 -0.0680939125
N   N9        1.0  0.86932  0.76547  0.84114  1.0000 -0.1903846495
N   N10       1.0  0.84351  0.83670  0.78174  1.0000 -0.0680939125
N   N11       1.0  0.53696  0.65450  0.73079  1.0000 -0.1903846495
N   N12       1.0  0.53386  0.71686  0.66168  1.0000 -0.0680939125
N   N13       1.0  0.13068  0.26547  0.65886  1.0000 -0.1903846495
N   N14       1.0  0.15649  0.33670  0.71826  1.0000 -0.0680939125
N   N15       1.0  0.46304  0.15450  0.76921  1.0000 -0.1903846495
N   N16       1.0  0.46614  0.21686  0.83832  1.0000 -0.0680939125
O   O1        1.0  0.84955  0.47614  0.97433  1.0000 -1.0188429841
O   O2        1.0  0.98896  0.56739  0.11338  1.0000 -0.5493172694
O   O3        1.0  0.02990  0.38942  0.07161  1.0000 -0.5684329029
O   O4        1.0  0.65004  0.51823  0.01520  1.0000 -1.0188429841
O   O5        1.0  0.68599  0.38747  0.15096  1.0000 -0.5616832663
O   O6        1.0  0.83083  0.51955  0.15506  1.0000 -0.5873768915
O   O7        1.0  0.86841  0.34488  0.10931  1.0000 -0.5616832663
O   O8        1.0  0.69446  0.34359  0.96971  1.0000 -0.5616832663
O   O9        1.0  0.51537  0.45087  0.12509  1.0000 -0.5684329029
O   O10       1.0  0.48804  0.62275  0.05037  1.0000 -0.5873768915
O   O11       1.0  0.15045  0.97614  0.52567  1.0000 -1.0188429841
O   O12       1.0  0.01104  0.06739  0.38662  1.0000 -0.5493172694
O   O13       1.0  0.97010  0.88942  0.42839  1.0000 -0.5684329029
O   O14       1.0  0.34996  0.01823  0.48480  1.0000 -1.0145039249
O   O15       1.0  0.31401  0.88747  0.34904  1.0000 -0.5616832663
O   O16       1.0  0.16917  0.01955  0.34494  1.0000 -0.5873768915
O   O17       1.0  0.13159  0.84488  0.39069  1.0000 -0.5684329029
O   O18       1.0  0.30554  0.84359  0.53029  1.0000 -0.5616832663
O   O19       1.0  0.48463  0.95087  0.37491  1.0000 -0.5684329029
O   O20       1.0  0.51196  0.12275  0.44963  1.0000 -0.5873768915
O   O21       1.0  0.15045  0.52386  0.02567  1.0000 -1.0188429841
O   O22       1.0  0.01104  0.43261  0.88662  1.0000 -0.5493172694
O   O23       1.0  0.97010  0.61058  0.92839  1.0000 -0.5684329029
O   O24       1.0  0.34996  0.48177  0.98480  1.0000 -1.0145039249
O   O25       1.0  0.31401  0.61253  0.84904  1.0000 -0.5616832663
O   O26       1.0  0.16917  0.48045  0.84494  1.0000 -0.5873768915
O   O27       1.0  0.13159  0.65512  0.89069  1.0000 -0.5616832663
O   O28       1.0  0.30554  0.65641  0.03029  1.0000 -0.5616832663
O   O29       1.0  0.48463  0.54913  0.87491  1.0000 -0.5684329029
O   O30       1.0  0.51196  0.37725  0.94963  1.0000 -0.5873768915
O   O31       1.0  0.84955  0.02386  0.47433  1.0000 -1.0188429841
O   O32       1.0  0.98896  0.93261  0.61338  1.0000 -0.5493172694
O   O33       1.0  0.02990  0.11058  0.57161  1.0000 -0.5684329029
O   O34       1.0  0.65004  0.98177  0.51520  1.0000 -1.0188429841
O   O35       1.0  0.68599  0.11253  0.65096  1.0000 -0.5616832663
O   O36       1.0  0.83083  0.98045  0.65506  1.0000 -0.5873768915
O   O37       1.0  0.86841  0.15512  0.60931  1.0000 -0.5616832663
O   O38       1.0  0.69446  0.15641  0.46971  1.0000 -0.5616832663
O   O39       1.0  0.51537  0.04913  0.62509  1.0000 -0.5684329029
O   O40       1.0  0.48804  0.87725  0.55037  1.0000 -0.5873768915
