# DDEC6 charges by PACMAN v1.1 (https://github.com/mtap-research/PACMAN-charge/)
data_2021[Cu][nan]3[ASR]3
_chemical_formula_sum              "Cu12 H104 C128 O40"
_cell_length_a       10.587
_cell_length_b       26.9239
_cell_length_c       14.729
_cell_angle_alpha    90
_cell_angle_beta     108.457
_cell_angle_gamma    90

_symmetry_space_group_name_H-M    "P 1"
_symmetry_Int_Tables_number       1

loop_
  _symmetry_equiv_pos_as_xyz
  'x, y, z'

loop_
  _atom_site_type_symbol
  _atom_site_label
  _atom_site_symmetry_multiplicity
  _atom_site_fract_x
  _atom_site_fract_y
  _atom_site_fract_z
  _atom_site_occupancy
  _atom_site_charge
Cu  Cu1       1.0  0.69670  0.20755  0.69216  1.0000 0.9969688568
Cu  Cu2       1.0  0.41713  0.19457  0.75001  1.0000 0.9188955191
Cu  Cu3       1.0  0.46752  0.27872  0.63402  1.0000 0.9450745497
Cu  Cu4       1.0  0.80330  0.70755  0.30784  1.0000 0.9969688568
Cu  Cu5       1.0  0.08287  0.69457  0.24999  1.0000 0.9188955191
Cu  Cu6       1.0  0.03248  0.77872  0.36598  1.0000 0.9450745497
Cu  Cu7       1.0  0.30330  0.79245  0.30784  1.0000 0.9969688568
Cu  Cu8       1.0  0.58287  0.80543  0.24999  1.0000 0.9188955191
Cu  Cu9       1.0  0.53248  0.72128  0.36598  1.0000 0.9450745497
Cu  Cu10      1.0  0.19670  0.29245  0.69216  1.0000 0.9969688568
Cu  Cu11      1.0  0.91713  0.30543  0.75001  1.0000 0.9188955191
Cu  Cu12      1.0  0.96752  0.22128  0.63402  1.0000 0.9450745497
H   H1        1.0  0.46600  0.19100  0.60400  1.0000 0.3906232629
H   H2        1.0  0.43100  0.28260  0.77320  1.0000 0.3783380304
H   H3        1.0  0.75975  0.20555  0.42194  1.0000 0.1294359986
H   H4        1.0  0.78570  0.21589  0.27211  1.0000 0.1222464602
H   H5        1.0  0.51142  0.32271  0.36837  1.0000 0.1294359986
H   H6        1.0  0.44769  0.33272  0.13594  1.0000 0.1392501999
H   H7        1.0  0.56762  0.36929  0.17641  1.0000 0.1392501999
H   H8        1.0  0.45503  0.36638  0.22432  1.0000 0.1392501999
H   H9        1.0  0.54465  0.23316  0.06815  1.0000 0.1222464602
H   H10       1.0  0.57382  0.23882  0.91928  1.0000 0.1132305402
H   H11       1.0  0.87158  0.33447  0.02460  1.0000 0.1294359986
H   H12       1.0  0.93953  0.36096  0.18373  1.0000 0.1392501999
H   H13       1.0  0.93421  0.31755  0.25337  1.0000 0.1392501999
H   H14       1.0  0.83016  0.36087  0.23479  1.0000 0.1392501999
H   H15       1.0  0.33194  0.47549  0.67184  1.0000 0.1222464602
H   H16       1.0  0.42742  0.53951  0.77372  1.0000 0.1222464602
H   H17       1.0  0.64198  0.38921  0.80163  1.0000 0.1294359986
H   H18       1.0  0.78097  0.41173  0.96070  1.0000 0.1392501999
H   H19       1.0  0.78742  0.46710  0.99479  1.0000 0.1392501999
H   H20       1.0  0.85853  0.45124  0.92077  1.0000 0.1472923521
H   H21       1.0  0.49727  0.54432  0.97710  1.0000 0.1222464602
H   H22       1.0  0.58655  0.60074  0.09864  1.0000 0.1222464602
H   H23       1.0  0.90989  0.61260  0.01408  1.0000 0.1294359986
H   H24       1.0  0.83064  0.52481  0.83473  1.0000 0.1294359986
H   H25       1.0  0.93628  0.56516  0.88525  1.0000 0.1392501999
H   H26       1.0  0.80675  0.58059  0.80349  1.0000 0.1392501999
H   H27       1.0  0.03400  0.69100  0.39600  1.0000 0.3906232629
H   H28       1.0  0.06900  0.78260  0.22680  1.0000 0.3783380304
H   H29       1.0  0.74025  0.70555  0.57806  1.0000 0.1294359986
H   H30       1.0  0.71430  0.71589  0.72789  1.0000 0.1222464602
H   H31       1.0  0.98858  0.82271  0.63163  1.0000 0.1294359986
H   H32       1.0  0.05231  0.83272  0.86406  1.0000 0.1392501999
H   H33       1.0  0.93238  0.86929  0.82359  1.0000 0.1392501999
H   H34       1.0  0.04497  0.86638  0.77568  1.0000 0.1392501999
H   H35       1.0  0.95535  0.73316  0.93185  1.0000 0.1222464602
H   H36       1.0  0.92618  0.73882  0.08072  1.0000 0.1132305402
H   H37       1.0  0.62842  0.83447  0.97540  1.0000 0.1294359986
H   H38       1.0  0.56047  0.86096  0.81627  1.0000 0.1392501999
H   H39       1.0  0.56579  0.81755  0.74663  1.0000 0.1392501999
H   H40       1.0  0.66984  0.86087  0.76521  1.0000 0.1392501999
H   H41       1.0  0.16806  0.97549  0.32816  1.0000 0.1222464602
H   H42       1.0  0.07258  0.03951  0.22628  1.0000 0.1222464602
H   H43       1.0  0.85802  0.88921  0.19837  1.0000 0.1294359986
H   H44       1.0  0.71903  0.91173  0.03930  1.0000 0.1392501999
H   H45       1.0  0.71258  0.96710  0.00521  1.0000 0.1392501999
H   H46       1.0  0.64147  0.95124  0.07923  1.0000 0.1472923521
H   H47       1.0  0.00273  0.04432  0.02290  1.0000 0.1222464602
H   H48       1.0  0.91345  0.10074  0.90136  1.0000 0.1222464602
H   H49       1.0  0.59011  0.11260  0.98592  1.0000 0.1294359986
H   H50       1.0  0.66936  0.02481  0.16527  1.0000 0.1294359986
H   H51       1.0  0.56372  0.06516  0.11475  1.0000 0.1392501999
H   H52       1.0  0.69325  0.08059  0.19651  1.0000 0.1392501999
H   H53       1.0  0.53400  0.80900  0.39600  1.0000 0.3906232629
H   H54       1.0  0.56900  0.71740  0.22680  1.0000 0.3783380304
H   H55       1.0  0.24025  0.79445  0.57806  1.0000 0.1294359986
H   H56       1.0  0.21430  0.78411  0.72789  1.0000 0.1222464602
H   H57       1.0  0.48858  0.67729  0.63163  1.0000 0.1294359986
H   H58       1.0  0.55231  0.66728  0.86406  1.0000 0.1392501999
H   H59       1.0  0.43238  0.63071  0.82359  1.0000 0.1392501999
H   H60       1.0  0.54497  0.63362  0.77568  1.0000 0.1392501999
H   H61       1.0  0.45535  0.76684  0.93185  1.0000 0.1222464602
H   H62       1.0  0.42618  0.76118  0.08072  1.0000 0.1132305402
H   H63       1.0  0.12842  0.66553  0.97540  1.0000 0.1294359986
H   H64       1.0  0.06047  0.63904  0.81627  1.0000 0.1392501999
H   H65       1.0  0.06579  0.68245  0.74663  1.0000 0.1392501999
H   H66       1.0  0.16984  0.63913  0.76521  1.0000 0.1392501999
H   H67       1.0  0.66806  0.52451  0.32816  1.0000 0.1222464602
H   H68       1.0  0.57258  0.46049  0.22628  1.0000 0.1222464602
H   H69       1.0  0.35802  0.61079  0.19837  1.0000 0.1294359986
H   H70       1.0  0.21903  0.58827  0.03930  1.0000 0.1392501999
H   H71       1.0  0.21258  0.53290  0.00521  1.0000 0.1392501999
H   H72       1.0  0.14147  0.54876  0.07923  1.0000 0.1472923521
H   H73       1.0  0.50273  0.45568  0.02290  1.0000 0.1222464602
H   H74       1.0  0.41345  0.39926  0.90136  1.0000 0.1222464602
H   H75       1.0  0.09011  0.38740  0.98592  1.0000 0.1294359986
H   H76       1.0  0.16936  0.47519  0.16527  1.0000 0.1294359986
H   H77       1.0  0.06372  0.43484  0.11475  1.0000 0.1392501999
H   H78       1.0  0.19325  0.41941  0.19651  1.0000 0.1392501999
H   H79       1.0  0.96600  0.30900  0.60400  1.0000 0.3906232629
H   H80       1.0  0.93100  0.21740  0.77320  1.0000 0.3783380304
H   H81       1.0  0.25975  0.29445  0.42194  1.0000 0.1294359986
H   H82       1.0  0.28570  0.28411  0.27211  1.0000 0.1222464602
H   H83       1.0  0.01142  0.17729  0.36837  1.0000 0.1294359986
H   H84       1.0  0.94769  0.16728  0.13594  1.0000 0.1392501999
H   H85       1.0  0.06762  0.13071  0.17641  1.0000 0.1392501999
H   H86       1.0  0.95503  0.13362  0.22432  1.0000 0.1392501999
H   H87       1.0  0.04465  0.26684  0.06815  1.0000 0.1222464602
H   H88       1.0  0.07382  0.26118  0.91928  1.0000 0.1132305402
H   H89       1.0  0.37158  0.16553  0.02460  1.0000 0.1294359986
H   H90       1.0  0.43953  0.13904  0.18373  1.0000 0.1392501999
H   H91       1.0  0.43421  0.18245  0.25337  1.0000 0.1392501999
H   H92       1.0  0.33016  0.13913  0.23479  1.0000 0.1392501999
H   H93       1.0  0.83194  0.02451  0.67184  1.0000 0.1222464602
H   H94       1.0  0.92742  0.96049  0.77372  1.0000 0.1222464602
H   H95       1.0  0.14198  0.11079  0.80163  1.0000 0.1294359986
H   H96       1.0  0.28097  0.08827  0.96070  1.0000 0.1392501999
H   H97       1.0  0.28742  0.03290  0.99479  1.0000 0.1392501999
H   H98       1.0  0.35853  0.04876  0.92077  1.0000 0.1472923521
H   H99       1.0  0.99727  0.95568  0.97710  1.0000 0.1222464602
H   H100      1.0  0.08655  0.89926  0.09864  1.0000 0.1222464602
H   H101      1.0  0.40989  0.88740  0.01408  1.0000 0.1294359986
H   H102      1.0  0.33064  0.97519  0.83473  1.0000 0.1294359986
H   H103      1.0  0.43628  0.93484  0.88525  1.0000 0.1392501999
H   H104      1.0  0.30675  0.91941  0.80349  1.0000 0.1392501999
C   C1        1.0  0.61590  0.25847  0.50620  1.0000 0.5906140421
C   C2        1.0  0.63350  0.26378  0.41030  1.0000 -0.0339936513
C   C3        1.0  0.71590  0.23114  0.38190  1.0000 -0.1166794023
C   C4        1.0  0.73140  0.23766  0.29190  1.0000 -0.1437790889
C   C5        1.0  0.66790  0.27569  0.23150  1.0000 0.0198472173
C   C6        1.0  0.58220  0.30775  0.25900  1.0000 0.1294359986
C   C7        1.0  0.56710  0.30137  0.34900  1.0000 -0.1776109783
C   C8        1.0  0.50630  0.34760  0.19300  1.0000 -0.4666097511
C   C9        1.0  0.68920  0.28137  0.13590  1.0000 0.0198472173
C   C10       1.0  0.61020  0.25390  0.05960  1.0000 -0.1330121245
C   C11       1.0  0.62800  0.25715  0.97030  1.0000 -0.1166794023
C   C12       1.0  0.72540  0.28734  0.95730  1.0000 -0.0244621087
C   C13       1.0  0.80550  0.31423  0.03370  1.0000 -0.1776109783
C   C14       1.0  0.79020  0.31196  0.12420  1.0000 0.1294359986
C   C15       1.0  0.88180  0.34040  0.20640  1.0000 -0.4666097511
C   C16       1.0  0.74590  0.28910  0.86040  1.0000 0.5906140421
C   C17       1.0  0.41570  0.38246  0.66250  1.0000 0.5802392023
C   C18       1.0  0.47800  0.42554  0.72500  1.0000 -0.0244621087
C   C19       1.0  0.41420  0.47080  0.71830  1.0000 -0.1105060728
C   C20       1.0  0.47130  0.50917  0.78000  1.0000 -0.153490835
C   C21       1.0  0.59300  0.50333  0.85110  1.0000 0.0198472173
C   C22       1.0  0.65710  0.45705  0.86050  1.0000 0.1294359986
C   C23       1.0  0.59840  0.41959  0.79640  1.0000 -0.1683206421
C   C24       1.0  0.78240  0.44580  0.94160  1.0000 -0.4617689784
C   C25       1.0  0.64980  0.54380  0.92250  1.0000 0.0198472173
C   C26       1.0  0.58110  0.55771  0.98510  1.0000 -0.1437790889
C   C27       1.0  0.63490  0.59103  0.05880  1.0000 -0.1105060728
C   C28       1.0  0.76190  0.60983  0.07270  1.0000 -0.0244621087
C   C29       1.0  0.82710  0.59848  0.00670  1.0000 -0.1776109783
C   C30       1.0  0.77210  0.56678  0.93030  1.0000 0.1294359986
C   C31       1.0  0.84290  0.55860  0.85670  1.0000 -0.4617689784
C   C32       1.0  0.82940  0.64171  0.15670  1.0000 0.5802392023
C   C33       1.0  0.88410  0.75847  0.49380  1.0000 0.5906140421
C   C34       1.0  0.86650  0.76378  0.58970  1.0000 -0.0339936513
C   C35       1.0  0.78410  0.73114  0.61810  1.0000 -0.1166794023
C   C36       1.0  0.76860  0.73766  0.70810  1.0000 -0.1437790889
C   C37       1.0  0.83210  0.77569  0.76850  1.0000 0.0198472173
C   C38       1.0  0.91780  0.80775  0.74100  1.0000 0.1294359986
C   C39       1.0  0.93290  0.80137  0.65100  1.0000 -0.1776109783
C   C40       1.0  0.99370  0.84760  0.80700  1.0000 -0.4666097511
C   C41       1.0  0.81080  0.78137  0.86410  1.0000 0.0198472173
C   C42       1.0  0.88980  0.75390  0.94040  1.0000 -0.1330121245
C   C43       1.0  0.87200  0.75715  0.02970  1.0000 -0.1166794023
C   C44       1.0  0.77460  0.78734  0.04270  1.0000 -0.0244621087
C   C45       1.0  0.69450  0.81423  0.96630  1.0000 -0.1776109783
C   C46       1.0  0.70980  0.81196  0.87580  1.0000 0.1294359986
C   C47       1.0  0.61820  0.84040  0.79360  1.0000 -0.4666097511
C   C48       1.0  0.75410  0.78910  0.13960  1.0000 0.5906140421
C   C49       1.0  0.08430  0.88246  0.33750  1.0000 0.5802392023
C   C50       1.0  0.02200  0.92554  0.27500  1.0000 -0.0244621087
C   C51       1.0  0.08580  0.97080  0.28170  1.0000 -0.1105060728
C   C52       1.0  0.02870  0.00917  0.22000  1.0000 -0.153490835
C   C53       1.0  0.90700  0.00333  0.14890  1.0000 0.0198472173
C   C54       1.0  0.84290  0.95705  0.13950  1.0000 0.1294359986
C   C55       1.0  0.90160  0.91959  0.20360  1.0000 -0.1683206421
C   C56       1.0  0.71760  0.94580  0.05840  1.0000 -0.4617689784
C   C57       1.0  0.85020  0.04380  0.07750  1.0000 0.0198472173
C   C58       1.0  0.91890  0.05771  0.01490  1.0000 -0.1437790889
C   C59       1.0  0.86510  0.09103  0.94120  1.0000 -0.1105060728
C   C60       1.0  0.73810  0.10983  0.92730  1.0000 -0.0244621087
C   C61       1.0  0.67290  0.09848  0.99330  1.0000 -0.1776109783
C   C62       1.0  0.72790  0.06678  0.06970  1.0000 0.1294359986
C   C63       1.0  0.65710  0.05860  0.14330  1.0000 -0.4617689784
C   C64       1.0  0.67060  0.14171  0.84330  1.0000 0.5802392023
C   C65       1.0  0.38410  0.74153  0.49380  1.0000 0.5906140421
C   C66       1.0  0.36650  0.73622  0.58970  1.0000 -0.0339936513
C   C67       1.0  0.28410  0.76886  0.61810  1.0000 -0.1166794023
C   C68       1.0  0.26860  0.76234  0.70810  1.0000 -0.1437790889
C   C69       1.0  0.33210  0.72431  0.76850  1.0000 0.0198472173
C   C70       1.0  0.41780  0.69225  0.74100  1.0000 0.1294359986
C   C71       1.0  0.43290  0.69863  0.65100  1.0000 -0.1776109783
C   C72       1.0  0.49370  0.65240  0.80700  1.0000 -0.4666097511
C   C73       1.0  0.31080  0.71863  0.86410  1.0000 0.0198472173
C   C74       1.0  0.38980  0.74610  0.94040  1.0000 -0.1330121245
C   C75       1.0  0.37200  0.74285  0.02970  1.0000 -0.1166794023
C   C76       1.0  0.27460  0.71266  0.04270  1.0000 -0.0244621087
C   C77       1.0  0.19450  0.68577  0.96630  1.0000 -0.1776109783
C   C78       1.0  0.20980  0.68804  0.87580  1.0000 0.1294359986
C   C79       1.0  0.11820  0.65960  0.79360  1.0000 -0.4666097511
C   C80       1.0  0.25410  0.71090  0.13960  1.0000 0.5906140421
C   C81       1.0  0.58430  0.61754  0.33750  1.0000 0.5802392023
C   C82       1.0  0.52200  0.57446  0.27500  1.0000 -0.0244621087
C   C83       1.0  0.58580  0.52920  0.28170  1.0000 -0.1105060728
C   C84       1.0  0.52870  0.49083  0.22000  1.0000 -0.153490835
C   C85       1.0  0.40700  0.49667  0.14890  1.0000 0.0198472173
C   C86       1.0  0.34290  0.54295  0.13950  1.0000 0.1294359986
C   C87       1.0  0.40160  0.58041  0.20360  1.0000 -0.1683206421
C   C88       1.0  0.21760  0.55420  0.05840  1.0000 -0.4617689784
C   C89       1.0  0.35020  0.45620  0.07750  1.0000 0.0198472173
C   C90       1.0  0.41890  0.44229  0.01490  1.0000 -0.1437790889
C   C91       1.0  0.36510  0.40897  0.94120  1.0000 -0.1105060728
C   C92       1.0  0.23810  0.39017  0.92730  1.0000 -0.0244621087
C   C93       1.0  0.17290  0.40152  0.99330  1.0000 -0.1776109783
C   C94       1.0  0.22790  0.43322  0.06970  1.0000 0.1294359986
C   C95       1.0  0.15710  0.44140  0.14330  1.0000 -0.4617689784
C   C96       1.0  0.17060  0.35829  0.84330  1.0000 0.5802392023
C   C97       1.0  0.11590  0.24153  0.50620  1.0000 0.5906140421
C   C98       1.0  0.13350  0.23622  0.41030  1.0000 -0.0339936513
C   C99       1.0  0.21590  0.26886  0.38190  1.0000 -0.1166794023
C   C100      1.0  0.23140  0.26234  0.29190  1.0000 -0.1437790889
C   C101      1.0  0.16790  0.22431  0.23150  1.0000 0.0198472173
C   C102      1.0  0.08220  0.19225  0.25900  1.0000 0.1294359986
C   C103      1.0  0.06710  0.19863  0.34900  1.0000 -0.1776109783
C   C104      1.0  0.00630  0.15240  0.19300  1.0000 -0.4666097511
C   C105      1.0  0.18920  0.21863  0.13590  1.0000 0.0198472173
C   C106      1.0  0.11020  0.24610  0.05960  1.0000 -0.1330121245
C   C107      1.0  0.12800  0.24285  0.97030  1.0000 -0.1166794023
C   C108      1.0  0.22540  0.21266  0.95730  1.0000 -0.0244621087
C   C109      1.0  0.30550  0.18577  0.03370  1.0000 -0.1776109783
C   C110      1.0  0.29020  0.18804  0.12420  1.0000 0.1294359986
C   C111      1.0  0.38180  0.15960  0.20640  1.0000 -0.4666097511
C   C112      1.0  0.24590  0.21090  0.86040  1.0000 0.5906140421
C   C113      1.0  0.91570  0.11754  0.66250  1.0000 0.5735059295
C   C114      1.0  0.97800  0.07446  0.72500  1.0000 -0.0244621087
C   C115      1.0  0.91420  0.02920  0.71830  1.0000 -0.1105060728
C   C116      1.0  0.97130  0.99083  0.78000  1.0000 -0.153490835
C   C117      1.0  0.09300  0.99667  0.85110  1.0000 0.0198472173
C   C118      1.0  0.15710  0.04295  0.86050  1.0000 0.1294359986
C   C119      1.0  0.09840  0.08041  0.79640  1.0000 -0.1683206421
C   C120      1.0  0.28240  0.05420  0.94160  1.0000 -0.4617689784
C   C121      1.0  0.14980  0.95620  0.92250  1.0000 0.0198472173
C   C122      1.0  0.08110  0.94229  0.98510  1.0000 -0.1437790889
C   C123      1.0  0.13490  0.90897  0.05880  1.0000 -0.1105060728
C   C124      1.0  0.26190  0.89017  0.07270  1.0000 -0.0244621087
C   C125      1.0  0.32710  0.90152  0.00670  1.0000 -0.1776109783
C   C126      1.0  0.27210  0.93322  0.93030  1.0000 0.1294359986
C   C127      1.0  0.34290  0.94140  0.85670  1.0000 -0.4617689784
C   C128      1.0  0.32940  0.85829  0.15670  1.0000 0.5802392023
O   O1        1.0  0.50100  0.20591  0.65121  1.0000 -0.7891591277
O   O2        1.0  0.38040  0.26984  0.73134  1.0000 -0.7500908461
O   O3        1.0  0.75640  0.66543  0.19547  1.0000 -0.543472537
O   O4        1.0  0.95420  0.64222  0.18369  1.0000 -0.5288590278
O   O5        1.0  0.49620  0.34887  0.65463  1.0000 -0.5552572396
O   O6        1.0  0.29230  0.37961  0.62600  1.0000 -0.5722856607
O   O7        1.0  0.52150  0.28196  0.52123  1.0000 -0.5207863536
O   O8        1.0  0.69910  0.23095  0.56667  1.0000 -0.5987907138
O   O9        1.0  0.65920  0.27147  0.78959  1.0000 -0.6339440431
O   O10       1.0  0.85420  0.30905  0.85824  1.0000 -0.543472537
O   O11       1.0  0.99900  0.70591  0.34879  1.0000 -0.7891591277
O   O12       1.0  0.11960  0.76984  0.26866  1.0000 -0.7500908461
O   O13       1.0  0.74360  0.16543  0.80453  1.0000 -0.543472537
O   O14       1.0  0.54580  0.14222  0.81631  1.0000 -0.5288590278
O   O15       1.0  0.00380  0.84887  0.34537  1.0000 -0.5552572396
O   O16       1.0  0.20770  0.87961  0.37400  1.0000 -0.5722856607
O   O17       1.0  0.97850  0.78196  0.47877  1.0000 -0.5207863536
O   O18       1.0  0.80090  0.73095  0.43333  1.0000 -0.5987907138
O   O19       1.0  0.84080  0.77147  0.21041  1.0000 -0.6339440431
O   O20       1.0  0.64580  0.80905  0.14176  1.0000 -0.543472537
O   O21       1.0  0.49900  0.79409  0.34879  1.0000 -0.7891591277
O   O22       1.0  0.61960  0.73016  0.26866  1.0000 -0.7500908461
O   O23       1.0  0.24360  0.33457  0.80453  1.0000 -0.543472537
O   O24       1.0  0.04580  0.35778  0.81631  1.0000 -0.5288590278
O   O25       1.0  0.50380  0.65113  0.34537  1.0000 -0.5552572396
O   O26       1.0  0.70770  0.62039  0.37400  1.0000 -0.5722856607
O   O27       1.0  0.47850  0.71804  0.47877  1.0000 -0.5207863536
O   O28       1.0  0.30090  0.76905  0.43333  1.0000 -0.5987907138
O   O29       1.0  0.34080  0.72853  0.21041  1.0000 -0.6352828827
O   O30       1.0  0.14580  0.69095  0.14176  1.0000 -0.543472537
O   O31       1.0  0.00100  0.29409  0.65121  1.0000 -0.7891591277
O   O32       1.0  0.88040  0.23016  0.73134  1.0000 -0.7500908461
O   O33       1.0  0.25640  0.83457  0.19547  1.0000 -0.543472537
O   O34       1.0  0.45420  0.85778  0.18369  1.0000 -0.5288590278
O   O35       1.0  0.99620  0.15113  0.65463  1.0000 -0.5552572396
O   O36       1.0  0.79230  0.12039  0.62600  1.0000 -0.5722856607
O   O37       1.0  0.02150  0.21804  0.52123  1.0000 -0.5207863536
O   O38       1.0  0.19910  0.26905  0.56667  1.0000 -0.5987907138
O   O39       1.0  0.15920  0.22853  0.78959  1.0000 -0.6339440431
O   O40       1.0  0.35420  0.19095  0.85824  1.0000 -0.543472537
