# DDEC6 charges by PACMAN v1.1 (https://github.com/mtap-research/PACMAN-charge/)
data_2021[Ce][fcu]3[ASR]1
_chemical_formula_sum              "Ce6 C48 O56"
_cell_length_a       15.6693
_cell_length_b       15.6693
_cell_length_c       15.6693
_cell_angle_alpha    119.999
_cell_angle_beta     119.999
_cell_angle_gamma    90.002

_symmetry_space_group_name_H-M    "P 1"
_symmetry_Int_Tables_number       1

loop_
  _symmetry_equiv_pos_as_xyz
  'x, y, z'

loop_
  _atom_site_type_symbol
  _atom_site_label
  _atom_site_symmetry_multiplicity
  _atom_site_fract_x
  _atom_site_fract_y
  _atom_site_fract_z
  _atom_site_occupancy
  _atom_site_charge
Ce  Ce1       1.0  0.86861  0.13140  0.00001  1.0000 2.209851377
Ce  Ce2       1.0  0.13139  0.86860  0.99999  1.0000 2.209851377
Ce  Ce3       1.0  0.86860  0.86861  0.73721  1.0000 2.209851377
Ce  Ce4       1.0  0.13140  0.13139  0.26279  1.0000 2.215635364
Ce  Ce5       1.0  0.13140  0.13140  0.00000  1.0000 2.209851377
Ce  Ce6       1.0  0.86860  0.86860  0.00000  1.0000 2.209851377
C   C1        1.0  0.99990  0.31450  0.99980  1.0000 0.7111012834
C   C2        1.0  0.00000  0.41070  0.00010  1.0000 -0.1523536601
C   C3        1.0  0.92330  0.45560  0.99930  1.0000 0.1984914037
C   C4        1.0  0.07640  0.45620  0.00020  1.0000 0.1984914037
C   C5        1.0  0.31470  0.00010  0.00020  1.0000 0.7111012834
C   C6        1.0  0.41060  0.99990  0.99990  1.0000 -0.1523536601
C   C7        1.0  0.45630  0.92400  0.00070  1.0000 0.1984914037
C   C8        1.0  0.45600  0.07620  0.99980  1.0000 0.1984914037
C   C9        1.0  0.00010  0.99990  0.68540  1.0000 0.7111012834
C   C10       1.0  0.99990  0.00000  0.58930  1.0000 -0.1523536601
C   C11       1.0  0.92400  0.92330  0.46770  1.0000 0.1984914037
C   C12       1.0  0.07620  0.07640  0.62020  1.0000 0.1984914037
C   C13       1.0  0.31450  0.31470  0.31460  1.0000 0.7111012834
C   C14       1.0  0.41070  0.41060  0.41070  1.0000 -0.1523536601
C   C15       1.0  0.45560  0.45630  0.53230  1.0000 0.1984914037
C   C16       1.0  0.45620  0.45600  0.37980  1.0000 0.1984914037
C   C17       1.0  0.00010  0.68550  0.00020  1.0000 0.7111012834
C   C18       1.0  0.00000  0.58930  0.99990  1.0000 -0.1523536601
C   C19       1.0  0.07670  0.54440  0.00070  1.0000 0.1984914037
C   C20       1.0  0.92360  0.54380  0.99980  1.0000 0.1984914037
C   C21       1.0  0.68530  0.99990  0.99980  1.0000 0.7111012834
C   C22       1.0  0.58940  0.00010  0.00010  1.0000 -0.1523536601
C   C23       1.0  0.54370  0.07600  0.99930  1.0000 0.1984914037
C   C24       1.0  0.54400  0.92380  0.00020  1.0000 0.1984914037
C   C25       1.0  0.99990  0.00010  0.31460  1.0000 0.7111012834
C   C26       1.0  0.00010  0.00000  0.41070  1.0000 -0.1523536601
C   C27       1.0  0.07600  0.07670  0.53230  1.0000 0.1984914037
C   C28       1.0  0.92380  0.92360  0.37980  1.0000 0.1984914037
C   C29       1.0  0.68550  0.68530  0.68540  1.0000 0.7111012834
C   C30       1.0  0.58930  0.58940  0.58930  1.0000 -0.1523536601
C   C31       1.0  0.54440  0.54370  0.46770  1.0000 0.1984914037
C   C32       1.0  0.54380  0.54400  0.62020  1.0000 0.1984914037
C   C33       1.0  0.00010  0.31440  0.31450  1.0000 0.7111012834
C   C34       1.0  0.99970  0.41030  0.41000  1.0000 -0.1625106809
C   C35       1.0  0.92400  0.45560  0.37960  1.0000 0.1984914037
C   C36       1.0  0.07620  0.45550  0.53170  1.0000 0.2056111368
C   C37       1.0  0.99990  0.68560  0.68550  1.0000 0.7111012834
C   C38       1.0  0.00030  0.58970  0.59000  1.0000 -0.1625106809
C   C39       1.0  0.07600  0.54440  0.62040  1.0000 0.1984914037
C   C40       1.0  0.92380  0.54450  0.46830  1.0000 0.2056111368
C   C41       1.0  0.68560  0.00010  0.68570  1.0000 0.7111012834
C   C42       1.0  0.58970  0.99970  0.58940  1.0000 -0.1625106809
C   C43       1.0  0.54440  0.92400  0.46840  1.0000 0.1984914037
C   C44       1.0  0.54450  0.07620  0.62070  1.0000 0.2056111368
C   C45       1.0  0.31440  0.99990  0.31430  1.0000 0.7111012834
C   C46       1.0  0.41030  0.00030  0.41060  1.0000 -0.1625106809
C   C47       1.0  0.45560  0.07600  0.53160  1.0000 0.1984914037
C   C48       1.0  0.45550  0.92380  0.37930  1.0000 0.2056111368
O   O1        1.0  0.92880  0.27760  0.99980  1.0000 -0.5174806807
O   O2        1.0  0.07110  0.27800  0.00030  1.0000 -0.5148248029
O   O3        1.0  0.15620  0.42320  0.99900  1.0000 -0.1938245249
O   O4        1.0  0.94080  0.05930  0.88150  1.0000 -0.950429174
O   O5        1.0  0.84230  0.42130  0.99700  1.0000 -0.1938245249
O   O6        1.0  0.27780  0.92900  0.00020  1.0000 -0.5174806807
O   O7        1.0  0.27770  0.07080  0.99970  1.0000 -0.5148248029
O   O8        1.0  0.42420  0.15720  0.00100  1.0000 -0.1938245249
O   O9        1.0  0.17780  0.05930  0.11850  1.0000 -0.950429174
O   O10       1.0  0.42430  0.84530  0.00300  1.0000 -0.1938245249
O   O11       1.0  0.92900  0.92880  0.65120  1.0000 -0.5174806807
O   O12       1.0  0.07080  0.07110  0.79310  1.0000 -0.5148248029
O   O13       1.0  0.15720  0.15620  0.73300  1.0000 -0.1938245249
O   O14       1.0  0.05930  0.94080  0.88150  1.0000 -0.950429174
O   O15       1.0  0.84530  0.84230  0.42100  1.0000 -0.1938245249
O   O16       1.0  0.27760  0.27780  0.34880  1.0000 -0.5174806807
O   O17       1.0  0.27800  0.27770  0.20690  1.0000 -0.5148248029
O   O18       1.0  0.42320  0.42420  0.26700  1.0000 -0.1938245249
O   O19       1.0  0.05930  0.17780  0.11850  1.0000 -0.950429174
O   O20       1.0  0.42130  0.42430  0.57900  1.0000 -0.1938245249
O   O21       1.0  0.07120  0.72240  0.00020  1.0000 -0.5174806807
O   O22       1.0  0.92890  0.72200  0.99970  1.0000 -0.5148248029
O   O23       1.0  0.84380  0.57680  0.00100  1.0000 -0.1992696153
O   O24       1.0  0.05920  0.94070  0.11850  1.0000 -0.950429174
O   O25       1.0  0.15770  0.57870  0.00300  1.0000 -0.1938245249
O   O26       1.0  0.72220  0.07100  0.99980  1.0000 -0.5174806807
O   O27       1.0  0.72230  0.92920  0.00030  1.0000 -0.5148248029
O   O28       1.0  0.57580  0.84280  0.99900  1.0000 -0.1992696153
O   O29       1.0  0.82220  0.94070  0.88150  1.0000 -0.950429174
O   O30       1.0  0.57570  0.15470  0.99700  1.0000 -0.1938245249
O   O31       1.0  0.07100  0.07120  0.34880  1.0000 -0.5174806807
O   O32       1.0  0.92920  0.92890  0.20690  1.0000 -0.5174806807
O   O33       1.0  0.84280  0.84380  0.26700  1.0000 -0.1992696153
O   O34       1.0  0.94070  0.05920  0.11850  1.0000 -0.950429174
O   O35       1.0  0.15470  0.15770  0.57900  1.0000 -0.1938245249
O   O36       1.0  0.72240  0.72220  0.65120  1.0000 -0.5174806807
O   O37       1.0  0.72200  0.72230  0.79310  1.0000 -0.5148248029
O   O38       1.0  0.57680  0.57580  0.73300  1.0000 -0.1992696153
O   O39       1.0  0.94070  0.82220  0.88150  1.0000 -0.950429174
O   O40       1.0  0.57870  0.57570  0.42100  1.0000 -0.1938245249
O   O41       1.0  0.92890  0.27770  0.20660  1.0000 -0.5174806807
O   O42       1.0  0.07090  0.27750  0.34840  1.0000 -0.5174806807
O   O43       1.0  0.84320  0.42360  0.26680  1.0000 -0.1992696153
O   O44       1.0  0.15630  0.42370  0.58000  1.0000 -0.1992696153
O   O45       1.0  0.07110  0.72230  0.79340  1.0000 -0.5174806807
O   O46       1.0  0.92910  0.72250  0.65160  1.0000 -0.5174806807
O   O47       1.0  0.15680  0.57640  0.73320  1.0000 -0.1992696153
O   O48       1.0  0.84370  0.57630  0.42000  1.0000 -0.1992696153
O   O49       1.0  0.72230  0.92890  0.65120  1.0000 -0.5174806807
O   O50       1.0  0.72250  0.07090  0.79340  1.0000 -0.5174806807
O   O51       1.0  0.57640  0.84320  0.41960  1.0000 -0.1992696153
O   O52       1.0  0.57630  0.15630  0.73260  1.0000 -0.1992696153
O   O53       1.0  0.27770  0.07110  0.34880  1.0000 -0.5174806807
O   O54       1.0  0.27750  0.92910  0.20660  1.0000 -0.5174806807
O   O55       1.0  0.42360  0.15680  0.58040  1.0000 -0.1992696153
O   O56       1.0  0.42370  0.84370  0.26740  1.0000 -0.1992696153
