# DDEC6 charges by PACMAN v1.1 (https://github.com/mtap-research/PACMAN-charge/)
data_2021[Zn][usf]3[ASR]1
_chemical_formula_sum              "Zn6 H36 C72 N18 O30"
_cell_length_a       16.1343
_cell_length_b       16.1343
_cell_length_c       16.1343
_cell_angle_alpha    114.749
_cell_angle_beta     114.749
_cell_angle_gamma    114.749

_symmetry_space_group_name_H-M    "P 1"
_symmetry_Int_Tables_number       1

loop_
  _symmetry_equiv_pos_as_xyz
  'x, y, z'

loop_
  _atom_site_type_symbol
  _atom_site_label
  _atom_site_symmetry_multiplicity
  _atom_site_fract_x
  _atom_site_fract_y
  _atom_site_fract_z
  _atom_site_occupancy
  _atom_site_charge
Zn  Zn1       1.0  0.86650  0.22868  0.84689  1.0000 0.7686411
Zn  Zn2       1.0  0.22868  0.84689  0.86650  1.0000 0.7686411
Zn  Zn3       1.0  0.84689  0.86650  0.22868  1.0000 0.7686411
Zn  Zn4       1.0  0.36650  0.34689  0.72868  1.0000 0.7686411
Zn  Zn5       1.0  0.72868  0.36650  0.34689  1.0000 0.7686411
Zn  Zn6       1.0  0.34689  0.72868  0.36650  1.0000 0.7686411
H   H1        1.0  0.72740  0.45700  0.93980  1.0000 0.1500737381
H   H2        1.0  0.66330  0.49940  0.05810  1.0000 0.1500737381
H   H3        1.0  0.85750  0.06230  0.93260  1.0000 0.1500737381
H   H4        1.0  0.42200  0.64450  0.53460  1.0000 0.1500737381
H   H5        1.0  0.55480  0.67720  0.70540  1.0000 0.1230609063
H   H6        1.0  0.77010  0.88490  0.90250  1.0000 0.1230609063
H   H7        1.0  0.45700  0.93980  0.72740  1.0000 0.1500737381
H   H8        1.0  0.49940  0.05810  0.66330  1.0000 0.1500737381
H   H9        1.0  0.06230  0.93260  0.85750  1.0000 0.1500737381
H   H10       1.0  0.64450  0.53460  0.42200  1.0000 0.1500737381
H   H11       1.0  0.67720  0.70540  0.55480  1.0000 0.1230609063
H   H12       1.0  0.88490  0.90250  0.77010  1.0000 0.1230609063
H   H13       1.0  0.93980  0.72740  0.45700  1.0000 0.1500737381
H   H14       1.0  0.05810  0.66330  0.49940  1.0000 0.1500737381
H   H15       1.0  0.93260  0.85750  0.06230  1.0000 0.1500737381
H   H16       1.0  0.53460  0.42200  0.64450  1.0000 0.1500737381
H   H17       1.0  0.70540  0.55480  0.67720  1.0000 0.1230609063
H   H18       1.0  0.90250  0.77010  0.88490  1.0000 0.1230609063
H   H19       1.0  0.22740  0.43980  0.95700  1.0000 0.1500737381
H   H20       1.0  0.16330  0.55810  0.99940  1.0000 0.1500737381
H   H21       1.0  0.35750  0.43260  0.56230  1.0000 0.1500737381
H   H22       1.0  0.92200  0.03460  0.14450  1.0000 0.1500737381
H   H23       1.0  0.05480  0.20540  0.17720  1.0000 0.1230609063
H   H24       1.0  0.27010  0.40250  0.38490  1.0000 0.1230609063
H   H25       1.0  0.95700  0.22740  0.43980  1.0000 0.1500737381
H   H26       1.0  0.99940  0.16330  0.55810  1.0000 0.1500737381
H   H27       1.0  0.56230  0.35750  0.43260  1.0000 0.1500737381
H   H28       1.0  0.14450  0.92200  0.03460  1.0000 0.1500737381
H   H29       1.0  0.17720  0.05480  0.20540  1.0000 0.1230609063
H   H30       1.0  0.38490  0.27010  0.40250  1.0000 0.1230609063
H   H31       1.0  0.43980  0.95700  0.22740  1.0000 0.1500737381
H   H32       1.0  0.55810  0.99940  0.16330  1.0000 0.1500737381
H   H33       1.0  0.43260  0.56230  0.35750  1.0000 0.1500737381
H   H34       1.0  0.03460  0.14450  0.92200  1.0000 0.1500737381
H   H35       1.0  0.20540  0.17720  0.05480  1.0000 0.1230609063
H   H36       1.0  0.40250  0.38490  0.27010  1.0000 0.1230609063
C   C1        1.0  0.69570  0.41390  0.19130  1.0000 0.521376526
C   C2        1.0  0.69370  0.95780  0.74760  1.0000 0.1366712283
C   C3        1.0  0.76080  0.37500  0.99770  1.0000 0.108164927
C   C4        1.0  0.79960  0.31470  0.95260  1.0000 0.5101630445
C   C5        1.0  0.70920  0.41580  0.10600  1.0000 0.1273080775
C   C6        1.0  0.72750  0.43540  0.98500  1.0000 -0.1424135361
C   C7        1.0  0.69240  0.46010  0.05210  1.0000 -0.1424135361
C   C8        1.0  0.77270  0.97970  0.85340  1.0000 -0.1424135361
C   C9        1.0  0.50830  0.72620  0.61200  1.0000 -0.1468333547
C   C10       1.0  0.56290  0.83270  0.62880  1.0000 0.1366712283
C   C11       1.0  0.58730  0.74680  0.71430  1.0000 -0.0897029757
C   C12       1.0  0.71930  0.87410  0.83480  1.0000 -0.0897029757
C   C13       1.0  0.41390  0.19130  0.69570  1.0000 0.521376526
C   C14       1.0  0.95780  0.74760  0.69370  1.0000 0.1366712283
C   C15       1.0  0.37500  0.99770  0.76080  1.0000 0.108164927
C   C16       1.0  0.31470  0.95260  0.79960  1.0000 0.5101630445
C   C17       1.0  0.41580  0.10600  0.70920  1.0000 0.1273080775
C   C18       1.0  0.43540  0.98500  0.72750  1.0000 -0.1424135361
C   C19       1.0  0.46010  0.05210  0.69240  1.0000 -0.1424135361
C   C20       1.0  0.97970  0.85340  0.77270  1.0000 -0.1424135361
C   C21       1.0  0.72620  0.61200  0.50830  1.0000 -0.1468333547
C   C22       1.0  0.83270  0.62880  0.56290  1.0000 0.1366712283
C   C23       1.0  0.74680  0.71430  0.58730  1.0000 -0.0897029757
C   C24       1.0  0.87410  0.83480  0.71930  1.0000 -0.0897029757
C   C25       1.0  0.19130  0.69570  0.41390  1.0000 0.521376526
C   C26       1.0  0.74760  0.69370  0.95780  1.0000 0.1366712283
C   C27       1.0  0.99770  0.76080  0.37500  1.0000 0.108164927
C   C28       1.0  0.95260  0.79960  0.31470  1.0000 0.5101630445
C   C29       1.0  0.10600  0.70920  0.41580  1.0000 0.1273080775
C   C30       1.0  0.98500  0.72750  0.43540  1.0000 -0.1424135361
C   C31       1.0  0.05210  0.69240  0.46010  1.0000 -0.1468333547
C   C32       1.0  0.85340  0.77270  0.97970  1.0000 -0.1424135361
C   C33       1.0  0.61200  0.50830  0.72620  1.0000 -0.1468333547
C   C34       1.0  0.62880  0.56290  0.83270  1.0000 0.1366712283
C   C35       1.0  0.71430  0.58730  0.74680  1.0000 -0.0897029757
C   C36       1.0  0.83480  0.71930  0.87410  1.0000 -0.0897029757
C   C37       1.0  0.19570  0.69130  0.91390  1.0000 0.521376526
C   C38       1.0  0.19370  0.24760  0.45780  1.0000 0.1366712283
C   C39       1.0  0.26080  0.49770  0.87500  1.0000 0.108164927
C   C40       1.0  0.29960  0.45260  0.81470  1.0000 0.5101630445
C   C41       1.0  0.20920  0.60600  0.91580  1.0000 0.1273080775
C   C42       1.0  0.22750  0.48500  0.93540  1.0000 -0.1424135361
C   C43       1.0  0.19240  0.55210  0.96010  1.0000 -0.1424135361
C   C44       1.0  0.27270  0.35340  0.47970  1.0000 -0.1424135361
C   C45       1.0  0.00830  0.11200  0.22620  1.0000 -0.1468333547
C   C46       1.0  0.06290  0.12880  0.33270  1.0000 0.1366712283
C   C47       1.0  0.08730  0.21430  0.24680  1.0000 -0.0897029757
C   C48       1.0  0.21930  0.33480  0.37410  1.0000 -0.0897029757
C   C49       1.0  0.91390  0.19570  0.69130  1.0000 0.521376526
C   C50       1.0  0.45780  0.19370  0.24760  1.0000 0.1366712283
C   C51       1.0  0.87500  0.26080  0.49770  1.0000 0.108164927
C   C52       1.0  0.81470  0.29960  0.45260  1.0000 0.5101630445
C   C53       1.0  0.91580  0.20920  0.60600  1.0000 0.1273080775
C   C54       1.0  0.93540  0.22750  0.48500  1.0000 -0.1424135361
C   C55       1.0  0.96010  0.19240  0.55210  1.0000 -0.1424135361
C   C56       1.0  0.47970  0.27270  0.35340  1.0000 -0.1424135361
C   C57       1.0  0.22620  0.00830  0.11200  1.0000 -0.1468333547
C   C58       1.0  0.33270  0.06290  0.12880  1.0000 0.1366712283
C   C59       1.0  0.24680  0.08730  0.21430  1.0000 -0.0897029757
C   C60       1.0  0.37410  0.21930  0.33480  1.0000 -0.0897029757
C   C61       1.0  0.69130  0.91390  0.19570  1.0000 0.521376526
C   C62       1.0  0.24760  0.45780  0.19370  1.0000 0.1366712283
C   C63       1.0  0.49770  0.87500  0.26080  1.0000 0.108164927
C   C64       1.0  0.45260  0.81470  0.29960  1.0000 0.5101630445
C   C65       1.0  0.60600  0.91580  0.20920  1.0000 0.1273080775
C   C66       1.0  0.48500  0.93540  0.22750  1.0000 -0.1424135361
C   C67       1.0  0.55210  0.96010  0.19240  1.0000 -0.1424135361
C   C68       1.0  0.35340  0.47970  0.27270  1.0000 -0.1424135361
C   C69       1.0  0.11200  0.22620  0.00830  1.0000 -0.1468333547
C   C70       1.0  0.12880  0.33270  0.06290  1.0000 0.1366712283
C   C71       1.0  0.21430  0.24680  0.08730  1.0000 -0.0897029757
C   C72       1.0  0.33480  0.37410  0.21930  1.0000 -0.0897029757
N   N1        1.0  0.51370  0.84490  0.54820  1.0000 -0.2088798365
N   N2        1.0  0.60770  0.96700  0.60990  1.0000 0.046201909
N   N3        1.0  0.71820  0.03780  0.73010  1.0000 -0.2088798365
N   N4        1.0  0.84490  0.54820  0.51370  1.0000 -0.2088798365
N   N5        1.0  0.96700  0.60990  0.60770  1.0000 0.046201909
N   N6        1.0  0.03780  0.73010  0.71820  1.0000 -0.2088798365
N   N7        1.0  0.54820  0.51370  0.84490  1.0000 -0.2088798365
N   N8        1.0  0.60990  0.60770  0.96700  1.0000 0.046201909
N   N9        1.0  0.73010  0.71820  0.03780  1.0000 -0.2088798365
N   N10       1.0  0.01370  0.04820  0.34490  1.0000 -0.2088798365
N   N11       1.0  0.10770  0.10990  0.46700  1.0000 0.046201909
N   N12       1.0  0.21820  0.23010  0.53780  1.0000 -0.2088798365
N   N13       1.0  0.34490  0.01370  0.04820  1.0000 -0.2088798365
N   N14       1.0  0.46700  0.10770  0.10990  1.0000 0.046201909
N   N15       1.0  0.53780  0.21820  0.23010  1.0000 -0.2088798365
N   N16       1.0  0.04820  0.34490  0.01370  1.0000 -0.2088798365
N   N17       1.0  0.10990  0.46700  0.10770  1.0000 0.046201909
N   N18       1.0  0.23010  0.53780  0.21820  1.0000 -0.2088798365
O   O1        1.0  0.73460  0.37100  0.22860  1.0000 -0.4892312431
O   O2        1.0  0.75108  0.36258  0.07384  1.0000 -0.0781508392
O   O3        1.0  0.81500  0.25840  0.98000  1.0000 -0.4892312431
O   O4        1.0  0.81133  0.32140  0.88017  1.0000 -0.4892312431
O   O5        1.0  0.65140  0.45130  0.21890  1.0000 -0.4837940131
O   O6        1.0  0.37100  0.22860  0.73460  1.0000 -0.4892312431
O   O7        1.0  0.36258  0.07384  0.75108  1.0000 -0.0781508392
O   O8        1.0  0.25840  0.98000  0.81500  1.0000 -0.4892312431
O   O9        1.0  0.32140  0.88017  0.81133  1.0000 -0.4892312431
O   O10       1.0  0.45130  0.21890  0.65140  1.0000 -0.4837940131
O   O11       1.0  0.22860  0.73460  0.37100  1.0000 -0.4892312431
O   O12       1.0  0.07384  0.75108  0.36258  1.0000 -0.0781508392
O   O13       1.0  0.98000  0.81500  0.25840  1.0000 -0.4892312431
O   O14       1.0  0.88017  0.81133  0.32140  1.0000 -0.4892312431
O   O15       1.0  0.21890  0.65140  0.45130  1.0000 -0.4837940131
O   O16       1.0  0.23460  0.72860  0.87100  1.0000 -0.4892312431
O   O17       1.0  0.25108  0.57384  0.86258  1.0000 -0.0781508392
O   O18       1.0  0.31500  0.48000  0.75840  1.0000 -0.4892312431
O   O19       1.0  0.31133  0.38017  0.82140  1.0000 -0.4892312431
O   O20       1.0  0.15140  0.71890  0.95130  1.0000 -0.4837940131
O   O21       1.0  0.87100  0.23460  0.72860  1.0000 -0.4892312431
O   O22       1.0  0.86258  0.25108  0.57384  1.0000 -0.0781508392
O   O23       1.0  0.75840  0.31500  0.48000  1.0000 -0.4892312431
O   O24       1.0  0.82140  0.31133  0.38017  1.0000 -0.4892312431
O   O25       1.0  0.95130  0.15140  0.71890  1.0000 -0.4837940131
O   O26       1.0  0.72860  0.87100  0.23460  1.0000 -0.4892312431
O   O27       1.0  0.57384  0.86258  0.25108  1.0000 -0.0781508392
O   O28       1.0  0.48000  0.75840  0.31500  1.0000 -0.4892312431
O   O29       1.0  0.38017  0.82140  0.31133  1.0000 -0.4892312431
O   O30       1.0  0.71890  0.95130  0.15140  1.0000 -0.4837940131
