# DDEC6 charges by PACMAN v1.1 (https://github.com/mtap-research/PACMAN-charge/)
data_2021[Al][nan]3[ASR]20
_chemical_formula_sum              "Al8 H24 C40 N16 O40"
_cell_length_a       12.245
_cell_length_b       15.603
_cell_length_c       13.1626
_cell_angle_alpha    90
_cell_angle_beta     103.47
_cell_angle_gamma    90

_symmetry_space_group_name_H-M    "P 1"
_symmetry_Int_Tables_number       1

loop_
  _symmetry_equiv_pos_as_xyz
  'x, y, z'

loop_
  _atom_site_type_symbol
  _atom_site_label
  _atom_site_symmetry_multiplicity
  _atom_site_fract_x
  _atom_site_fract_y
  _atom_site_fract_z
  _atom_site_occupancy
  _atom_site_charge
Al  Al1       1.0  0.73335  0.44343  0.42954  1.0000 1.6191417888
Al  Al2       1.0  0.26665  0.94343  0.07046  1.0000 1.6191417888
Al  Al3       1.0  0.26665  0.55657  0.57046  1.0000 1.6191417888
Al  Al4       1.0  0.73335  0.05657  0.92954  1.0000 1.6191417888
Al  Al5       1.0  0.50000  0.50000  0.50000  1.0000 1.6191417888
Al  Al6       1.0  0.50000  0.00000  0.00000  1.0000 1.6191417888
Al  Al7       1.0  0.00000  0.50000  0.50000  1.0000 1.6286011254
Al  Al8       1.0  0.00000  0.00000  0.00000  1.0000 1.6286011254
H   H1        1.0  0.69227  0.48456  0.59273  1.0000 0.4297002768
H   H2        1.0  0.82815  0.57286  0.49308  1.0000 0.4297002768
H   H3        1.0  0.41738  0.78606  0.75144  1.0000 0.1703147692
H   H4        1.0  0.71859  0.85081  0.73207  1.0000 0.278749632
H   H5        1.0  0.78168  0.28037  0.15705  1.0000 0.1703147692
H   H6        1.0  0.09245  0.32766  0.30093  1.0000 0.278749632
H   H7        1.0  0.30773  0.98456  0.90727  1.0000 0.4297002768
H   H8        1.0  0.17185  0.07286  0.00692  1.0000 0.4297002768
H   H9        1.0  0.58262  0.28606  0.74856  1.0000 0.1703147692
H   H10       1.0  0.28141  0.35081  0.76793  1.0000 0.278749632
H   H11       1.0  0.21832  0.78037  0.34295  1.0000 0.1703147692
H   H12       1.0  0.90755  0.82766  0.19907  1.0000 0.278749632
H   H13       1.0  0.30773  0.51544  0.40727  1.0000 0.4297002768
H   H14       1.0  0.17185  0.42714  0.50692  1.0000 0.4297002768
H   H15       1.0  0.58262  0.21394  0.24856  1.0000 0.1703147692
H   H16       1.0  0.28141  0.14919  0.26793  1.0000 0.278749632
H   H17       1.0  0.21832  0.71963  0.84295  1.0000 0.1703147692
H   H18       1.0  0.90755  0.67234  0.69907  1.0000 0.278749632
H   H19       1.0  0.69227  0.01544  0.09273  1.0000 0.4297002768
H   H20       1.0  0.82815  0.92714  0.99308  1.0000 0.4297002768
H   H21       1.0  0.41738  0.71394  0.25144  1.0000 0.1703147692
H   H22       1.0  0.71859  0.64919  0.23207  1.0000 0.278749632
H   H23       1.0  0.78168  0.21963  0.65705  1.0000 0.1703147692
H   H24       1.0  0.09245  0.17234  0.80093  1.0000 0.2744426941
C   C1        1.0  0.47620  0.65020  0.62290  1.0000 0.6184342717
C   C2        1.0  0.90780  0.15060  0.07580  1.0000 0.6184342717
C   C3        1.0  0.57990  0.92320  0.83110  1.0000 0.601512826
C   C4        1.0  0.48720  0.78710  0.73500  1.0000 -0.2375807548
C   C5        1.0  0.53020  0.72870  0.67400  1.0000 0.0374845704
C   C6        1.0  0.90210  0.39550  0.32140  1.0000 0.601512826
C   C7        1.0  0.85950  0.27810  0.17950  1.0000 -0.2279947708
C   C8        1.0  0.57170  0.84690  0.76530  1.0000 0.0236272262
C   C9        1.0  0.92830  0.33030  0.25160  1.0000 0.0128701929
C   C10       1.0  0.93180  0.22210  0.14850  1.0000 0.0037719771
C   C11       1.0  0.52380  0.15020  0.87710  1.0000 0.6184342717
C   C12       1.0  0.09220  0.65060  0.42420  1.0000 0.6184342717
C   C13       1.0  0.42010  0.42320  0.66890  1.0000 0.601512826
C   C14       1.0  0.51280  0.28710  0.76500  1.0000 -0.2375807548
C   C15       1.0  0.46980  0.22870  0.82600  1.0000 0.0374845704
C   C16       1.0  0.09790  0.89550  0.17860  1.0000 0.601512826
C   C17       1.0  0.14050  0.77810  0.32050  1.0000 -0.2279947708
C   C18       1.0  0.42830  0.34690  0.73470  1.0000 0.0236272262
C   C19       1.0  0.07170  0.83030  0.24840  1.0000 0.0128701929
C   C20       1.0  0.06820  0.72210  0.35150  1.0000 0.0037719771
C   C21       1.0  0.52380  0.34980  0.37710  1.0000 0.6184342717
C   C22       1.0  0.09220  0.84940  0.92420  1.0000 0.6184342717
C   C23       1.0  0.42010  0.07680  0.16890  1.0000 0.601512826
C   C24       1.0  0.51280  0.21290  0.26500  1.0000 -0.2375807548
C   C25       1.0  0.46980  0.27130  0.32600  1.0000 0.0374845704
C   C26       1.0  0.09790  0.60450  0.67860  1.0000 0.601512826
C   C27       1.0  0.14050  0.72190  0.82050  1.0000 -0.2279947708
C   C28       1.0  0.42830  0.15310  0.23470  1.0000 0.0236272262
C   C29       1.0  0.07170  0.66970  0.74840  1.0000 0.0128701929
C   C30       1.0  0.06820  0.77790  0.85150  1.0000 0.0037719771
C   C31       1.0  0.47620  0.84980  0.12290  1.0000 0.6184342717
C   C32       1.0  0.90780  0.34940  0.57580  1.0000 0.6184342717
C   C33       1.0  0.57990  0.57680  0.33110  1.0000 0.601512826
C   C34       1.0  0.48720  0.71290  0.23500  1.0000 -0.2375807548
C   C35       1.0  0.53020  0.77130  0.17400  1.0000 0.0374845704
C   C36       1.0  0.90210  0.10450  0.82140  1.0000 0.601512826
C   C37       1.0  0.85950  0.22190  0.67950  1.0000 -0.2279947708
C   C38       1.0  0.57170  0.65310  0.26530  1.0000 0.0236272262
C   C39       1.0  0.92830  0.16970  0.75160  1.0000 0.0128701929
C   C40       1.0  0.93180  0.27790  0.64850  1.0000 0.0037719771
N   N1        1.0  0.63270  0.75180  0.66730  1.0000 -0.1983143697
N   N2        1.0  0.65630  0.82330  0.72360  1.0000 -0.0474572974
N   N3        1.0  0.03930  0.23960  0.19710  1.0000 -0.1858400862
N   N4        1.0  0.03480  0.30470  0.26000  1.0000 -0.0474572974
N   N5        1.0  0.36730  0.25180  0.83270  1.0000 -0.1983143697
N   N6        1.0  0.34370  0.32330  0.77640  1.0000 -0.0474572974
N   N7        1.0  0.96070  0.73960  0.30290  1.0000 -0.1858400862
N   N8        1.0  0.96520  0.80470  0.24000  1.0000 -0.0474572974
N   N9        1.0  0.36730  0.24820  0.33270  1.0000 -0.1983143697
N   N10       1.0  0.34370  0.17670  0.27640  1.0000 -0.0474572974
N   N11       1.0  0.96070  0.76040  0.80290  1.0000 -0.1858400862
N   N12       1.0  0.96520  0.69530  0.74000  1.0000 -0.0474572974
N   N13       1.0  0.63270  0.74820  0.16730  1.0000 -0.1983143697
N   N14       1.0  0.65630  0.67670  0.22360  1.0000 -0.0474572974
N   N15       1.0  0.03930  0.26040  0.69710  1.0000 -0.1858400862
N   N16       1.0  0.03480  0.19530  0.76000  1.0000 -0.0474572974
O   O1        1.0  0.65160  0.47770  0.52410  1.0000 -1.0206901665
O   O2        1.0  0.37670  0.63972  0.62620  1.0000 -0.5492103855
O   O3        1.0  0.84920  0.51798  0.47770  1.0000 -1.0206901665
O   O4        1.0  0.80180  0.40090  0.32490  1.0000 -0.5492103855
O   O5        1.0  0.53560  0.60075  0.58230  1.0000 -0.5761236558
O   O6        1.0  0.50500  0.93240  0.88100  1.0000 -0.5603270764
O   O7        1.0  0.80700  0.14261  0.02480  1.0000 -0.5699764426
O   O8        1.0  0.66120  0.97200  0.83280  1.0000 -0.5761236558
O   O9        1.0  0.98340  0.43670  0.37530  1.0000 -0.5897904421
O   O10       1.0  0.98820  0.10320  0.07100  1.0000 -0.5603270764
O   O11       1.0  0.34840  0.97770  0.97590  1.0000 -1.0206901665
O   O12       1.0  0.62330  0.13972  0.87380  1.0000 -0.5492103855
O   O13       1.0  0.15080  0.01798  0.02230  1.0000 -1.0206901665
O   O14       1.0  0.19820  0.90090  0.17510  1.0000 -0.5492103855
O   O15       1.0  0.46440  0.10075  0.91770  1.0000 -0.5761236558
O   O16       1.0  0.49500  0.43240  0.61900  1.0000 -0.5603270764
O   O17       1.0  0.19300  0.64261  0.47520  1.0000 -0.5699764426
O   O18       1.0  0.33880  0.47200  0.66720  1.0000 -0.5761236558
O   O19       1.0  0.01660  0.93670  0.12470  1.0000 -0.5897904421
O   O20       1.0  0.01180  0.60320  0.42900  1.0000 -0.5603270764
O   O21       1.0  0.34840  0.52230  0.47590  1.0000 -1.0206901665
O   O22       1.0  0.62330  0.36028  0.37380  1.0000 -0.5492103855
O   O23       1.0  0.15080  0.48202  0.52230  1.0000 -1.0206901665
O   O24       1.0  0.19820  0.59910  0.67510  1.0000 -0.5492103855
O   O25       1.0  0.46440  0.39925  0.41770  1.0000 -0.5761236558
O   O26       1.0  0.49500  0.06760  0.11900  1.0000 -0.5603270764
O   O27       1.0  0.19300  0.85739  0.97520  1.0000 -0.5699764426
O   O28       1.0  0.33880  0.02800  0.16720  1.0000 -0.5761236558
O   O29       1.0  0.01660  0.56330  0.62470  1.0000 -0.5897904421
O   O30       1.0  0.01180  0.89680  0.92900  1.0000 -0.5603270764
O   O31       1.0  0.65160  0.02230  0.02410  1.0000 -1.0206901665
O   O32       1.0  0.37670  0.86028  0.12620  1.0000 -0.5492103855
O   O33       1.0  0.84920  0.98202  0.97770  1.0000 -1.0206901665
O   O34       1.0  0.80180  0.09910  0.82490  1.0000 -0.5492103855
O   O35       1.0  0.53560  0.89925  0.08230  1.0000 -0.5761236558
O   O36       1.0  0.50500  0.56760  0.38100  1.0000 -0.5603270764
O   O37       1.0  0.80700  0.35739  0.52480  1.0000 -0.5699764426
O   O38       1.0  0.66120  0.52800  0.33280  1.0000 -0.5761236558
O   O39       1.0  0.98340  0.06330  0.87530  1.0000 -0.5897904421
O   O40       1.0  0.98820  0.39680  0.57100  1.0000 -0.5603270764
