# DDEC6 charges by PACMAN v1.1 (https://github.com/mtap-research/PACMAN-charge/)
data_2021[U][ths]3[ASR]1
_chemical_formula_sum              "U4 H48 C108 O24 F12"
_cell_length_a       11.5597
_cell_length_b       12.9279
_cell_length_c       30.0092
_cell_angle_alpha    90
_cell_angle_beta     90
_cell_angle_gamma    90

_symmetry_space_group_name_H-M    "P 1"
_symmetry_Int_Tables_number       1

loop_
  _symmetry_equiv_pos_as_xyz
  'x, y, z'

loop_
  _atom_site_type_symbol
  _atom_site_label
  _atom_site_symmetry_multiplicity
  _atom_site_fract_x
  _atom_site_fract_y
  _atom_site_fract_z
  _atom_site_occupancy
  _atom_site_charge
U   U1        1.0  0.50000  0.25000  0.88069  1.0000 1.9061088963
U   U2        1.0  0.00000  0.75000  0.38069  1.0000 1.903931936
U   U3        1.0  0.00000  0.25000  0.61931  1.0000 1.9061088963
U   U4        1.0  0.50000  0.75000  0.11931  1.0000 1.9061088963
H   H1        1.0  0.39076  0.01374  0.00208  1.0000 0.1205577852
H   H2        1.0  0.14059  0.04807  0.91180  1.0000 0.1205577852
H   H3        1.0  0.02516  0.93468  0.95059  1.0000 0.1115503042
H   H4        1.0  0.28341  0.88932  0.03828  1.0000 0.1205577852
H   H5        1.0  0.17020  0.71474  0.15110  1.0000 0.1297500243
H   H6        1.0  0.16637  0.71022  0.22846  1.0000 0.1205577852
H   H7        1.0  0.60924  0.48626  0.00208  1.0000 0.1205577852
H   H8        1.0  0.85941  0.45193  0.91180  1.0000 0.1205577852
H   H9        1.0  0.97484  0.56532  0.95059  1.0000 0.1115503042
H   H10       1.0  0.71659  0.61068  0.03828  1.0000 0.1205577852
H   H11       1.0  0.82980  0.78526  0.15110  1.0000 0.1297500243
H   H12       1.0  0.83363  0.78978  0.22846  1.0000 0.1205577852
H   H13       1.0  0.10924  0.51374  0.50208  1.0000 0.1205577852
H   H14       1.0  0.35941  0.54807  0.41180  1.0000 0.1205577852
H   H15       1.0  0.47484  0.43468  0.45059  1.0000 0.1115503042
H   H16       1.0  0.21659  0.38932  0.53828  1.0000 0.1205577852
H   H17       1.0  0.32980  0.21474  0.65110  1.0000 0.1297500243
H   H18       1.0  0.33363  0.21022  0.72846  1.0000 0.1205577852
H   H19       1.0  0.89076  0.98626  0.50208  1.0000 0.1205577852
H   H20       1.0  0.64059  0.95193  0.41180  1.0000 0.1205577852
H   H21       1.0  0.52516  0.06532  0.45059  1.0000 0.1115503042
H   H22       1.0  0.78341  0.11068  0.53828  1.0000 0.1205577852
H   H23       1.0  0.67020  0.28526  0.65110  1.0000 0.1297500243
H   H24       1.0  0.66637  0.28978  0.72846  1.0000 0.1205577852
H   H25       1.0  0.89076  0.48626  0.49792  1.0000 0.1205577852
H   H26       1.0  0.64059  0.45193  0.58820  1.0000 0.1205577852
H   H27       1.0  0.52516  0.56532  0.54941  1.0000 0.1115503042
H   H28       1.0  0.78341  0.61068  0.46172  1.0000 0.1205577852
H   H29       1.0  0.67020  0.78526  0.34890  1.0000 0.1297500243
H   H30       1.0  0.66637  0.78978  0.27154  1.0000 0.1205577852
H   H31       1.0  0.10924  0.01374  0.49792  1.0000 0.1205577852
H   H32       1.0  0.35941  0.04807  0.58820  1.0000 0.1205577852
H   H33       1.0  0.47484  0.93468  0.54941  1.0000 0.1115503042
H   H34       1.0  0.21659  0.88932  0.46172  1.0000 0.1205577852
H   H35       1.0  0.32980  0.71474  0.34890  1.0000 0.1297500243
H   H36       1.0  0.33363  0.71022  0.27154  1.0000 0.1205577852
H   H37       1.0  0.60924  0.98626  0.99792  1.0000 0.1205577852
H   H38       1.0  0.85941  0.95193  0.08820  1.0000 0.1205577852
H   H39       1.0  0.97484  0.06532  0.04941  1.0000 0.1115503042
H   H40       1.0  0.71659  0.11068  0.96172  1.0000 0.1205577852
H   H41       1.0  0.82980  0.28526  0.84890  1.0000 0.1297500243
H   H42       1.0  0.83363  0.28978  0.77154  1.0000 0.1205577852
H   H43       1.0  0.39076  0.51374  0.99792  1.0000 0.1205577852
H   H44       1.0  0.14059  0.54807  0.08820  1.0000 0.1205577852
H   H45       1.0  0.02516  0.43468  0.04941  1.0000 0.1115503042
H   H46       1.0  0.28341  0.38932  0.96172  1.0000 0.1205577852
H   H47       1.0  0.17020  0.21474  0.84890  1.0000 0.1297500243
H   H48       1.0  0.16637  0.21022  0.77154  1.0000 0.1205577852
C   C1        1.0  0.34850  0.11820  0.92910  1.0000 0.5265996882
C   C2        1.0  0.27750  0.04230  0.95270  1.0000 -0.043794295
C   C3        1.0  0.14180  0.89760  0.99890  1.0000 0.1205577852
C   C4        1.0  0.31830  0.99570  0.99110  1.0000 -0.0883893448
C   C5        1.0  0.16840  0.01760  0.93770  1.0000 -0.0980491026
C   C6        1.0  0.09980  0.94820  0.96060  1.0000 -0.1594016051
C   C7        1.0  0.25290  0.92230  0.01340  1.0000 -0.1594016051
C   C8        1.0  0.07030  0.82310  0.02310  1.0000 -0.1733699487
C   C9        1.0  0.06400  0.82000  0.06930  1.0000 0.2293312901
C   C10       1.0  0.10200  0.72820  0.16650  1.0000 -0.1594016051
C   C11       1.0  0.09940  0.72700  0.21290  1.0000 -0.0883893448
C   C12       1.0  0.65150  0.38180  0.92910  1.0000 0.5265996882
C   C13       1.0  0.72250  0.45770  0.95270  1.0000 -0.043794295
C   C14       1.0  0.85820  0.60240  0.99890  1.0000 0.1205577852
C   C15       1.0  0.68170  0.50430  0.99110  1.0000 -0.0883893448
C   C16       1.0  0.83160  0.48240  0.93770  1.0000 -0.0980491026
C   C17       1.0  0.90020  0.55180  0.96060  1.0000 -0.1594016051
C   C18       1.0  0.74710  0.57770  0.01340  1.0000 -0.1594016051
C   C19       1.0  0.92970  0.67690  0.02310  1.0000 -0.1733699487
C   C20       1.0  0.93600  0.68000  0.06930  1.0000 0.2293312901
C   C21       1.0  0.89800  0.77180  0.16650  1.0000 -0.1594016051
C   C22       1.0  0.90060  0.77300  0.21290  1.0000 -0.0883893448
C   C23       1.0  0.15150  0.61820  0.42910  1.0000 0.5265996882
C   C24       1.0  0.22250  0.54230  0.45270  1.0000 -0.043794295
C   C25       1.0  0.35820  0.39760  0.49890  1.0000 0.1205577852
C   C26       1.0  0.18170  0.49570  0.49110  1.0000 -0.0883893448
C   C27       1.0  0.33160  0.51760  0.43770  1.0000 -0.0980491026
C   C28       1.0  0.40020  0.44820  0.46060  1.0000 -0.1594016051
C   C29       1.0  0.24710  0.42230  0.51340  1.0000 -0.1594016051
C   C30       1.0  0.42970  0.32310  0.52310  1.0000 -0.1733699487
C   C31       1.0  0.43600  0.32000  0.56930  1.0000 0.2293312901
C   C32       1.0  0.39800  0.22820  0.66650  1.0000 -0.1594016051
C   C33       1.0  0.40060  0.22700  0.71290  1.0000 -0.0883893448
C   C34       1.0  0.84850  0.88180  0.42910  1.0000 0.5265996882
C   C35       1.0  0.77750  0.95770  0.45270  1.0000 -0.043794295
C   C36       1.0  0.64180  0.10240  0.49890  1.0000 0.1205577852
C   C37       1.0  0.81830  0.00430  0.49110  1.0000 -0.0883893448
C   C38       1.0  0.66840  0.98240  0.43770  1.0000 -0.0980491026
C   C39       1.0  0.59980  0.05180  0.46060  1.0000 -0.1594016051
C   C40       1.0  0.75290  0.07770  0.51340  1.0000 -0.1594016051
C   C41       1.0  0.57030  0.17690  0.52310  1.0000 -0.1733699487
C   C42       1.0  0.56400  0.18000  0.56930  1.0000 0.2293312901
C   C43       1.0  0.60200  0.27180  0.66650  1.0000 -0.1594016051
C   C44       1.0  0.59940  0.27300  0.71290  1.0000 -0.0883893448
C   C45       1.0  0.00000  0.75000  0.00170  1.0000 0.2422075735
C   C46       1.0  0.00000  0.75000  0.09380  1.0000 -0.1733699487
C   C47       1.0  0.00000  0.75000  0.14380  1.0000 0.1115503042
C   C48       1.0  0.00000  0.75000  0.23620  1.0000 -0.0179094861
C   C49       1.0  0.00000  0.75000  0.28650  1.0000 0.5456660295
C   C50       1.0  0.50000  0.25000  0.50170  1.0000 0.2422075735
C   C51       1.0  0.50000  0.25000  0.59380  1.0000 -0.1733699487
C   C52       1.0  0.50000  0.25000  0.64380  1.0000 0.1115503042
C   C53       1.0  0.50000  0.25000  0.73620  1.0000 -0.0179094861
C   C54       1.0  0.50000  0.25000  0.78650  1.0000 0.5456660295
C   C55       1.0  0.84850  0.38180  0.57090  1.0000 0.5265996882
C   C56       1.0  0.77750  0.45770  0.54730  1.0000 -0.043794295
C   C57       1.0  0.64180  0.60240  0.50110  1.0000 0.1205577852
C   C58       1.0  0.81830  0.50430  0.50890  1.0000 -0.0883893448
C   C59       1.0  0.66840  0.48240  0.56230  1.0000 -0.0980491026
C   C60       1.0  0.59980  0.55180  0.53940  1.0000 -0.1594016051
C   C61       1.0  0.75290  0.57770  0.48660  1.0000 -0.1594016051
C   C62       1.0  0.57030  0.67690  0.47690  1.0000 -0.1733699487
C   C63       1.0  0.56400  0.68000  0.43070  1.0000 0.2293312901
C   C64       1.0  0.60200  0.77180  0.33350  1.0000 -0.1594016051
C   C65       1.0  0.59940  0.77300  0.28710  1.0000 -0.0883893448
C   C66       1.0  0.15150  0.11820  0.57090  1.0000 0.5265996882
C   C67       1.0  0.22250  0.04230  0.54730  1.0000 -0.043794295
C   C68       1.0  0.35820  0.89760  0.50110  1.0000 0.1205577852
C   C69       1.0  0.18170  0.99570  0.50890  1.0000 -0.0883893448
C   C70       1.0  0.33160  0.01760  0.56230  1.0000 -0.0980491026
C   C71       1.0  0.40020  0.94820  0.53940  1.0000 -0.1594016051
C   C72       1.0  0.24710  0.92230  0.48660  1.0000 -0.1594016051
C   C73       1.0  0.42970  0.82310  0.47690  1.0000 -0.1733699487
C   C74       1.0  0.43600  0.82000  0.43070  1.0000 0.2293312901
C   C75       1.0  0.39800  0.72820  0.33350  1.0000 -0.1594016051
C   C76       1.0  0.40060  0.72700  0.28710  1.0000 -0.0883893448
C   C77       1.0  0.65150  0.88180  0.07090  1.0000 0.5265996882
C   C78       1.0  0.72250  0.95770  0.04730  1.0000 -0.043794295
C   C79       1.0  0.85820  0.10240  0.00110  1.0000 0.1205577852
C   C80       1.0  0.68170  0.00430  0.00890  1.0000 -0.0883893448
C   C81       1.0  0.83160  0.98240  0.06230  1.0000 -0.0980491026
C   C82       1.0  0.90020  0.05180  0.03940  1.0000 -0.1594016051
C   C83       1.0  0.74710  0.07770  0.98660  1.0000 -0.1594016051
C   C84       1.0  0.92970  0.17690  0.97690  1.0000 -0.1733699487
C   C85       1.0  0.93600  0.18000  0.93070  1.0000 0.2293312901
C   C86       1.0  0.89800  0.27180  0.83350  1.0000 -0.1594016051
C   C87       1.0  0.90060  0.27300  0.78710  1.0000 -0.0883893448
C   C88       1.0  0.34850  0.61820  0.07090  1.0000 0.5265996882
C   C89       1.0  0.27750  0.54230  0.04730  1.0000 -0.043794295
C   C90       1.0  0.14180  0.39760  0.00110  1.0000 0.1205577852
C   C91       1.0  0.31830  0.49570  0.00890  1.0000 -0.0883893448
C   C92       1.0  0.16840  0.51760  0.06230  1.0000 -0.0980491026
C   C93       1.0  0.09980  0.44820  0.03940  1.0000 -0.1594016051
C   C94       1.0  0.25290  0.42230  0.98660  1.0000 -0.1594016051
C   C95       1.0  0.07030  0.32310  0.97690  1.0000 -0.1733699487
C   C96       1.0  0.06400  0.32000  0.93070  1.0000 0.2293312901
C   C97       1.0  0.10200  0.22820  0.83350  1.0000 -0.1594016051
C   C98       1.0  0.09940  0.22700  0.78710  1.0000 -0.0883893448
C   C99       1.0  0.50000  0.75000  0.49830  1.0000 0.2422075735
C   C100      1.0  0.50000  0.75000  0.40620  1.0000 -0.1733699487
C   C101      1.0  0.50000  0.75000  0.35620  1.0000 0.1115503042
C   C102      1.0  0.50000  0.75000  0.26380  1.0000 -0.0179094861
C   C103      1.0  0.50000  0.75000  0.21350  1.0000 0.5456660295
C   C104      1.0  0.00000  0.25000  0.99830  1.0000 0.2422075735
C   C105      1.0  0.00000  0.25000  0.90620  1.0000 -0.1733699487
C   C106      1.0  0.00000  0.25000  0.85620  1.0000 0.1115503042
C   C107      1.0  0.00000  0.25000  0.76380  1.0000 -0.0179094861
C   C108      1.0  0.00000  0.25000  0.71350  1.0000 0.5456660295
O   O1        1.0  0.42430  0.16870  0.94940  1.0000 -0.5608611053
O   O2        1.0  0.33350  0.13110  0.88680  1.0000 -0.5922380423
O   O3        1.0  0.92140  0.79880  0.30703  1.0000 -0.5846842921
O   O4        1.0  0.57570  0.33130  0.94940  1.0000 -0.5608611053
O   O5        1.0  0.66650  0.36890  0.88680  1.0000 -0.5922380423
O   O6        1.0  0.07860  0.70120  0.30703  1.0000 -0.5846842921
O   O7        1.0  0.07570  0.66870  0.44940  1.0000 -0.5608611053
O   O8        1.0  0.16650  0.63110  0.38680  1.0000 -0.5922380423
O   O9        1.0  0.57860  0.29880  0.80703  1.0000 -0.5922380423
O   O10       1.0  0.92430  0.83130  0.44940  1.0000 -0.5608611053
O   O11       1.0  0.83350  0.86890  0.38680  1.0000 -0.5922380423
O   O12       1.0  0.42140  0.20120  0.80703  1.0000 -0.5846842921
O   O13       1.0  0.92430  0.33130  0.55060  1.0000 -0.5608611053
O   O14       1.0  0.83350  0.36890  0.61320  1.0000 -0.5922380423
O   O15       1.0  0.42140  0.70120  0.19297  1.0000 -0.5846842921
O   O16       1.0  0.07570  0.16870  0.55060  1.0000 -0.5608611053
O   O17       1.0  0.16650  0.13110  0.61320  1.0000 -0.5922380423
O   O18       1.0  0.57860  0.79880  0.19297  1.0000 -0.5846842921
O   O19       1.0  0.57570  0.83130  0.05060  1.0000 -0.5608611053
O   O20       1.0  0.66650  0.86890  0.11320  1.0000 -0.5922380423
O   O21       1.0  0.07860  0.20120  0.69297  1.0000 -0.5922380423
O   O22       1.0  0.42430  0.66870  0.05060  1.0000 -0.5608611053
O   O23       1.0  0.33350  0.63110  0.11320  1.0000 -0.5922380423
O   O24       1.0  0.92140  0.29880  0.69297  1.0000 -0.5846842921
F   F1        1.0  0.12490  0.89140  0.09234  1.0000 -0.1313373791
F   F2        1.0  0.87510  0.60860  0.09234  1.0000 -0.1313373791
F   F3        1.0  0.37510  0.39140  0.59234  1.0000 -0.1313373791
F   F4        1.0  0.62490  0.10860  0.59234  1.0000 -0.1313373791
F   F5        1.0  0.00000  0.75000  0.95690  1.0000 -0.1313373791
F   F6        1.0  0.50000  0.25000  0.45690  1.0000 -0.1313373791
F   F7        1.0  0.62490  0.60860  0.40766  1.0000 -0.1313373791
F   F8        1.0  0.37510  0.89140  0.40766  1.0000 -0.1313373791
F   F9        1.0  0.87510  0.10860  0.90766  1.0000 -0.1313373791
F   F10       1.0  0.12490  0.39140  0.90766  1.0000 -0.1313373791
F   F11       1.0  0.50000  0.75000  0.54310  1.0000 -0.1313373791
F   F12       1.0  0.00000  0.25000  0.04310  1.0000 -0.1313373791
