# DDEC6 charges by PACMAN v1.1 (https://github.com/mtap-research/PACMAN-charge/)
data_2021[V][nan]3[ASR]4
_chemical_formula_sum              "V4 H16 C32 O20"
_cell_length_a       12.3179
_cell_length_b       12.3179
_cell_length_c       12.3179
_cell_angle_alpha    103.963
_cell_angle_beta     103.963
_cell_angle_gamma    121.159

_symmetry_space_group_name_H-M    "P 1"
_symmetry_Int_Tables_number       1

loop_
  _symmetry_equiv_pos_as_xyz
  'x, y, z'

loop_
  _atom_site_type_symbol
  _atom_site_label
  _atom_site_symmetry_multiplicity
  _atom_site_fract_x
  _atom_site_fract_y
  _atom_site_fract_z
  _atom_site_occupancy
  _atom_site_charge
V   V1        1.0  0.69045  0.69045  0.38090  1.0000 1.674023622
V   V2        1.0  0.30955  0.30955  0.61910  1.0000 1.674023622
V   V3        1.0  0.94045  0.05955  0.50000  1.0000 1.6767889596
V   V4        1.0  0.55955  0.44045  0.50000  1.0000 1.674023622
H   H1        1.0  0.97941  0.03426  0.17855  1.0000 0.1256219055
H   H2        1.0  0.85571  0.80086  0.82145  1.0000 0.1256219055
H   H3        1.0  0.28426  0.60571  0.55485  1.0000 0.1256219055
H   H4        1.0  0.05086  0.72941  0.44515  1.0000 0.1256219055
H   H5        1.0  0.27059  0.94914  0.55485  1.0000 0.1256219055
H   H6        1.0  0.39429  0.71574  0.44515  1.0000 0.1256219055
H   H7        1.0  0.96574  0.02059  0.82145  1.0000 0.1256219055
H   H8        1.0  0.19914  0.14429  0.17855  1.0000 0.1256219055
H   H9        1.0  0.93846  0.87500  0.56346  1.0000 0.423317384
H   H10       1.0  0.31154  0.37500  0.43654  1.0000 0.423317384
H   H11       1.0  0.12500  0.06154  0.43654  1.0000 0.423317384
H   H12       1.0  0.62500  0.68846  0.56346  1.0000 0.423317384
H   H13       1.0  0.62958  0.62958  0.00000  1.0000 0.1454889215
H   H14       1.0  0.87958  0.37958  0.50000  1.0000 0.1454889215
H   H15       1.0  0.62042  0.12042  0.50000  1.0000 0.1454889215
H   H16       1.0  0.37042  0.37042  0.00000  1.0000 0.1454889215
C   C1        1.0  0.80420  0.83230  0.10870  1.0000 -0.0198711658
C   C2        1.0  0.79370  0.84400  0.22890  1.0000 0.6216770746
C   C3        1.0  0.91730  0.94870  0.10700  1.0000 -0.1462457441
C   C4        1.0  0.72360  0.69550  0.89130  1.0000 -0.0198711658
C   C5        1.0  0.61510  0.56480  0.77110  1.0000 0.6216770746
C   C6        1.0  0.84170  0.81030  0.89300  1.0000 -0.1462457441
C   C7        1.0  0.08230  0.47360  0.52810  1.0000 -0.0198711658
C   C8        1.0  0.09400  0.36510  0.55030  1.0000 0.6216770746
C   C9        1.0  0.19870  0.59170  0.53140  1.0000 -0.1462457441
C   C10       1.0  0.94550  0.55420  0.47190  1.0000 -0.0198711658
C   C11       1.0  0.81480  0.54370  0.44970  1.0000 0.6216770746
C   C12       1.0  0.06030  0.66730  0.46860  1.0000 -0.1462457441
C   C13       1.0  0.44580  0.05450  0.52810  1.0000 -0.0198711658
C   C14       1.0  0.45630  0.18520  0.55030  1.0000 0.6216770746
C   C15       1.0  0.33270  0.93970  0.53140  1.0000 -0.1462457441
C   C16       1.0  0.52640  0.91770  0.47190  1.0000 -0.0198711658
C   C17       1.0  0.63490  0.90600  0.44970  1.0000 0.6216770746
C   C18       1.0  0.40830  0.80130  0.46860  1.0000 -0.1462457441
C   C19       1.0  0.16770  0.19580  0.89130  1.0000 -0.0198711658
C   C20       1.0  0.15600  0.20630  0.77110  1.0000 0.6216770746
C   C21       1.0  0.05130  0.08270  0.89300  1.0000 -0.1462457441
C   C22       1.0  0.30450  0.27640  0.10870  1.0000 -0.0198711658
C   C23       1.0  0.43520  0.38490  0.22890  1.0000 0.6216770746
C   C24       1.0  0.18970  0.15830  0.10700  1.0000 -0.1462457441
C   C25       1.0  0.93860  0.93860  0.00000  1.0000 0.0677211769
C   C26       1.0  0.70640  0.70640  0.00000  1.0000 -0.0989629738
C   C27       1.0  0.18860  0.68860  0.50000  1.0000 0.0677211769
C   C28       1.0  0.95640  0.45640  0.50000  1.0000 -0.0989629738
C   C29       1.0  0.31140  0.81140  0.50000  1.0000 0.0677211769
C   C30       1.0  0.54360  0.04360  0.50000  1.0000 -0.0989629738
C   C31       1.0  0.06140  0.06140  0.00000  1.0000 0.0677211769
C   C32       1.0  0.29360  0.29360  0.00000  1.0000 -0.0989629738
O   O1        1.0  0.85785  0.96756  0.31261  1.0000 -0.6112481617
O   O2        1.0  0.72510  0.73090  0.23880  1.0000 -0.5811410733
O   O3        1.0  0.65495  0.54524  0.68739  1.0000 -0.6112481617
O   O4        1.0  0.49210  0.48630  0.76120  1.0000 -0.5811410733
O   O5        1.0  0.21756  0.40495  0.60971  1.0000 -0.6112481617
O   O6        1.0  0.98090  0.24210  0.50580  1.0000 -0.5811410733
O   O7        1.0  0.79524  0.60785  0.39029  1.0000 -0.6112481617
O   O8        1.0  0.73630  0.47510  0.49420  1.0000 -0.5811410733
O   O9        1.0  0.39215  0.20476  0.60971  1.0000 -0.6112481617
O   O10       1.0  0.52490  0.26370  0.50580  1.0000 -0.5811410733
O   O11       1.0  0.59505  0.78244  0.39029  1.0000 -0.6112481617
O   O12       1.0  0.75790  0.01910  0.49420  1.0000 -0.5811410733
O   O13       1.0  0.03244  0.14215  0.68739  1.0000 -0.6112481617
O   O14       1.0  0.26910  0.27490  0.76120  1.0000 -0.5811410733
O   O15       1.0  0.45476  0.34505  0.31261  1.0000 -0.6112481617
O   O16       1.0  0.51370  0.50790  0.23880  1.0000 -0.5811410733
O   O17       1.0  0.87520  0.87500  0.50020  1.0000 -0.9898651354
O   O18       1.0  0.37480  0.37500  0.49980  1.0000 -0.9898651354
O   O19       1.0  0.12500  0.12480  0.49980  1.0000 -0.9898651354
O   O20       1.0  0.62500  0.62520  0.50020  1.0000 -0.9898651354
