# DDEC6 charges by PACMAN v1.1 (https://github.com/mtap-research/PACMAN-charge/)
data_2021[Mn][kgd]2[ASR]2
_chemical_formula_sum              "Mn2 H24 C32 N4 O16"
_cell_length_a       14.2476
_cell_length_b       14.2476
_cell_length_c       15.5719
_cell_angle_alpha    64.1504
_cell_angle_beta     115.85
_cell_angle_gamma    161.746

_symmetry_space_group_name_H-M    "P 1"
_symmetry_Int_Tables_number       1

loop_
  _symmetry_equiv_pos_as_xyz
  'x, y, z'

loop_
  _atom_site_type_symbol
  _atom_site_label
  _atom_site_symmetry_multiplicity
  _atom_site_fract_x
  _atom_site_fract_y
  _atom_site_fract_z
  _atom_site_occupancy
  _atom_site_charge
Mn  Mn1       1.0  0.50000  0.00000  0.00000  1.0000 0.9666635664
Mn  Mn2       1.0  1.00000  0.50000  0.50000  1.0000 0.9666635664
H   H1        1.0  0.54760  0.16300  0.54770  1.0000 0.2918724614
H   H2        1.0  0.66740  0.35880  0.46690  1.0000 0.2963280352
H   H3        1.0  0.72250  0.29150  0.70820  1.0000 0.1330494145
H   H4        1.0  0.20690  0.96950  0.74250  1.0000 0.1330494145
H   H5        1.0  0.00850  0.80070  0.47880  1.0000 0.1411342966
H   H6        1.0  0.40930  0.37790  0.44890  1.0000 0.353839499
H   H7        1.0  0.16300  0.54760  0.95230  1.0000 0.2918724614
H   H8        1.0  0.35880  0.66740  0.03310  1.0000 0.2963280352
H   H9        1.0  0.29150  0.72250  0.79180  1.0000 0.1330494145
H   H10       1.0  0.96950  0.20690  0.75750  1.0000 0.1330494145
H   H11       1.0  0.80070  0.00850  0.02120  1.0000 0.1411342966
H   H12       1.0  0.37790  0.40930  0.05110  1.0000 0.353839499
H   H13       1.0  0.45240  0.83700  0.45230  1.0000 0.2918724614
H   H14       1.0  0.33260  0.64120  0.53310  1.0000 0.2963280352
H   H15       1.0  0.27750  0.70850  0.29180  1.0000 0.1330494145
H   H16       1.0  0.79310  0.03050  0.25750  1.0000 0.1330494145
H   H17       1.0  0.99150  0.19930  0.52120  1.0000 0.1411342966
H   H18       1.0  0.59070  0.62210  0.55110  1.0000 0.353839499
H   H19       1.0  0.83700  0.45240  0.04770  1.0000 0.2918724614
H   H20       1.0  0.64120  0.33260  0.96690  1.0000 0.2963280352
H   H21       1.0  0.70850  0.27750  0.20820  1.0000 0.1330494145
H   H22       1.0  0.03050  0.79310  0.24250  1.0000 0.1330494145
H   H23       1.0  0.19930  0.99150  0.97880  1.0000 0.1411342966
H   H24       1.0  0.62210  0.59070  0.94890  1.0000 0.353839499
C   C1        1.0  0.13390  0.92610  0.60270  1.0000 -0.0121559135
C   C2        1.0  0.29820  0.18380  0.55790  1.0000 0.5536832483
C   C3        1.0  0.82980  0.45420  0.68200  1.0000 -0.1960675595
C   C4        1.0  0.96010  0.55790  0.84640  1.0000 0.5659197392
C   C5        1.0  0.11720  0.85680  0.70320  1.0000 -0.1130164591
C   C6        1.0  0.97200  0.62800  0.74300  1.0000 -0.0354914842
C   C7        1.0  0.99780  0.75620  0.54470  1.0000 -0.2254747776
C   C8        1.0  0.84510  0.51890  0.58470  1.0000 0.2562052878
C   C9        1.0  0.92610  0.13390  0.89730  1.0000 -0.0121559135
C   C10       1.0  0.18380  0.29820  0.94210  1.0000 0.5536832483
C   C11       1.0  0.45420  0.82980  0.81800  1.0000 -0.1960675595
C   C12       1.0  0.55790  0.96010  0.65360  1.0000 0.5659197392
C   C13       1.0  0.85680  0.11720  0.79680  1.0000 -0.1130164591
C   C14       1.0  0.62800  0.97200  0.75700  1.0000 -0.0354914842
C   C15       1.0  0.75620  0.99780  0.95530  1.0000 -0.2254747776
C   C16       1.0  0.51890  0.84510  0.91530  1.0000 0.2562052878
C   C17       1.0  0.86610  0.07390  0.39730  1.0000 -0.0121559135
C   C18       1.0  0.70180  0.81620  0.44210  1.0000 0.5536832483
C   C19       1.0  0.17020  0.54580  0.31800  1.0000 -0.1960675595
C   C20       1.0  0.03990  0.44210  0.15360  1.0000 0.5659197392
C   C21       1.0  0.88280  0.14320  0.29680  1.0000 -0.1130164591
C   C22       1.0  0.02800  0.37200  0.25700  1.0000 -0.0354914842
C   C23       1.0  0.00220  0.24380  0.45530  1.0000 -0.2246000795
C   C24       1.0  0.15490  0.48110  0.41530  1.0000 0.2562052878
C   C25       1.0  0.07390  0.86610  0.10270  1.0000 -0.0121559135
C   C26       1.0  0.81620  0.70180  0.05790  1.0000 0.5536832483
C   C27       1.0  0.54580  0.17020  0.18200  1.0000 -0.1960675595
C   C28       1.0  0.44210  0.03990  0.34640  1.0000 0.5659197392
C   C29       1.0  0.14320  0.88280  0.20320  1.0000 -0.1130164591
C   C30       1.0  0.37200  0.02800  0.24300  1.0000 -0.0354914842
C   C31       1.0  0.24380  0.00220  0.04470  1.0000 -0.2254747776
C   C32       1.0  0.48110  0.15490  0.08470  1.0000 0.2562052878
N   N1        1.0  0.71780  0.35420  0.52400  1.0000 -0.5874729631
N   N2        1.0  0.35420  0.71780  0.97600  1.0000 -0.5874729631
N   N3        1.0  0.28220  0.64580  0.47600  1.0000 -0.5874729631
N   N4        1.0  0.64580  0.28220  0.02400  1.0000 -0.5874729631
O   O1        1.0  0.13210  0.74730  0.90070  1.0000 -0.575271803
O   O2        1.0  0.77620  0.31240  0.87800  1.0000 -0.5462818025
O   O3        1.0  0.30080  0.22920  0.46970  1.0000 -0.3933174266
O   O4        1.0  0.41980  0.33420  0.61340  1.0000 -0.5240816651
O   O5        1.0  0.74730  0.13210  0.59930  1.0000 -0.575271803
O   O6        1.0  0.31240  0.77620  0.62200  1.0000 -0.5462818025
O   O7        1.0  0.22920  0.30080  0.03030  1.0000 -0.3933174266
O   O8        1.0  0.33420  0.41980  0.88660  1.0000 -0.5240816651
O   O9        1.0  0.86790  0.25270  0.09930  1.0000 -0.575271803
O   O10       1.0  0.22380  0.68760  0.12200  1.0000 -0.5462818025
O   O11       1.0  0.69920  0.77080  0.53030  1.0000 -0.3933174266
O   O12       1.0  0.58020  0.66580  0.38660  1.0000 -0.5240816651
O   O13       1.0  0.25270  0.86790  0.40070  1.0000 -0.575271803
O   O14       1.0  0.68760  0.22380  0.37800  1.0000 -0.5462818025
O   O15       1.0  0.77080  0.69920  0.96970  1.0000 -0.3933174266
O   O16       1.0  0.66580  0.58020  0.11340  1.0000 -0.5240816651
