# DDEC6 charges by PACMAN v1.1 (https://github.com/mtap-research/PACMAN-charge/)
data_2021[NiLa][nan]3[ASR]1
_chemical_formula_sum              "La2 Ni2 H52 C96 N8 O16"
_cell_length_a       17.0651
_cell_length_b       17.0651
_cell_length_c       9.6912
_cell_angle_alpha    80.1593
_cell_angle_beta     99.8407
_cell_angle_gamma    77.2968

_symmetry_space_group_name_H-M    "P 1"
_symmetry_Int_Tables_number       1

loop_
  _symmetry_equiv_pos_as_xyz
  'x, y, z'

loop_
  _atom_site_type_symbol
  _atom_site_label
  _atom_site_symmetry_multiplicity
  _atom_site_fract_x
  _atom_site_fract_y
  _atom_site_fract_z
  _atom_site_occupancy
  _atom_site_charge
La  La1       1.0  0.51026  0.51026  0.25000  1.0000 1.8479245519
La  La2       1.0  0.48974  0.48974  0.75000  1.0000 1.8479245519
Ni  Ni1       1.0  0.94768  0.94768  0.75000  1.0000 0.4284876054
Ni  Ni2       1.0  0.05232  0.05232  0.25000  1.0000 0.4284876054
H   H1        1.0  0.23529  0.04805  0.74711  1.0000 0.1178343256
H   H2        1.0  0.89671  0.19177  0.33692  1.0000 0.1286436068
H   H3        1.0  0.03242  0.18490  0.48008  1.0000 0.1286436068
H   H4        1.0  0.69981  0.23159  0.01160  1.0000 0.1178343256
H   H5        1.0  0.79382  0.12476  0.17540  1.0000 0.1178343256
H   H6        1.0  0.73320  0.77456  0.53689  1.0000 0.1078596963
H   H7        1.0  0.65948  0.04444  0.44315  1.0000 0.1286436068
H   H8        1.0  0.32239  0.13503  0.74732  1.0000 0.1178343256
H   H9        1.0  0.68017  0.18913  0.48607  1.0000 0.1178343256
H   H10       1.0  0.64404  0.69176  0.53667  1.0000 0.1078596963
H   H11       1.0  0.58928  0.29998  0.32001  1.0000 0.1178343256
H   H12       1.0  0.66198  0.91280  0.58776  1.0000 0.1286436068
H   H13       1.0  0.37929  0.30593  0.68332  1.0000 0.322085998
H   H14       1.0  0.04805  0.23529  0.75289  1.0000 0.1178343256
H   H15       1.0  0.19177  0.89671  0.16308  1.0000 0.1286436068
H   H16       1.0  0.18490  0.03242  0.01992  1.0000 0.1286436068
H   H17       1.0  0.23159  0.69981  0.48840  1.0000 0.1178343256
H   H18       1.0  0.12476  0.79382  0.32460  1.0000 0.1178343256
H   H19       1.0  0.77456  0.73320  0.96311  1.0000 0.1078596963
H   H20       1.0  0.04444  0.65948  0.05685  1.0000 0.1286436068
H   H21       1.0  0.13503  0.32239  0.75268  1.0000 0.1178343256
H   H22       1.0  0.18913  0.68017  0.01393  1.0000 0.1178343256
H   H23       1.0  0.69176  0.64404  0.96333  1.0000 0.1078596963
H   H24       1.0  0.29998  0.58928  0.17999  1.0000 0.1178343256
H   H25       1.0  0.91280  0.66198  0.91224  1.0000 0.1286436068
H   H26       1.0  0.30593  0.37929  0.81668  1.0000 0.322085998
H   H27       1.0  0.76471  0.95195  0.25289  1.0000 0.1178343256
H   H28       1.0  0.10329  0.80823  0.66308  1.0000 0.1286436068
H   H29       1.0  0.96758  0.81510  0.51992  1.0000 0.1286436068
H   H30       1.0  0.30019  0.76841  0.98840  1.0000 0.1178343256
H   H31       1.0  0.20618  0.87524  0.82460  1.0000 0.1178343256
H   H32       1.0  0.26680  0.22544  0.46311  1.0000 0.1078596963
H   H33       1.0  0.34052  0.95556  0.55685  1.0000 0.1286436068
H   H34       1.0  0.67761  0.86497  0.25268  1.0000 0.1178343256
H   H35       1.0  0.31983  0.81087  0.51393  1.0000 0.1178343256
H   H36       1.0  0.35596  0.30824  0.46333  1.0000 0.1078596963
H   H37       1.0  0.41072  0.70002  0.67999  1.0000 0.1178343256
H   H38       1.0  0.33802  0.08720  0.41224  1.0000 0.1286436068
H   H39       1.0  0.62071  0.69407  0.31668  1.0000 0.322085998
H   H40       1.0  0.95195  0.76471  0.24711  1.0000 0.1178343256
H   H41       1.0  0.80823  0.10329  0.83692  1.0000 0.1286436068
H   H42       1.0  0.81510  0.96758  0.98008  1.0000 0.1286436068
H   H43       1.0  0.76841  0.30019  0.51160  1.0000 0.1178343256
H   H44       1.0  0.87524  0.20618  0.67540  1.0000 0.1178343256
H   H45       1.0  0.22544  0.26680  0.03689  1.0000 0.1078596963
H   H46       1.0  0.95556  0.34052  0.94315  1.0000 0.1286436068
H   H47       1.0  0.86497  0.67761  0.24732  1.0000 0.1178343256
H   H48       1.0  0.81087  0.31983  0.98607  1.0000 0.1178343256
H   H49       1.0  0.30824  0.35596  0.03667  1.0000 0.1078596963
H   H50       1.0  0.70002  0.41072  0.82001  1.0000 0.1178343256
H   H51       1.0  0.08720  0.33802  0.08776  1.0000 0.1286436068
H   H52       1.0  0.69407  0.62071  0.18332  1.0000 0.322085998
C   C1        1.0  0.21470  0.10310  0.74830  1.0000 -0.1364531601
C   C2        1.0  0.63780  0.27940  0.14850  1.0000 -0.0324071878
C   C3        1.0  0.92300  0.15580  0.42420  1.0000 -0.1974283671
C   C4        1.0  0.99730  0.15250  0.50330  1.0000 -0.1974283671
C   C5        1.0  0.78680  0.02020  0.53900  1.0000 0.1697183267
C   C6        1.0  0.58340  0.35540  0.04320  1.0000 0.6095268345
C   C7        1.0  0.81250  0.08330  0.46550  1.0000 -0.0820429483
C   C8        1.0  0.69750  0.22470  0.10800  1.0000 -0.0983042801
C   C9        1.0  0.75370  0.16010  0.20570  1.0000 -0.1526604875
C   C10       1.0  0.72420  0.74960  0.62370  1.0000 -0.1526604875
C   C11       1.0  0.70500  0.00800  0.50710  1.0000 -0.187744447
C   C12       1.0  0.26730  0.15550  0.74840  1.0000 -0.1118256831
C   C13       1.0  0.75020  0.14780  0.35030  1.0000 0.092848776
C   C14       1.0  0.68590  0.19930  0.39140  1.0000 -0.1526604875
C   C15       1.0  0.67130  0.69870  0.62360  1.0000 -0.1118256831
C   C16       1.0  0.01160  0.08960  0.62980  1.0000 0.1766325539
C   C17       1.0  0.63070  0.26530  0.29150  1.0000 -0.0908775165
C   C18       1.0  0.70640  0.93580  0.58530  1.0000 -0.187744447
C   C19       1.0  0.79050  0.89910  0.66690  1.0000 0.1697183267
C   C20       1.0  0.89190  0.09310  0.50010  1.0000 0.1766325539
C   C21       1.0  0.10310  0.21470  0.75170  1.0000 -0.1364531601
C   C22       1.0  0.27940  0.63780  0.35150  1.0000 -0.0324071878
C   C23       1.0  0.15580  0.92300  0.07580  1.0000 -0.1974283671
C   C24       1.0  0.15250  0.99730  0.99670  1.0000 -0.1974283671
C   C25       1.0  0.02020  0.78680  0.96100  1.0000 0.1697183267
C   C26       1.0  0.35540  0.58340  0.45680  1.0000 0.6095268345
C   C27       1.0  0.08330  0.81250  0.03450  1.0000 -0.0820429483
C   C28       1.0  0.22470  0.69750  0.39200  1.0000 -0.0983042801
C   C29       1.0  0.16010  0.75370  0.29430  1.0000 -0.1526604875
C   C30       1.0  0.74960  0.72420  0.87630  1.0000 -0.1526604875
C   C31       1.0  0.00800  0.70500  0.99290  1.0000 -0.187744447
C   C32       1.0  0.15550  0.26730  0.75160  1.0000 -0.1118256831
C   C33       1.0  0.14780  0.75020  0.14970  1.0000 0.092848776
C   C34       1.0  0.19930  0.68590  0.10860  1.0000 -0.1526604875
C   C35       1.0  0.69870  0.67130  0.87640  1.0000 -0.1118256831
C   C36       1.0  0.08960  0.01160  0.87020  1.0000 0.1766325539
C   C37       1.0  0.26530  0.63070  0.20850  1.0000 -0.0908775165
C   C38       1.0  0.93580  0.70640  0.91470  1.0000 -0.187744447
C   C39       1.0  0.89910  0.79050  0.83310  1.0000 0.1697183267
C   C40       1.0  0.09310  0.89190  0.99990  1.0000 0.1766325539
C   C41       1.0  0.78530  0.89690  0.25170  1.0000 -0.1364531601
C   C42       1.0  0.36220  0.72060  0.85150  1.0000 -0.0324071878
C   C43       1.0  0.07700  0.84420  0.57580  1.0000 -0.1974283671
C   C44       1.0  0.00270  0.84750  0.49670  1.0000 -0.1974283671
C   C45       1.0  0.21320  0.97980  0.46100  1.0000 0.1697183267
C   C46       1.0  0.41660  0.64460  0.95680  1.0000 0.6095268345
C   C47       1.0  0.18750  0.91670  0.53450  1.0000 -0.0820429483
C   C48       1.0  0.30250  0.77530  0.89200  1.0000 -0.0983042801
C   C49       1.0  0.24630  0.83990  0.79430  1.0000 -0.1526604875
C   C50       1.0  0.27580  0.25040  0.37630  1.0000 -0.1526604875
C   C51       1.0  0.29500  0.99200  0.49290  1.0000 -0.187744447
C   C52       1.0  0.73270  0.84450  0.25160  1.0000 -0.1118256831
C   C53       1.0  0.24980  0.85220  0.64970  1.0000 0.092848776
C   C54       1.0  0.31410  0.80070  0.60860  1.0000 -0.1526604875
C   C55       1.0  0.32870  0.30130  0.37640  1.0000 -0.1118256831
C   C56       1.0  0.98840  0.91040  0.37020  1.0000 0.1766325539
C   C57       1.0  0.36930  0.73470  0.70850  1.0000 -0.0908775165
C   C58       1.0  0.29360  0.06420  0.41470  1.0000 -0.187744447
C   C59       1.0  0.20950  0.10090  0.33310  1.0000 0.1766325539
C   C60       1.0  0.10810  0.90690  0.49990  1.0000 0.1766325539
C   C61       1.0  0.89690  0.78530  0.24830  1.0000 -0.1364531601
C   C62       1.0  0.72060  0.36220  0.64850  1.0000 -0.0324071878
C   C63       1.0  0.84420  0.07700  0.92420  1.0000 -0.1974283671
C   C64       1.0  0.84750  0.00270  0.00330  1.0000 -0.1974283671
C   C65       1.0  0.97980  0.21320  0.03900  1.0000 0.1697183267
C   C66       1.0  0.64460  0.41660  0.54320  1.0000 0.6095268345
C   C67       1.0  0.91670  0.18750  0.96550  1.0000 -0.0820429483
C   C68       1.0  0.77530  0.30250  0.60800  1.0000 -0.0983042801
C   C69       1.0  0.83990  0.24630  0.70570  1.0000 -0.1526604875
C   C70       1.0  0.25040  0.27580  0.12370  1.0000 -0.1526604875
C   C71       1.0  0.99200  0.29500  0.00710  1.0000 -0.187744447
C   C72       1.0  0.84450  0.73270  0.24840  1.0000 -0.1118256831
C   C73       1.0  0.85220  0.24980  0.85030  1.0000 0.092848776
C   C74       1.0  0.80070  0.31410  0.89140  1.0000 -0.1526604875
C   C75       1.0  0.30130  0.32870  0.12360  1.0000 -0.1118256831
C   C76       1.0  0.91040  0.98840  0.12980  1.0000 0.1766325539
C   C77       1.0  0.73470  0.36930  0.79150  1.0000 -0.0908775165
C   C78       1.0  0.06420  0.29360  0.08530  1.0000 -0.187744447
C   C79       1.0  0.10090  0.20950  0.16690  1.0000 0.1766325539
C   C80       1.0  0.90690  0.10810  0.00010  1.0000 0.1766325539
C   C81       1.0  0.60210  0.60210  0.75000  1.0000 0.5684987521
C   C82       1.0  0.13200  0.13200  0.75000  1.0000 0.092848776
C   C83       1.0  0.65820  0.65820  0.75000  1.0000 -0.0211132923
C   C84       1.0  0.76400  0.76400  0.75000  1.0000 0.092848776
C   C85       1.0  0.23760  0.23760  0.75000  1.0000 -0.0570320403
C   C86       1.0  0.29420  0.29420  0.75000  1.0000 0.4733635551
C   C87       1.0  0.81960  0.81960  0.75000  1.0000 -0.0908775165
C   C88       1.0  0.07550  0.07550  0.75000  1.0000 -0.0746858651
C   C89       1.0  0.39790  0.39790  0.25000  1.0000 0.5684987521
C   C90       1.0  0.86800  0.86800  0.25000  1.0000 0.092848776
C   C91       1.0  0.34180  0.34180  0.25000  1.0000 -0.0211132923
C   C92       1.0  0.23600  0.23600  0.25000  1.0000 0.092848776
C   C93       1.0  0.76240  0.76240  0.25000  1.0000 -0.0570320403
C   C94       1.0  0.70580  0.70580  0.25000  1.0000 0.4733635551
C   C95       1.0  0.18040  0.18040  0.25000  1.0000 -0.0908775165
C   C96       1.0  0.92450  0.92450  0.25000  1.0000 -0.0746858651
N   N1        1.0  0.94910  0.05070  0.62300  1.0000 -0.3186283493
N   N2        1.0  0.83755  0.95335  0.64110  1.0000 -0.3125467309
N   N3        1.0  0.05070  0.94910  0.87700  1.0000 -0.3186283493
N   N4        1.0  0.95335  0.83755  0.85890  1.0000 -0.3125467309
N   N5        1.0  0.05090  0.94930  0.37700  1.0000 -0.3186283493
N   N6        1.0  0.16245  0.04665  0.35890  1.0000 -0.3125467309
N   N7        1.0  0.94930  0.05090  0.12300  1.0000 -0.3186283493
N   N8        1.0  0.04665  0.16245  0.14110  1.0000 -0.3125467309
O   O1        1.0  0.54218  0.61638  0.64440  1.0000 -0.5951534891
O   O2        1.0  0.54799  0.41479  0.09010  1.0000 -0.6485419059
O   O3        1.0  0.57780  0.35660  0.91170  1.0000 -0.6164198899
O   O4        1.0  0.36513  0.26773  0.72700  1.0000 -0.4046979928
O   O5        1.0  0.61638  0.54218  0.85560  1.0000 -0.5951534891
O   O6        1.0  0.41479  0.54799  0.40990  1.0000 -0.6485419059
O   O7        1.0  0.35660  0.57780  0.58830  1.0000 -0.6164198899
O   O8        1.0  0.26773  0.36513  0.77300  1.0000 -0.4046979928
O   O9        1.0  0.45782  0.38362  0.35560  1.0000 -0.5951534891
O   O10       1.0  0.45201  0.58521  0.90990  1.0000 -0.6485419059
O   O11       1.0  0.42220  0.64340  0.08830  1.0000 -0.6164198899
O   O12       1.0  0.63487  0.73227  0.27300  1.0000 -0.4046979928
O   O13       1.0  0.38362  0.45782  0.14440  1.0000 -0.5951534891
O   O14       1.0  0.58521  0.45201  0.59010  1.0000 -0.6485419059
O   O15       1.0  0.64340  0.42220  0.41170  1.0000 -0.6164198899
O   O16       1.0  0.73227  0.63487  0.22700  1.0000 -0.4046979928
