# DDEC6 charges by PACMAN v1.1 (https://github.com/mtap-research/PACMAN-charge/)
data_2021[Ni][qtz]3[ASR]1
_chemical_formula_sum              "Ni3 H120 C168 N12 Cl6 O24"
_cell_length_a       21.5831
_cell_length_b       21.5831
_cell_length_c       15.9237
_cell_angle_alpha    90
_cell_angle_beta     90
_cell_angle_gamma    120

_symmetry_space_group_name_H-M    "P 1"
_symmetry_Int_Tables_number       1

loop_
  _symmetry_equiv_pos_as_xyz
  'x, y, z'

loop_
  _atom_site_type_symbol
  _atom_site_label
  _atom_site_symmetry_multiplicity
  _atom_site_fract_x
  _atom_site_fract_y
  _atom_site_fract_z
  _atom_site_occupancy
  _atom_site_charge
Ni  Ni1       1.0  0.50000  0.50000  0.16667  1.0000 0.5334553576
Ni  Ni2       1.0  0.00000  0.50000  0.83333  1.0000 0.5334553576
Ni  Ni3       1.0  0.50000  0.00000  0.50000  1.0000 0.5334553576
H   H1        1.0  0.60343  0.46740  0.25820  1.0000 0.1100204078
H   H2        1.0  0.72019  0.48967  0.25151  1.0000 0.1397679914
H   H3        1.0  0.63902  0.59998  0.07271  1.0000 0.1100204078
H   H4        1.0  0.75502  0.62325  0.05876  1.0000 0.1397679914
H   H5        1.0  0.90520  0.43710  0.12185  1.0000 0.1164202957
H   H6        1.0  0.89767  0.32734  0.09554  1.0000 0.1164202957
H   H7        1.0  0.89673  0.25689  0.20696  1.0000 0.1100204078
H   H8        1.0  0.90333  0.29621  0.34468  1.0000 0.1100204078
H   H9        1.0  0.94531  0.59203  0.20471  1.0000 0.1017832961
H   H10       1.0  0.92129  0.52626  0.14226  1.0000 0.1100204078
H   H11       1.0  0.86397  0.39657  0.92486  1.0000 0.1100204078
H   H12       1.0  0.76948  0.27981  0.91817  1.0000 0.1397679914
H   H13       1.0  0.96096  0.36098  0.73937  1.0000 0.1100204078
H   H14       1.0  0.86823  0.24498  0.72542  1.0000 0.1397679914
H   H15       1.0  0.53190  0.09480  0.78851  1.0000 0.1164202957
H   H16       1.0  0.42967  0.10233  0.76220  1.0000 0.1164202957
H   H17       1.0  0.36016  0.10327  0.87362  1.0000 0.1100204078
H   H18       1.0  0.39288  0.09667  0.01134  1.0000 0.1100204078
H   H19       1.0  0.64672  0.05469  0.87137  1.0000 0.1017832961
H   H20       1.0  0.60497  0.07871  0.80892  1.0000 0.1100204078
H   H21       1.0  0.53260  0.13603  0.59153  1.0000 0.1100204078
H   H22       1.0  0.51033  0.23052  0.58484  1.0000 0.1397679914
H   H23       1.0  0.40002  0.03904  0.40604  1.0000 0.1100204078
H   H24       1.0  0.37675  0.13177  0.39209  1.0000 0.1397679914
H   H25       1.0  0.56290  0.46810  0.45518  1.0000 0.1164202957
H   H26       1.0  0.67266  0.57033  0.42887  1.0000 0.1164202957
H   H27       1.0  0.74311  0.63984  0.54029  1.0000 0.1100204078
H   H28       1.0  0.70379  0.60712  0.67801  1.0000 0.1100204078
H   H29       1.0  0.40797  0.35328  0.53804  1.0000 0.1017832961
H   H30       1.0  0.47374  0.39503  0.47559  1.0000 0.1100204078
H   H31       1.0  0.39657  0.53260  0.25820  1.0000 0.1100204078
H   H32       1.0  0.27981  0.51033  0.25151  1.0000 0.1397679914
H   H33       1.0  0.36098  0.40002  0.07271  1.0000 0.1100204078
H   H34       1.0  0.24498  0.37675  0.05876  1.0000 0.1397679914
H   H35       1.0  0.09480  0.56290  0.12185  1.0000 0.1164202957
H   H36       1.0  0.10233  0.67266  0.09554  1.0000 0.1164202957
H   H37       1.0  0.10327  0.74311  0.20696  1.0000 0.1100204078
H   H38       1.0  0.09667  0.70379  0.34468  1.0000 0.1100204078
H   H39       1.0  0.05469  0.40797  0.20471  1.0000 0.1017832961
H   H40       1.0  0.07871  0.47374  0.14226  1.0000 0.1100204078
H   H41       1.0  0.13603  0.60343  0.92486  1.0000 0.1100204078
H   H42       1.0  0.23052  0.72019  0.91817  1.0000 0.1397679914
H   H43       1.0  0.03904  0.63902  0.73937  1.0000 0.1100204078
H   H44       1.0  0.13177  0.75502  0.72542  1.0000 0.1397679914
H   H45       1.0  0.46810  0.90520  0.78851  1.0000 0.1164202957
H   H46       1.0  0.57033  0.89767  0.76220  1.0000 0.1164202957
H   H47       1.0  0.63984  0.89673  0.87362  1.0000 0.1100204078
H   H48       1.0  0.60712  0.90333  0.01134  1.0000 0.1100204078
H   H49       1.0  0.35328  0.94531  0.87137  1.0000 0.1017832961
H   H50       1.0  0.39503  0.92129  0.80892  1.0000 0.1100204078
H   H51       1.0  0.46740  0.86397  0.59153  1.0000 0.1100204078
H   H52       1.0  0.48967  0.76948  0.58484  1.0000 0.1397679914
H   H53       1.0  0.59998  0.96096  0.40604  1.0000 0.1100204078
H   H54       1.0  0.62325  0.86823  0.39209  1.0000 0.1397679914
H   H55       1.0  0.43710  0.53190  0.45518  1.0000 0.1164202957
H   H56       1.0  0.32734  0.42967  0.42887  1.0000 0.1164202957
H   H57       1.0  0.25689  0.36016  0.54029  1.0000 0.1100204078
H   H58       1.0  0.29621  0.39288  0.67801  1.0000 0.1100204078
H   H59       1.0  0.59203  0.64672  0.53804  1.0000 0.1017832961
H   H60       1.0  0.52626  0.60497  0.47559  1.0000 0.1100204078
H   H61       1.0  0.13603  0.53260  0.74180  1.0000 0.1100204078
H   H62       1.0  0.23052  0.51033  0.74849  1.0000 0.1397679914
H   H63       1.0  0.03904  0.40002  0.92729  1.0000 0.1100204078
H   H64       1.0  0.13177  0.37675  0.94124  1.0000 0.1397679914
H   H65       1.0  0.46810  0.56290  0.87815  1.0000 0.1164202957
H   H66       1.0  0.57033  0.67266  0.90446  1.0000 0.1164202957
H   H67       1.0  0.63984  0.74311  0.79304  1.0000 0.1100204078
H   H68       1.0  0.60712  0.70379  0.65532  1.0000 0.1100204078
H   H69       1.0  0.35328  0.40797  0.79529  1.0000 0.1017832961
H   H70       1.0  0.39503  0.47374  0.85774  1.0000 0.1100204078
H   H71       1.0  0.46740  0.60343  0.07514  1.0000 0.1100204078
H   H72       1.0  0.48967  0.72019  0.08183  1.0000 0.1397679914
H   H73       1.0  0.59998  0.63902  0.26063  1.0000 0.1100204078
H   H74       1.0  0.62325  0.75502  0.27458  1.0000 0.1397679914
H   H75       1.0  0.43710  0.90520  0.21149  1.0000 0.1164202957
H   H76       1.0  0.32734  0.89767  0.23780  1.0000 0.1164202957
H   H77       1.0  0.25689  0.89673  0.12638  1.0000 0.1100204078
H   H78       1.0  0.29621  0.90333  0.98866  1.0000 0.1100204078
H   H79       1.0  0.59203  0.94531  0.12863  1.0000 0.1017832961
H   H80       1.0  0.52626  0.92129  0.19108  1.0000 0.1100204078
H   H81       1.0  0.39657  0.86397  0.40847  1.0000 0.1100204078
H   H82       1.0  0.27981  0.76948  0.41516  1.0000 0.1397679914
H   H83       1.0  0.36098  0.96096  0.59396  1.0000 0.1100204078
H   H84       1.0  0.24498  0.86823  0.60791  1.0000 0.1397679914
H   H85       1.0  0.09480  0.53190  0.54482  1.0000 0.1164202957
H   H86       1.0  0.10233  0.42967  0.57113  1.0000 0.1164202957
H   H87       1.0  0.10327  0.36016  0.45971  1.0000 0.1100204078
H   H88       1.0  0.09667  0.39288  0.32199  1.0000 0.1100204078
H   H89       1.0  0.05469  0.64672  0.46196  1.0000 0.1017832961
H   H90       1.0  0.07871  0.60497  0.52441  1.0000 0.1100204078
H   H91       1.0  0.86397  0.46740  0.74180  1.0000 0.1100204078
H   H92       1.0  0.76948  0.48967  0.74849  1.0000 0.1397679914
H   H93       1.0  0.96096  0.59998  0.92729  1.0000 0.1100204078
H   H94       1.0  0.86823  0.62325  0.94124  1.0000 0.1397679914
H   H95       1.0  0.53190  0.43710  0.87815  1.0000 0.1164202957
H   H96       1.0  0.42967  0.32734  0.90446  1.0000 0.1164202957
H   H97       1.0  0.36016  0.25689  0.79304  1.0000 0.1100204078
H   H98       1.0  0.39288  0.29621  0.65532  1.0000 0.1100204078
H   H99       1.0  0.64672  0.59203  0.79529  1.0000 0.1017832961
H   H100      1.0  0.60497  0.52626  0.85774  1.0000 0.1100204078
H   H101      1.0  0.53260  0.39657  0.07514  1.0000 0.1100204078
H   H102      1.0  0.51033  0.27981  0.08183  1.0000 0.1397679914
H   H103      1.0  0.40002  0.36098  0.26063  1.0000 0.1100204078
H   H104      1.0  0.37675  0.24498  0.27458  1.0000 0.1397679914
H   H105      1.0  0.56290  0.09480  0.21149  1.0000 0.1164202957
H   H106      1.0  0.67266  0.10233  0.23780  1.0000 0.1164202957
H   H107      1.0  0.74311  0.10327  0.12638  1.0000 0.1100204078
H   H108      1.0  0.70379  0.09667  0.98866  1.0000 0.1100204078
H   H109      1.0  0.40797  0.05469  0.12863  1.0000 0.1017832961
H   H110      1.0  0.47374  0.07871  0.19108  1.0000 0.1100204078
H   H111      1.0  0.60343  0.13603  0.40847  1.0000 0.1100204078
H   H112      1.0  0.72019  0.23052  0.41516  1.0000 0.1397679914
H   H113      1.0  0.63902  0.03904  0.59396  1.0000 0.1100204078
H   H114      1.0  0.75502  0.13177  0.60791  1.0000 0.1397679914
H   H115      1.0  0.90520  0.46810  0.54482  1.0000 0.1164202957
H   H116      1.0  0.89767  0.57033  0.57113  1.0000 0.1164202957
H   H117      1.0  0.89673  0.63984  0.45971  1.0000 0.1100204078
H   H118      1.0  0.90333  0.60712  0.32199  1.0000 0.1100204078
H   H119      1.0  0.94531  0.35328  0.46196  1.0000 0.1017832961
H   H120      1.0  0.92129  0.39503  0.52441  1.0000 0.1100204078
C   C1        1.0  0.82600  0.57660  0.14777  1.0000 0.4961755307
C   C2        1.0  0.63430  0.49920  0.21727  1.0000 0.0863584733
C   C3        1.0  0.70470  0.51270  0.21387  1.0000 -0.168111495
C   C4        1.0  0.91070  0.49720  0.26567  1.0000 -0.0127242242
C   C5        1.0  0.65540  0.57660  0.10847  1.0000 0.0728142715
C   C6        1.0  0.75170  0.56010  0.15467  1.0000 -0.0156389403
C   C7        1.0  0.72540  0.59160  0.10067  1.0000 -0.1329353921
C   C8        1.0  0.90880  0.43220  0.24897  1.0000 0.0308301986
C   C9        1.0  0.90480  0.40870  0.16677  1.0000 -0.1329353921
C   C10       1.0  0.90030  0.34320  0.15107  1.0000 -0.09054771
C   C11       1.0  0.89980  0.30120  0.21757  1.0000 -0.1060362092
C   C12       1.0  0.90370  0.32460  0.29977  1.0000 -0.1463766663
C   C13       1.0  0.90820  0.39010  0.31543  1.0000 0.0308301986
C   C14       1.0  0.91000  0.54150  0.19527  1.0000 -0.09054771
C   C15       1.0  0.75060  0.17400  0.81443  1.0000 0.4961755307
C   C16       1.0  0.86490  0.36570  0.88393  1.0000 0.0863584733
C   C17       1.0  0.80800  0.29530  0.88053  1.0000 -0.168111495
C   C18       1.0  0.58650  0.08930  0.93233  1.0000 -0.0127242242
C   C19       1.0  0.92120  0.34460  0.77513  1.0000 0.0728142715
C   C20       1.0  0.80840  0.24830  0.82133  1.0000 -0.0156389403
C   C21       1.0  0.86620  0.27460  0.76733  1.0000 -0.1329353921
C   C22       1.0  0.52340  0.09120  0.91563  1.0000 0.0308301986
C   C23       1.0  0.50390  0.09520  0.83343  1.0000 -0.1329353921
C   C24       1.0  0.44290  0.09970  0.81773  1.0000 -0.09054771
C   C25       1.0  0.40140  0.10020  0.88423  1.0000 -0.1060362092
C   C26       1.0  0.42090  0.09630  0.96643  1.0000 -0.1463766663
C   C27       1.0  0.48190  0.09180  0.98209  1.0000 0.0308301986
C   C28       1.0  0.63150  0.09000  0.86193  1.0000 -0.09054771
C   C29       1.0  0.42340  0.24940  0.48110  1.0000 0.4961755307
C   C30       1.0  0.50080  0.13510  0.55060  1.0000 0.0863584733
C   C31       1.0  0.48730  0.19200  0.54720  1.0000 -0.168111495
C   C32       1.0  0.50280  0.41350  0.59900  1.0000 -0.0127242242
C   C33       1.0  0.42340  0.07880  0.44180  1.0000 0.0728142715
C   C34       1.0  0.43990  0.19160  0.48800  1.0000 -0.0156389403
C   C35       1.0  0.40840  0.13380  0.43400  1.0000 -0.1329353921
C   C36       1.0  0.56780  0.47660  0.58230  1.0000 0.0308301986
C   C37       1.0  0.59130  0.49610  0.50010  1.0000 -0.1329353921
C   C38       1.0  0.65680  0.55710  0.48440  1.0000 -0.09054771
C   C39       1.0  0.69880  0.59860  0.55090  1.0000 -0.1060362092
C   C40       1.0  0.67540  0.57910  0.63310  1.0000 -0.1463766663
C   C41       1.0  0.60990  0.51810  0.64876  1.0000 0.0308301986
C   C42       1.0  0.45850  0.36850  0.52860  1.0000 -0.09054771
C   C43       1.0  0.17400  0.42340  0.14777  1.0000 0.4961755307
C   C44       1.0  0.36570  0.50080  0.21727  1.0000 0.0863584733
C   C45       1.0  0.29530  0.48730  0.21387  1.0000 -0.168111495
C   C46       1.0  0.08930  0.50280  0.26567  1.0000 -0.0127242242
C   C47       1.0  0.34460  0.42340  0.10847  1.0000 0.0728142715
C   C48       1.0  0.24830  0.43990  0.15467  1.0000 -0.0156389403
C   C49       1.0  0.27460  0.40840  0.10067  1.0000 -0.1329353921
C   C50       1.0  0.09120  0.56780  0.24897  1.0000 0.0308301986
C   C51       1.0  0.09520  0.59130  0.16677  1.0000 -0.1329353921
C   C52       1.0  0.09970  0.65680  0.15107  1.0000 -0.09054771
C   C53       1.0  0.10020  0.69880  0.21757  1.0000 -0.1060362092
C   C54       1.0  0.09630  0.67540  0.29977  1.0000 -0.1463766663
C   C55       1.0  0.09180  0.60990  0.31543  1.0000 0.0308301986
C   C56       1.0  0.09000  0.45850  0.19527  1.0000 -0.09054771
C   C57       1.0  0.24940  0.82600  0.81443  1.0000 0.4961755307
C   C58       1.0  0.13510  0.63430  0.88393  1.0000 0.0863584733
C   C59       1.0  0.19200  0.70470  0.88053  1.0000 -0.168111495
C   C60       1.0  0.41350  0.91070  0.93233  1.0000 -0.0127242242
C   C61       1.0  0.07880  0.65540  0.77513  1.0000 0.0728142715
C   C62       1.0  0.19160  0.75170  0.82133  1.0000 -0.0156389403
C   C63       1.0  0.13380  0.72540  0.76733  1.0000 -0.1329353921
C   C64       1.0  0.47660  0.90880  0.91563  1.0000 0.0308301986
C   C65       1.0  0.49610  0.90480  0.83343  1.0000 -0.1353154772
C   C66       1.0  0.55710  0.90030  0.81773  1.0000 -0.09054771
C   C67       1.0  0.59860  0.89980  0.88423  1.0000 -0.1060362092
C   C68       1.0  0.57910  0.90370  0.96643  1.0000 -0.1463766663
C   C69       1.0  0.51810  0.90820  0.98209  1.0000 0.0308301986
C   C70       1.0  0.36850  0.91000  0.86193  1.0000 -0.09054771
C   C71       1.0  0.57660  0.75060  0.48110  1.0000 0.4961755307
C   C72       1.0  0.49920  0.86490  0.55060  1.0000 0.0863584733
C   C73       1.0  0.51270  0.80800  0.54720  1.0000 -0.168111495
C   C74       1.0  0.49720  0.58650  0.59900  1.0000 -0.0127242242
C   C75       1.0  0.57660  0.92120  0.44180  1.0000 0.0728142715
C   C76       1.0  0.56010  0.80840  0.48800  1.0000 -0.0156389403
C   C77       1.0  0.59160  0.86620  0.43400  1.0000 -0.1329353921
C   C78       1.0  0.43220  0.52340  0.58230  1.0000 0.0308301986
C   C79       1.0  0.40870  0.50390  0.50010  1.0000 -0.1329353921
C   C80       1.0  0.34320  0.44290  0.48440  1.0000 -0.09054771
C   C81       1.0  0.30120  0.40140  0.55090  1.0000 -0.1060362092
C   C82       1.0  0.32460  0.42090  0.63310  1.0000 -0.1463766663
C   C83       1.0  0.39010  0.48190  0.64876  1.0000 0.0308301986
C   C84       1.0  0.54150  0.63150  0.52860  1.0000 -0.09054771
C   C85       1.0  0.24940  0.42340  0.85223  1.0000 0.4961755307
C   C86       1.0  0.13510  0.50080  0.78273  1.0000 0.0863584733
C   C87       1.0  0.19200  0.48730  0.78613  1.0000 -0.168111495
C   C88       1.0  0.41350  0.50280  0.73433  1.0000 -0.0127242242
C   C89       1.0  0.07880  0.42340  0.89153  1.0000 0.0728142715
C   C90       1.0  0.19160  0.43990  0.84533  1.0000 -0.0156389403
C   C91       1.0  0.13380  0.40840  0.89933  1.0000 -0.1329353921
C   C92       1.0  0.47660  0.56780  0.75103  1.0000 0.0308301986
C   C93       1.0  0.49610  0.59130  0.83323  1.0000 -0.1353154772
C   C94       1.0  0.55710  0.65680  0.84893  1.0000 -0.09054771
C   C95       1.0  0.59860  0.69880  0.78243  1.0000 -0.1060362092
C   C96       1.0  0.57910  0.67540  0.70023  1.0000 -0.1463766663
C   C97       1.0  0.51810  0.60990  0.68457  1.0000 0.0308301986
C   C98       1.0  0.36850  0.45850  0.80473  1.0000 -0.09054771
C   C99       1.0  0.57660  0.82600  0.18557  1.0000 0.4961755307
C   C100      1.0  0.49920  0.63430  0.11607  1.0000 0.0863584733
C   C101      1.0  0.51270  0.70470  0.11947  1.0000 -0.168111495
C   C102      1.0  0.49720  0.91070  0.06767  1.0000 -0.0127242242
C   C103      1.0  0.57660  0.65540  0.22487  1.0000 0.0728142715
C   C104      1.0  0.56010  0.75170  0.17867  1.0000 -0.0156389403
C   C105      1.0  0.59160  0.72540  0.23267  1.0000 -0.1329353921
C   C106      1.0  0.43220  0.90880  0.08437  1.0000 0.0308301986
C   C107      1.0  0.40870  0.90480  0.16657  1.0000 -0.1353154772
C   C108      1.0  0.34320  0.90030  0.18227  1.0000 -0.09054771
C   C109      1.0  0.30120  0.89980  0.11577  1.0000 -0.1060362092
C   C110      1.0  0.32460  0.90370  0.03357  1.0000 -0.1463766663
C   C111      1.0  0.39010  0.90820  0.01791  1.0000 0.0308301986
C   C112      1.0  0.54150  0.91000  0.13807  1.0000 -0.09054771
C   C113      1.0  0.17400  0.75060  0.51890  1.0000 0.4961755307
C   C114      1.0  0.36570  0.86490  0.44940  1.0000 0.0863584733
C   C115      1.0  0.29530  0.80800  0.45280  1.0000 -0.168111495
C   C116      1.0  0.08930  0.58650  0.40100  1.0000 -0.0127242242
C   C117      1.0  0.34460  0.92120  0.55820  1.0000 0.0728142715
C   C118      1.0  0.24830  0.80840  0.51200  1.0000 -0.0156389403
C   C119      1.0  0.27460  0.86620  0.56600  1.0000 -0.1329353921
C   C120      1.0  0.09120  0.52340  0.41770  1.0000 0.0308301986
C   C121      1.0  0.09520  0.50390  0.49990  1.0000 -0.1329353921
C   C122      1.0  0.09970  0.44290  0.51560  1.0000 -0.09054771
C   C123      1.0  0.10020  0.40140  0.44910  1.0000 -0.1060362092
C   C124      1.0  0.09630  0.42090  0.36690  1.0000 -0.1463766663
C   C125      1.0  0.09180  0.48190  0.35124  1.0000 0.0308301986
C   C126      1.0  0.09000  0.63150  0.47140  1.0000 -0.09054771
C   C127      1.0  0.75060  0.57660  0.85223  1.0000 0.4961755307
C   C128      1.0  0.86490  0.49920  0.78273  1.0000 0.0863584733
C   C129      1.0  0.80800  0.51270  0.78613  1.0000 -0.168111495
C   C130      1.0  0.58650  0.49720  0.73433  1.0000 -0.0127242242
C   C131      1.0  0.92120  0.57660  0.89153  1.0000 0.0728142715
C   C132      1.0  0.80840  0.56010  0.84533  1.0000 -0.0156389403
C   C133      1.0  0.86620  0.59160  0.89933  1.0000 -0.1329353921
C   C134      1.0  0.52340  0.43220  0.75103  1.0000 0.0308301986
C   C135      1.0  0.50390  0.40870  0.83323  1.0000 -0.1329353921
C   C136      1.0  0.44290  0.34320  0.84893  1.0000 -0.09054771
C   C137      1.0  0.40140  0.30120  0.78243  1.0000 -0.1060362092
C   C138      1.0  0.42090  0.32460  0.70023  1.0000 -0.1463766663
C   C139      1.0  0.48190  0.39010  0.68457  1.0000 0.0308301986
C   C140      1.0  0.63150  0.54150  0.80473  1.0000 -0.09054771
C   C141      1.0  0.42340  0.17400  0.18557  1.0000 0.4961755307
C   C142      1.0  0.50080  0.36570  0.11607  1.0000 0.0863584733
C   C143      1.0  0.48730  0.29530  0.11947  1.0000 -0.168111495
C   C144      1.0  0.50280  0.08930  0.06767  1.0000 -0.0127242242
C   C145      1.0  0.42340  0.34460  0.22487  1.0000 0.0728142715
C   C146      1.0  0.43990  0.24830  0.17867  1.0000 -0.0156389403
C   C147      1.0  0.40840  0.27460  0.23267  1.0000 -0.1329353921
C   C148      1.0  0.56780  0.09120  0.08437  1.0000 0.0308301986
C   C149      1.0  0.59130  0.09520  0.16657  1.0000 -0.1329353921
C   C150      1.0  0.65680  0.09970  0.18227  1.0000 -0.09054771
C   C151      1.0  0.69880  0.10020  0.11577  1.0000 -0.1060362092
C   C152      1.0  0.67540  0.09630  0.03357  1.0000 -0.1463766663
C   C153      1.0  0.60990  0.09180  0.01791  1.0000 0.0308301986
C   C154      1.0  0.45850  0.09000  0.13807  1.0000 -0.09054771
C   C155      1.0  0.82600  0.24940  0.51890  1.0000 0.4961755307
C   C156      1.0  0.63430  0.13510  0.44940  1.0000 0.0863584733
C   C157      1.0  0.70470  0.19200  0.45280  1.0000 -0.168111495
C   C158      1.0  0.91070  0.41350  0.40100  1.0000 -0.0127242242
C   C159      1.0  0.65540  0.07880  0.55820  1.0000 0.0728142715
C   C160      1.0  0.75170  0.19160  0.51200  1.0000 -0.0156389403
C   C161      1.0  0.72540  0.13380  0.56600  1.0000 -0.1329353921
C   C162      1.0  0.90880  0.47660  0.41770  1.0000 0.0308301986
C   C163      1.0  0.90480  0.49610  0.49990  1.0000 -0.1329353921
C   C164      1.0  0.90030  0.55710  0.51560  1.0000 -0.09054771
C   C165      1.0  0.89980  0.59860  0.44910  1.0000 -0.1060362092
C   C166      1.0  0.90370  0.57910  0.36690  1.0000 -0.1463766663
C   C167      1.0  0.90820  0.51810  0.35124  1.0000 0.0308301986
C   C168      1.0  0.91000  0.36850  0.47140  1.0000 -0.09054771
N   N1        1.0  0.60940  0.52950  0.16537  1.0000 -0.1911128045
N   N2        1.0  0.92010  0.39060  0.83203  1.0000 -0.1911128045
N   N3        1.0  0.47050  0.07990  0.49870  1.0000 -0.1911128045
N   N4        1.0  0.39060  0.47050  0.16537  1.0000 -0.1911128045
N   N5        1.0  0.07990  0.60940  0.83203  1.0000 -0.1911128045
N   N6        1.0  0.52950  0.92010  0.49870  1.0000 -0.1911128045
N   N7        1.0  0.07990  0.47050  0.83463  1.0000 -0.1911128045
N   N8        1.0  0.52950  0.60940  0.16797  1.0000 -0.1911128045
N   N9        1.0  0.39060  0.92010  0.50130  1.0000 -0.1911128045
N   N10       1.0  0.92010  0.52950  0.83463  1.0000 -0.1911128045
N   N11       1.0  0.47050  0.39060  0.16797  1.0000 -0.1911128045
N   N12       1.0  0.60940  0.07990  0.50130  1.0000 -0.1911128045
Cl  Cl1       1.0  0.50000  0.50000  0.01552  1.0000 -0.6069211307
Cl  Cl2       1.0  0.00000  0.50000  0.68218  1.0000 -0.6069211307
Cl  Cl3       1.0  0.50000  0.00000  0.34885  1.0000 -0.6069211307
Cl  Cl4       1.0  0.00000  0.50000  0.98448  1.0000 -0.6069211307
Cl  Cl5       1.0  0.50000  0.50000  0.31782  1.0000 -0.6069211307
Cl  Cl6       1.0  0.50000  0.00000  0.65115  1.0000 -0.6069211307
O   O1        1.0  0.83710  0.53100  0.19297  1.0000 -0.2007996061
O   O2        1.0  0.87110  0.62400  0.10747  1.0000 -0.4228126847
O   O3        1.0  0.69390  0.16290  0.85963  1.0000 -0.2007996061
O   O4        1.0  0.75290  0.12890  0.77413  1.0000 -0.4228126847
O   O5        1.0  0.46900  0.30610  0.52630  1.0000 -0.2007996061
O   O6        1.0  0.37600  0.24710  0.44080  1.0000 -0.4228126847
O   O7        1.0  0.16290  0.46900  0.19297  1.0000 -0.2007996061
O   O8        1.0  0.12890  0.37600  0.10747  1.0000 -0.4228126847
O   O9        1.0  0.30610  0.83710  0.85963  1.0000 -0.2007996061
O   O10       1.0  0.24710  0.87110  0.77413  1.0000 -0.4228126847
O   O11       1.0  0.53100  0.69390  0.52630  1.0000 -0.2007996061
O   O12       1.0  0.62400  0.75290  0.44080  1.0000 -0.4228126847
O   O13       1.0  0.30610  0.46900  0.80703  1.0000 -0.2007996061
O   O14       1.0  0.24710  0.37600  0.89253  1.0000 -0.4228126847
O   O15       1.0  0.53100  0.83710  0.14037  1.0000 -0.2007996061
O   O16       1.0  0.62400  0.87110  0.22587  1.0000 -0.4228126847
O   O17       1.0  0.16290  0.69390  0.47370  1.0000 -0.2007996061
O   O18       1.0  0.12890  0.75290  0.55920  1.0000 -0.4228126847
O   O19       1.0  0.69390  0.53100  0.80703  1.0000 -0.2007996061
O   O20       1.0  0.75290  0.62400  0.89253  1.0000 -0.4228126847
O   O21       1.0  0.46900  0.16290  0.14037  1.0000 -0.2007996061
O   O22       1.0  0.37600  0.12890  0.22587  1.0000 -0.4228126847
O   O23       1.0  0.83710  0.30610  0.47370  1.0000 -0.2007996061
O   O24       1.0  0.87110  0.24710  0.55920  1.0000 -0.4228126847
