# DDEC6 charges by PACMAN v1.1 (https://github.com/mtap-research/PACMAN-charge/)
data_2021[Tb][fcu]3[ASR]1
_chemical_formula_sum              "Tb6 C48 O56"
_cell_length_a       15.2068
_cell_length_b       15.2068
_cell_length_c       15.2068
_cell_angle_alpha    119.901
_cell_angle_beta     119.901
_cell_angle_gamma    90.1719

_symmetry_space_group_name_H-M    "P 1"
_symmetry_Int_Tables_number       1

loop_
  _symmetry_equiv_pos_as_xyz
  'x, y, z'

loop_
  _atom_site_type_symbol
  _atom_site_label
  _atom_site_symmetry_multiplicity
  _atom_site_fract_x
  _atom_site_fract_y
  _atom_site_fract_z
  _atom_site_occupancy
  _atom_site_charge
Tb  Tb1       1.0  0.12831  0.12831  0.00000  1.0000 2.1965738584
Tb  Tb2       1.0  0.87169  0.87169  0.00000  1.0000 2.1944048692
Tb  Tb3       1.0  0.87205  0.12794  0.99999  1.0000 2.1965738584
Tb  Tb4       1.0  0.12795  0.87206  0.00001  1.0000 2.1965738584
Tb  Tb5       1.0  0.87206  0.87205  0.74411  1.0000 2.1965738584
Tb  Tb6       1.0  0.12794  0.12795  0.25589  1.0000 2.1965738584
C   C1        1.0  0.00030  0.00050  0.69160  1.0000 0.7219431787
C   C2        1.0  0.00170  0.00170  0.59500  1.0000 -0.1675182507
C   C3        1.0  0.08010  0.08010  0.62760  1.0000 0.2283369879
C   C4        1.0  0.92040  0.92000  0.46720  1.0000 0.2283369879
C   C5        1.0  0.30890  0.30870  0.30840  1.0000 0.7219431787
C   C6        1.0  0.40670  0.40670  0.40500  1.0000 -0.1647472541
C   C7        1.0  0.45250  0.45250  0.37240  1.0000 0.2283369879
C   C8        1.0  0.45280  0.45320  0.53280  1.0000 0.2283369879
C   C9        1.0  0.30870  0.00030  0.99980  1.0000 0.7219431787
C   C10       1.0  0.40670  0.00170  0.00000  1.0000 -0.1675182507
C   C11       1.0  0.45250  0.08010  0.00000  1.0000 0.2283369879
C   C12       1.0  0.45320  0.92040  0.00040  1.0000 0.2283369879
C   C13       1.0  0.00050  0.30890  0.00020  1.0000 0.7219431787
C   C14       1.0  0.00170  0.40670  0.00000  1.0000 -0.1675182507
C   C15       1.0  0.08010  0.45250  0.00000  1.0000 0.2283369879
C   C16       1.0  0.92000  0.45280  0.99960  1.0000 0.2283369879
C   C17       1.0  0.99970  0.99950  0.30840  1.0000 0.7219431787
C   C18       1.0  0.99830  0.99830  0.40500  1.0000 -0.1675182507
C   C19       1.0  0.91990  0.91990  0.37240  1.0000 0.2283369879
C   C20       1.0  0.07960  0.08000  0.53280  1.0000 0.2283369879
C   C21       1.0  0.69110  0.69130  0.69160  1.0000 0.7219431787
C   C22       1.0  0.59330  0.59330  0.59500  1.0000 -0.1675182507
C   C23       1.0  0.54750  0.54750  0.62760  1.0000 0.2283369879
C   C24       1.0  0.54720  0.54680  0.46720  1.0000 0.2283369879
C   C25       1.0  0.69130  0.99970  0.00020  1.0000 0.7219431787
C   C26       1.0  0.59330  0.99830  0.00000  1.0000 -0.1675182507
C   C27       1.0  0.54750  0.91990  0.00000  1.0000 0.2283369879
C   C28       1.0  0.54680  0.07960  0.99960  1.0000 0.2283369879
C   C29       1.0  0.99950  0.69110  0.99980  1.0000 0.7219431787
C   C30       1.0  0.99830  0.59330  0.00000  1.0000 -0.1675182507
C   C31       1.0  0.91990  0.54750  0.00000  1.0000 0.2283369879
C   C32       1.0  0.08000  0.54720  0.00040  1.0000 0.2283369879
C   C33       1.0  0.69120  0.99970  0.69090  1.0000 0.7219431787
C   C34       1.0  0.59380  0.00000  0.59380  1.0000 -0.1956315498
C   C35       1.0  0.54860  0.07900  0.62760  1.0000 0.2578081477
C   C36       1.0  0.54880  0.92000  0.46880  1.0000 0.2725431461
C   C37       1.0  0.30880  0.00030  0.30910  1.0000 0.7219431787
C   C38       1.0  0.40620  0.00000  0.40620  1.0000 -0.1936356138
C   C39       1.0  0.45140  0.92100  0.37240  1.0000 0.2578081477
C   C40       1.0  0.45120  0.08000  0.53120  1.0000 0.2725431461
C   C41       1.0  0.00030  0.69120  0.69150  1.0000 0.7219431787
C   C42       1.0  0.00000  0.59380  0.59380  1.0000 -0.1956315498
C   C43       1.0  0.92100  0.54860  0.46960  1.0000 0.2578081477
C   C44       1.0  0.08000  0.54880  0.62880  1.0000 0.2725431461
C   C45       1.0  0.99970  0.30880  0.30850  1.0000 0.7219431787
C   C46       1.0  0.00000  0.40620  0.40620  1.0000 -0.1936356138
C   C47       1.0  0.07900  0.45140  0.53040  1.0000 0.2578081477
C   C48       1.0  0.92000  0.45120  0.37120  1.0000 0.2725431461
O   O1        1.0  0.05920  0.17740  0.11820  1.0000 -0.910006785
O   O2        1.0  0.07330  0.07330  0.79960  1.0000 -0.509653629
O   O3        1.0  0.92600  0.92600  0.65260  1.0000 -0.5199074458
O   O4        1.0  0.15820  0.15840  0.74840  1.0000 -0.2401583558
O   O5        1.0  0.83990  0.83920  0.42970  1.0000 -0.2401583558
O   O6        1.0  0.05920  0.94100  0.88180  1.0000 -0.910006785
O   O7        1.0  0.27370  0.27370  0.20040  1.0000 -0.509653629
O   O8        1.0  0.27340  0.27340  0.34740  1.0000 -0.5199074458
O   O9        1.0  0.41000  0.40980  0.25160  1.0000 -0.2504987608
O   O10       1.0  0.40950  0.41020  0.57030  1.0000 -0.2401583558
O   O11       1.0  0.94100  0.05920  0.88180  1.0000 -0.910006785
O   O12       1.0  0.27370  0.07330  0.00000  1.0000 -0.509653629
O   O13       1.0  0.27340  0.92600  0.00000  1.0000 -0.5199074458
O   O14       1.0  0.40980  0.15820  0.99980  1.0000 -0.2401583558
O   O15       1.0  0.41020  0.83990  0.00070  1.0000 -0.2345981907
O   O16       1.0  0.17740  0.05920  0.11820  1.0000 -0.910006785
O   O17       1.0  0.07330  0.27370  0.00000  1.0000 -0.509653629
O   O18       1.0  0.92600  0.27340  0.00000  1.0000 -0.5199074458
O   O19       1.0  0.15840  0.41000  0.00020  1.0000 -0.2401583558
O   O20       1.0  0.83920  0.40950  0.99930  1.0000 -0.2401583558
O   O21       1.0  0.94080  0.82260  0.88180  1.0000 -0.910006785
O   O22       1.0  0.92670  0.92670  0.20040  1.0000 -0.509653629
O   O23       1.0  0.07400  0.07400  0.34740  1.0000 -0.5199074458
O   O24       1.0  0.84180  0.84160  0.25160  1.0000 -0.2401583558
O   O25       1.0  0.16010  0.16080  0.57030  1.0000 -0.2345981907
O   O26       1.0  0.94080  0.05900  0.11820  1.0000 -0.910006785
O   O27       1.0  0.72630  0.72630  0.79960  1.0000 -0.509653629
O   O28       1.0  0.72660  0.72660  0.65260  1.0000 -0.5199074458
O   O29       1.0  0.59000  0.59020  0.74840  1.0000 -0.2504987608
O   O30       1.0  0.59050  0.58980  0.42970  1.0000 -0.2401583558
O   O31       1.0  0.05900  0.94080  0.11820  1.0000 -0.910006785
O   O32       1.0  0.72630  0.92670  0.00000  1.0000 -0.509653629
O   O33       1.0  0.72660  0.07400  0.00000  1.0000 -0.5199074458
O   O34       1.0  0.59020  0.84180  0.00020  1.0000 -0.2401583558
O   O35       1.0  0.58980  0.16010  0.99930  1.0000 -0.2401583558
O   O36       1.0  0.82260  0.94080  0.88180  1.0000 -0.910006785
O   O37       1.0  0.92670  0.72630  0.00000  1.0000 -0.509653629
O   O38       1.0  0.07400  0.72660  0.00000  1.0000 -0.5199074458
O   O39       1.0  0.84160  0.59000  0.99980  1.0000 -0.2401583558
O   O40       1.0  0.16080  0.59050  0.00070  1.0000 -0.2345981907
O   O41       1.0  0.72630  0.07290  0.79920  1.0000 -0.509653629
O   O42       1.0  0.72650  0.92710  0.65360  1.0000 -0.5034192066
O   O43       1.0  0.59250  0.15500  0.74750  1.0000 -0.2504987608
O   O44       1.0  0.59210  0.84500  0.43710  1.0000 -0.2691925403
O   O45       1.0  0.27370  0.92710  0.20080  1.0000 -0.509653629
O   O46       1.0  0.27350  0.07290  0.34640  1.0000 -0.5034192066
O   O47       1.0  0.40750  0.84500  0.25250  1.0000 -0.2504987608
O   O48       1.0  0.40790  0.15500  0.56290  1.0000 -0.2691925403
O   O49       1.0  0.92710  0.72630  0.65340  1.0000 -0.509653629
O   O50       1.0  0.07290  0.72650  0.79940  1.0000 -0.5034192066
O   O51       1.0  0.84500  0.59250  0.43750  1.0000 -0.2558452796
O   O52       1.0  0.15500  0.59210  0.74710  1.0000 -0.2691925403
O   O53       1.0  0.07290  0.27370  0.34660  1.0000 -0.509653629
O   O54       1.0  0.92710  0.27350  0.20060  1.0000 -0.5034192066
O   O55       1.0  0.15500  0.40750  0.56250  1.0000 -0.2504987608
O   O56       1.0  0.84500  0.40790  0.25290  1.0000 -0.2691925403
