# DDEC6 charges by PACMAN v1.1 (https://github.com/mtap-research/PACMAN-charge/)
data_2022[Cd][nan]2[ASR]1
_chemical_formula_sum              "Cd4 H152 C162 N6 O32"
_cell_length_a       12.403
_cell_length_b       19.153
_cell_length_c       20.734
_cell_angle_alpha    85.913
_cell_angle_beta     77.441
_cell_angle_gamma    72.709

_symmetry_space_group_name_H-M    "P 1"
_symmetry_Int_Tables_number       1

loop_
  _symmetry_equiv_pos_as_xyz
  'x, y, z'

loop_
  _atom_site_type_symbol
  _atom_site_label
  _atom_site_symmetry_multiplicity
  _atom_site_fract_x
  _atom_site_fract_y
  _atom_site_fract_z
  _atom_site_occupancy
  _atom_site_charge
Cd  Cd1       1.0  0.44632  0.00467  0.26519  1.0000 0.8758576987
Cd  Cd2       1.0  0.37388  0.21173  0.26209  1.0000 1.01530807
Cd  Cd3       1.0  0.55368  0.99533  0.73481  1.0000 0.8758576987
Cd  Cd4       1.0  0.62612  0.78827  0.73791  1.0000 1.01530807
H   H1        1.0  0.25780  0.42310  0.45830  1.0000 0.1290376157
H   H2        1.0  0.13500  0.45390  0.44150  1.0000 0.1204275291
H   H3        1.0  0.19450  0.36940  0.44100  1.0000 0.1290376157
H   H4        1.0  0.99750  0.39140  0.45530  1.0000 0.1290376157
H   H5        1.0  0.84370  0.38030  0.67830  1.0000 0.1204275291
H   H6        1.0  0.89490  0.36290  0.39010  1.0000 0.1204275291
H   H7        1.0  0.80090  0.43820  0.40990  1.0000 0.1204275291
H   H8        1.0  0.84620  0.31670  0.30010  1.0000 0.1204275291
H   H9        1.0  0.72320  0.27300  0.25740  1.0000 0.1107747605
H   H10       1.0  0.46710  0.36430  0.40520  1.0000 0.1204275291
H   H11       1.0  0.59170  0.40330  0.44890  1.0000 0.135870072
H   H12       1.0  0.13490  0.37620  0.64290  1.0000 0.1002629459
H   H13       1.0  0.04390  0.50560  0.63700  1.0000 0.0800031358
H   H14       1.0  0.96480  0.49960  0.70600  1.0000 0.0870752046
H   H15       1.0  0.11880  0.53900  0.72020  1.0000 0.1107747605
H   H16       1.0  0.20700  0.46880  0.68500  1.0000 0.1204275291
H   H17       1.0  0.12820  0.46210  0.75400  1.0000 0.1204275291
H   H18       1.0  0.07130  0.18210  0.77370  1.0000 0.1290376157
H   H19       1.0  0.95080  0.43260  0.79320  1.0000 0.1204275291
H   H20       1.0  0.97270  0.13100  0.93460  1.0000 0.1204275291
H   H21       1.0  0.06960  0.12690  0.87110  1.0000 0.1204275291
H   H22       1.0  0.94110  0.14160  0.86460  1.0000 0.1002629459
H   H23       1.0  0.99460  0.23260  0.62870  1.0000 0.1107747605
H   H24       1.0  0.05870  0.16330  0.66560  1.0000 0.1002629459
H   H25       1.0  0.19320  0.26030  0.53500  1.0000 0.1107747605
H   H26       1.0  0.29230  0.21250  0.43200  1.0000 0.1290376157
H   H27       1.0  0.22070  0.02440  0.48240  1.0000 0.1204275291
H   H28       1.0  0.12100  0.07190  0.58500  1.0000 0.1107747605
H   H29       1.0  0.94000  0.33760  0.94500  1.0000 0.1002629459
H   H30       1.0  0.90290  0.47910  0.88970  1.0000 0.0800031358
H   H31       1.0  0.88060  0.46540  0.96630  1.0000 0.0870752046
H   H32       1.0  0.06390  0.48170  0.92990  1.0000 0.1107747605
H   H33       1.0  0.09950  0.41550  0.88160  1.0000 0.1204275291
H   H34       1.0  0.07710  0.40220  0.95820  1.0000 0.1290376157
H   H35       1.0  0.73810  0.38170  0.84280  1.0000 0.1204275291
H   H36       1.0  0.57110  0.39140  0.06480  1.0000 0.1290376157
H   H37       1.0  0.28710  0.41060  0.06140  1.0000 0.1290376157
H   H38       1.0  0.37350  0.45120  0.07340  1.0000 0.1204275291
H   H39       1.0  0.40220  0.36620  0.08270  1.0000 0.1290376157
H   H40       1.0  0.77480  0.28410  0.08250  1.0000 0.1107747605
H   H41       1.0  0.71160  0.35090  0.12990  1.0000 0.1204275291
H   H42       1.0  0.88890  0.20910  0.15370  1.0000 0.1204275291
H   H43       1.0  0.04710  0.18230  0.20360  1.0000 0.1204275291
H   H44       1.0  0.07470  0.38280  0.15790  1.0000 0.1204275291
H   H45       1.0  0.91480  0.40880  0.11120  1.0000 0.1290376157
H   H46       1.0  0.45470  0.36650  0.87850  1.0000 0.1002629459
H   H47       1.0  0.42090  0.49530  0.88250  1.0000 0.0870752046
H   H48       1.0  0.50730  0.49090  0.81450  1.0000 0.0870752046
H   H49       1.0  0.31840  0.52870  0.79760  1.0000 0.1107747605
H   H50       1.0  0.29560  0.45730  0.83190  1.0000 0.1290376157
H   H51       1.0  0.38220  0.45270  0.76380  1.0000 0.1204275291
H   H52       1.0  0.70410  0.17240  0.75400  1.0000 0.1204275291
H   H53       1.0  0.58590  0.42200  0.72800  1.0000 0.1204275291
H   H54       1.0  0.84180  0.11340  0.59760  1.0000 0.1290376157
H   H55       1.0  0.73490  0.11820  0.65550  1.0000 0.1204275291
H   H56       1.0  0.85140  0.12220  0.67060  1.0000 0.1107747605
H   H57       1.0  0.73730  0.18190  0.87780  1.0000 0.1107747605
H   H58       1.0  0.67140  0.13610  0.85040  1.0000 0.1002629459
H   H59       1.0  0.62450  0.05200  0.92540  1.0000 0.1204275291
H   H60       1.0  0.57420  0.00810  0.02940  1.0000 0.1204275291
H   H61       1.0  0.55000  0.19910  0.10400  1.0000 0.1290376157
H   H62       1.0  0.61130  0.24040  0.99980  1.0000 0.1204275291
H   H63       1.0  0.69040  0.32580  0.57780  1.0000 0.1002629459
H   H64       1.0  0.59080  0.46870  0.63070  1.0000 0.0870752046
H   H65       1.0  0.62020  0.45320  0.55480  1.0000 0.0800031358
H   H66       1.0  0.42470  0.46960  0.59640  1.0000 0.1107747605
H   H67       1.0  0.45360  0.40420  0.64590  1.0000 0.1290376157
H   H68       1.0  0.48250  0.38970  0.56970  1.0000 0.1204275291
H   H69       1.0  0.71040  0.89140  0.30130  1.0000 0.1204275291
H   H70       1.0  0.62270  0.10090  0.27600  1.0000 0.1290376157
H   H71       1.0  0.75120  0.08330  0.14520  1.0000 0.1204275291
H   H72       1.0  0.81230  0.05180  0.03630  1.0000 0.1107747605
H   H73       1.0  0.13420  0.98900  0.05950  1.0000 0.1107747605
H   H74       1.0  0.07250  0.02130  0.17000  1.0000 0.1204275291
H   H75       1.0  0.92750  0.05150  0.26540  1.0000 0.1290376157
H   H76       1.0  0.82840  0.11960  0.24990  1.0000 0.1290376157
H   H77       1.0  0.74220  0.57690  0.54170  1.0000 0.1290376157
H   H78       1.0  0.86500  0.54610  0.55850  1.0000 0.1204275291
H   H79       1.0  0.80550  0.63060  0.55900  1.0000 0.1290376157
H   H80       1.0  0.00250  0.60860  0.54470  1.0000 0.1290376157
H   H81       1.0  0.15630  0.61970  0.32170  1.0000 0.1204275291
H   H82       1.0  0.10510  0.63710  0.60990  1.0000 0.1204275291
H   H83       1.0  0.19910  0.56180  0.59010  1.0000 0.1204275291
H   H84       1.0  0.15380  0.68330  0.69990  1.0000 0.1204275291
H   H85       1.0  0.27680  0.72700  0.74260  1.0000 0.1107747605
H   H86       1.0  0.53290  0.63570  0.59480  1.0000 0.1204275291
H   H87       1.0  0.40830  0.59670  0.55110  1.0000 0.135870072
H   H88       1.0  0.86510  0.62380  0.35710  1.0000 0.1002629459
H   H89       1.0  0.95610  0.49440  0.36300  1.0000 0.0800031358
H   H90       1.0  0.03520  0.50040  0.29400  1.0000 0.0870752046
H   H91       1.0  0.88120  0.46100  0.27980  1.0000 0.1107747605
H   H92       1.0  0.79300  0.53120  0.31500  1.0000 0.1204275291
H   H93       1.0  0.87180  0.53790  0.24600  1.0000 0.1204275291
H   H94       1.0  0.92870  0.81790  0.22630  1.0000 0.1290376157
H   H95       1.0  0.04920  0.56740  0.20680  1.0000 0.1204275291
H   H96       1.0  0.02730  0.86900  0.06540  1.0000 0.1204275291
H   H97       1.0  0.93040  0.87310  0.12890  1.0000 0.1204275291
H   H98       1.0  0.05890  0.85840  0.13540  1.0000 0.1002629459
H   H99       1.0  0.00540  0.76740  0.37130  1.0000 0.1107747605
H   H100      1.0  0.94130  0.83670  0.33440  1.0000 0.1002629459
H   H101      1.0  0.80680  0.73970  0.46500  1.0000 0.1107747605
H   H102      1.0  0.70770  0.78750  0.56800  1.0000 0.1290376157
H   H103      1.0  0.77930  0.97560  0.51760  1.0000 0.1204275291
H   H104      1.0  0.87900  0.92810  0.41500  1.0000 0.1107747605
H   H105      1.0  0.06000  0.66240  0.05500  1.0000 0.1002629459
H   H106      1.0  0.09710  0.52090  0.11030  1.0000 0.0800031358
H   H107      1.0  0.11940  0.53460  0.03370  1.0000 0.0870752046
H   H108      1.0  0.93610  0.51830  0.07010  1.0000 0.1107747605
H   H109      1.0  0.90050  0.58450  0.11840  1.0000 0.1204275291
H   H110      1.0  0.92290  0.59780  0.04180  1.0000 0.1290376157
H   H111      1.0  0.26190  0.61830  0.15720  1.0000 0.1204275291
H   H112      1.0  0.42890  0.60860  0.93520  1.0000 0.1290376157
H   H113      1.0  0.71290  0.58940  0.93860  1.0000 0.1290376157
H   H114      1.0  0.62650  0.54880  0.92660  1.0000 0.1204275291
H   H115      1.0  0.59780  0.63380  0.91730  1.0000 0.1290376157
H   H116      1.0  0.22520  0.71590  0.91750  1.0000 0.1107747605
H   H117      1.0  0.28840  0.64910  0.87010  1.0000 0.1204275291
H   H118      1.0  0.11110  0.79090  0.84630  1.0000 0.1204275291
H   H119      1.0  0.95290  0.81770  0.79640  1.0000 0.1204275291
H   H120      1.0  0.92530  0.61720  0.84210  1.0000 0.1204275291
H   H121      1.0  0.08520  0.59120  0.88880  1.0000 0.1290376157
H   H122      1.0  0.54530  0.63350  0.12150  1.0000 0.1002629459
H   H123      1.0  0.57910  0.50470  0.11750  1.0000 0.0870752046
H   H124      1.0  0.49270  0.50910  0.18550  1.0000 0.0870752046
H   H125      1.0  0.68160  0.47130  0.20240  1.0000 0.1107747605
H   H126      1.0  0.70440  0.54270  0.16810  1.0000 0.1290376157
H   H127      1.0  0.61780  0.54730  0.23620  1.0000 0.1204275291
H   H128      1.0  0.29590  0.82760  0.24600  1.0000 0.1204275291
H   H129      1.0  0.41410  0.57800  0.27200  1.0000 0.1204275291
H   H130      1.0  0.15820  0.88660  0.40240  1.0000 0.1290376157
H   H131      1.0  0.26510  0.88180  0.34450  1.0000 0.1204275291
H   H132      1.0  0.14860  0.87780  0.32940  1.0000 0.1107747605
H   H133      1.0  0.26270  0.81810  0.12220  1.0000 0.1107747605
H   H134      1.0  0.32860  0.86390  0.14960  1.0000 0.1002629459
H   H135      1.0  0.37550  0.94800  0.07460  1.0000 0.1204275291
H   H136      1.0  0.42580  0.99190  0.97060  1.0000 0.1204275291
H   H137      1.0  0.45000  0.80090  0.89600  1.0000 0.1290376157
H   H138      1.0  0.38870  0.75960  0.00020  1.0000 0.1204275291
H   H139      1.0  0.30960  0.67420  0.42220  1.0000 0.1002629459
H   H140      1.0  0.40920  0.53130  0.36930  1.0000 0.0870752046
H   H141      1.0  0.37980  0.54680  0.44520  1.0000 0.0800031358
H   H142      1.0  0.57530  0.53040  0.40360  1.0000 0.1107747605
H   H143      1.0  0.54640  0.59580  0.35410  1.0000 0.1290376157
H   H144      1.0  0.51750  0.61030  0.43030  1.0000 0.1204275291
H   H145      1.0  0.28960  0.10860  0.69870  1.0000 0.1204275291
H   H146      1.0  0.37730  0.89910  0.72400  1.0000 0.1290376157
H   H147      1.0  0.24880  0.91670  0.85480  1.0000 0.1204275291
H   H148      1.0  0.18770  0.94820  0.96370  1.0000 0.1107747605
H   H149      1.0  0.86580  0.01100  0.94050  1.0000 0.1107747605
H   H150      1.0  0.92750  0.97870  0.83000  1.0000 0.1204275291
H   H151      1.0  0.07250  0.94850  0.73460  1.0000 0.1290376157
H   H152      1.0  0.17160  0.88040  0.75010  1.0000 0.1290376157
C   C1        1.0  0.18420  0.41450  0.46220  1.0000 -0.2309703911
C   C2        1.0  0.02700  0.39820  0.54660  1.0000 0.1997466388
C   C3        1.0  0.96660  0.38900  0.50020  1.0000 -0.3803149956
C   C4        1.0  0.86050  0.37630  0.52130  1.0000 0.1997466388
C   C5        1.0  0.81080  0.37330  0.58880  1.0000 -0.0280959538
C   C6        1.0  0.87520  0.38190  0.63340  1.0000 -0.2034601939
C   C7        1.0  0.98300  0.39270  0.61490  1.0000 -0.0280959538
C   C8        1.0  0.81590  0.38550  0.41260  1.0000 -0.0596156963
C   C9        1.0  0.73260  0.36230  0.38120  1.0000 0.0870752046
C   C10       1.0  0.77000  0.32480  0.32250  1.0000 -0.160200269
C   C11       1.0  0.69590  0.29910  0.29670  1.0000 -0.1096604692
C   C12       1.0  0.58410  0.31090  0.32740  1.0000 -0.0209481657
C   C13       1.0  0.54460  0.35260  0.38450  1.0000 -0.1096604692
C   C14       1.0  0.61930  0.37640  0.41010  1.0000 -0.1390181939
C   C15       1.0  0.50440  0.27900  0.30250  1.0000 0.5403994498
C   C16       1.0  0.05390  0.39770  0.66420  1.0000 -0.0596156963
C   C17       1.0  0.04030  0.47860  0.67840  1.0000 -0.1522711846
C   C18       1.0  0.13210  0.48800  0.71260  1.0000 -0.3898607763
C   C19       1.0  0.03120  0.35250  0.72670  1.0000 -0.0209481657
C   C20       1.0  0.06550  0.27660  0.72230  1.0000 0.1918499795
C   C21       1.0  0.04730  0.23270  0.77760  1.0000 -0.3704337152
C   C22       1.0  0.99320  0.26500  0.83840  1.0000 0.1997466388
C   C23       1.0  0.95820  0.34030  0.84510  1.0000 -0.0209481657
C   C24       1.0  0.97640  0.38200  0.78920  1.0000 -0.1900688419
C   C25       1.0  0.99060  0.15040  0.89100  1.0000 -0.2206270295
C   C26       1.0  0.06970  0.20260  0.63500  1.0000 -0.0596156963
C   C27       1.0  0.14250  0.17090  0.56980  1.0000 0.0870752046
C   C28       1.0  0.19700  0.21310  0.52440  1.0000 -0.1390181939
C   C29       1.0  0.25730  0.18390  0.46280  1.0000 -0.1011441769
C   C30       1.0  0.26630  0.11410  0.44640  1.0000 -0.0209481657
C   C31       1.0  0.21490  0.07220  0.49240  1.0000 -0.1011441769
C   C32       1.0  0.15420  0.10110  0.55400  1.0000 -0.160200269
C   C33       1.0  0.33120  0.08250  0.37970  1.0000 0.5822123465
C   C34       1.0  0.90290  0.37280  0.91400  1.0000 -0.0536232004
C   C35       1.0  0.92670  0.44470  0.92430  1.0000 -0.160200269
C   C36       1.0  0.05350  0.43520  0.92340  1.0000 -0.3803149956
C   C37       1.0  0.77390  0.37850  0.93360  1.0000 -0.0280959538
C   C38       1.0  0.70470  0.38260  0.88760  1.0000 -0.2092717908
C   C39       1.0  0.58800  0.38790  0.90630  1.0000 -0.0209481657
C   C40       1.0  0.53790  0.39170  0.97390  1.0000 0.1918499795
C   C41       1.0  0.60450  0.38870  0.02000  1.0000 -0.3898607763
C   C42       1.0  0.72040  0.38150  0.99930  1.0000 0.1723069427
C   C43       1.0  0.36710  0.40720  0.05730  1.0000 -0.2206270295
C   C44       1.0  0.78100  0.32930  0.09740  1.0000 -0.0424739039
C   C45       1.0  0.88460  0.31360  0.12860  1.0000 0.0743347434
C   C46       1.0  0.92540  0.24460  0.15550  1.0000 -0.1803021751
C   C47       1.0  0.02050  0.22830  0.18530  1.0000 -0.1011441769
C   C48       1.0  0.07500  0.28130  0.18730  1.0000 -0.0209481657
C   C49       1.0  0.03650  0.34760  0.15850  1.0000 -0.1096604692
C   C50       1.0  0.94070  0.36290  0.12990  1.0000 -0.1390181939
C   C51       1.0  0.18160  0.26310  0.21550  1.0000 0.5403994498
C   C52       1.0  0.51460  0.38910  0.85660  1.0000 -0.0596156963
C   C53       1.0  0.45150  0.46870  0.84130  1.0000 -0.1522711846
C   C54       1.0  0.35270  0.47770  0.80530  1.0000 -0.3803149956
C   C55       1.0  0.58140  0.34290  0.79640  1.0000 -0.0086865714
C   C56       1.0  0.61930  0.26680  0.80250  1.0000 0.1918499795
C   C57       1.0  0.68020  0.22290  0.74870  1.0000 -0.3704337152
C   C58       1.0  0.70540  0.25370  0.68730  1.0000 0.1918499795
C   C59       1.0  0.66910  0.32890  0.67770  1.0000 -0.0209481657
C   C60       1.0  0.60900  0.37140  0.73330  1.0000 -0.2034601939
C   C61       1.0  0.80130  0.13540  0.63960  1.0000 -0.2309703911
C   C62       1.0  0.66240  0.17420  0.88130  1.0000 -0.0536232004
C   C63       1.0  0.62260  0.14880  0.95050  1.0000 0.0800031358
C   C64       1.0  0.61090  0.08200  0.96140  1.0000 -0.1522711846
C   C65       1.0  0.57940  0.05570  0.02370  1.0000 -0.1096604692
C   C66       1.0  0.55550  0.09950  0.07780  1.0000 -0.0209481657
C   C67       1.0  0.56650  0.16870  0.06790  1.0000 -0.1096604692
C   C68       1.0  0.60150  0.19400  0.00570  1.0000 -0.160200269
C   C69       1.0  0.51890  0.07000  0.14640  1.0000 0.5552619574
C   C70       1.0  0.69210  0.36180  0.60860  1.0000 -0.0596156963
C   C71       1.0  0.59660  0.43320  0.59810  1.0000 -0.160200269
C   C72       1.0  0.47860  0.42330  0.60300  1.0000 -0.3803149956
C   C73       1.0  0.71500  0.93890  0.29300  1.0000 0.135870072
C   C74       1.0  0.66520  0.05230  0.27940  1.0000 0.1002629459
C   C75       1.0  0.90620  0.05140  0.16830  1.0000 0.0870752046
C   C76       1.0  0.82940  0.06260  0.12820  1.0000 -0.160200269
C   C77       1.0  0.86660  0.04360  0.06280  1.0000 -0.1522711846
C   C78       1.0  0.97950  0.01340  0.03530  1.0000 0.0590688241
C   C79       1.0  0.05550  0.00690  0.07670  1.0000 -0.1803021751
C   C80       1.0  0.01910  0.02610  0.14350  1.0000 -0.160200269
C   C81       1.0  0.86310  0.06740  0.24310  1.0000 -0.1900688419
C   C82       1.0  0.81580  0.58550  0.53780  1.0000 -0.2309703911
C   C83       1.0  0.97300  0.60180  0.45340  1.0000 0.1997466388
C   C84       1.0  0.03340  0.61100  0.49980  1.0000 -0.3803149956
C   C85       1.0  0.13950  0.62370  0.47870  1.0000 0.1997466388
C   C86       1.0  0.18920  0.62670  0.41120  1.0000 -0.0280959538
C   C87       1.0  0.12480  0.61810  0.36660  1.0000 -0.2092717908
C   C88       1.0  0.01700  0.60730  0.38510  1.0000 -0.0280959538
C   C89       1.0  0.18410  0.61450  0.58740  1.0000 -0.0596156963
C   C90       1.0  0.26740  0.63770  0.61880  1.0000 0.0870752046
C   C91       1.0  0.23000  0.67520  0.67750  1.0000 -0.160200269
C   C92       1.0  0.30410  0.70090  0.70330  1.0000 -0.1096604692
C   C93       1.0  0.41590  0.68910  0.67260  1.0000 -0.0209481657
C   C94       1.0  0.45540  0.64740  0.61550  1.0000 -0.1096604692
C   C95       1.0  0.38070  0.62360  0.58990  1.0000 -0.1390181939
C   C96       1.0  0.49560  0.72100  0.69750  1.0000 0.5403994498
C   C97       1.0  0.94610  0.60230  0.33580  1.0000 -0.0596156963
C   C98       1.0  0.95970  0.52140  0.32160  1.0000 -0.1522711846
C   C99       1.0  0.86790  0.51200  0.28740  1.0000 -0.3898607763
C   C100      1.0  0.96880  0.64750  0.27330  1.0000 -0.0209481657
C   C101      1.0  0.93450  0.72340  0.27770  1.0000 0.1918499795
C   C102      1.0  0.95270  0.76730  0.22240  1.0000 -0.3704337152
C   C103      1.0  0.00680  0.73500  0.16160  1.0000 0.1997466388
C   C104      1.0  0.04180  0.65970  0.15490  1.0000 -0.0209481657
C   C105      1.0  0.02360  0.61800  0.21080  1.0000 -0.1900688419
C   C106      1.0  0.00940  0.84960  0.10900  1.0000 -0.2206270295
C   C107      1.0  0.93030  0.79740  0.36500  1.0000 -0.0596156963
C   C108      1.0  0.85750  0.82910  0.43020  1.0000 0.0870752046
C   C109      1.0  0.80300  0.78690  0.47560  1.0000 -0.1390181939
C   C110      1.0  0.74270  0.81610  0.53720  1.0000 -0.1011441769
C   C111      1.0  0.73370  0.88590  0.55360  1.0000 -0.0209481657
C   C112      1.0  0.78510  0.92780  0.50760  1.0000 -0.1011441769
C   C113      1.0  0.84580  0.89890  0.44600  1.0000 -0.160200269
C   C114      1.0  0.66880  0.91750  0.62030  1.0000 0.5822123465
C   C115      1.0  0.09710  0.62720  0.08600  1.0000 -0.0596156963
C   C116      1.0  0.07330  0.55530  0.07570  1.0000 -0.160200269
C   C117      1.0  0.94650  0.56480  0.07660  1.0000 -0.3803149956
C   C118      1.0  0.22610  0.62150  0.06640  1.0000 -0.0209481657
C   C119      1.0  0.29530  0.61740  0.11240  1.0000 -0.2092717908
C   C120      1.0  0.41200  0.61210  0.09370  1.0000 -0.0209481657
C   C121      1.0  0.46210  0.60830  0.02610  1.0000 0.1918499795
C   C122      1.0  0.39550  0.61130  0.98000  1.0000 -0.3898607763
C   C123      1.0  0.27960  0.61850  0.00070  1.0000 0.1723069427
C   C124      1.0  0.63290  0.59280  0.94270  1.0000 -0.2206270295
C   C125      1.0  0.21900  0.67070  0.90260  1.0000 -0.0424739039
C   C126      1.0  0.11540  0.68640  0.87140  1.0000 0.0743347434
C   C127      1.0  0.07460  0.75540  0.84450  1.0000 -0.1803021751
C   C128      1.0  0.97950  0.77170  0.81470  1.0000 -0.1011441769
C   C129      1.0  0.92500  0.71870  0.81270  1.0000 -0.0209481657
C   C130      1.0  0.96350  0.65240  0.84150  1.0000 -0.1096604692
C   C131      1.0  0.05930  0.63710  0.87010  1.0000 -0.1390181939
C   C132      1.0  0.81840  0.73690  0.78450  1.0000 0.5403994498
C   C133      1.0  0.48540  0.61090  0.14340  1.0000 -0.0596156963
C   C134      1.0  0.54850  0.53130  0.15870  1.0000 -0.1522711846
C   C135      1.0  0.64730  0.52230  0.19470  1.0000 -0.3803149956
C   C136      1.0  0.41860  0.65710  0.20360  1.0000 -0.0086865714
C   C137      1.0  0.38070  0.73320  0.19750  1.0000 0.1918499795
C   C138      1.0  0.31980  0.77710  0.25130  1.0000 -0.3704337152
C   C139      1.0  0.29460  0.74630  0.31270  1.0000 0.1918499795
C   C140      1.0  0.33090  0.67110  0.32230  1.0000 -0.0209481657
C   C141      1.0  0.39100  0.62860  0.26670  1.0000 -0.2034601939
C   C142      1.0  0.19870  0.86460  0.36040  1.0000 -0.2309703911
C   C143      1.0  0.33760  0.82580  0.11870  1.0000 -0.0536232004
C   C144      1.0  0.37740  0.85120  0.04950  1.0000 0.0800031358
C   C145      1.0  0.38910  0.91800  0.03860  1.0000 -0.1522711846
C   C146      1.0  0.42060  0.94430  0.97630  1.0000 -0.1096604692
C   C147      1.0  0.44450  0.90050  0.92220  1.0000 -0.0209481657
C   C148      1.0  0.43350  0.83130  0.93210  1.0000 -0.1096604692
C   C149      1.0  0.39850  0.80600  0.99430  1.0000 -0.160200269
C   C150      1.0  0.48110  0.93000  0.85360  1.0000 0.5552619574
C   C151      1.0  0.30790  0.63820  0.39140  1.0000 -0.0596156963
C   C152      1.0  0.40340  0.56680  0.40190  1.0000 -0.160200269
C   C153      1.0  0.52140  0.57670  0.39700  1.0000 -0.3803149956
C   C154      1.0  0.28500  0.06110  0.70700  1.0000 0.135870072
C   C155      1.0  0.33480  0.94770  0.72060  1.0000 0.1002629459
C   C156      1.0  0.09380  0.94860  0.83170  1.0000 0.0870752046
C   C157      1.0  0.17060  0.93740  0.87180  1.0000 -0.160200269
C   C158      1.0  0.13340  0.95640  0.93720  1.0000 -0.1522711846
C   C159      1.0  0.02050  0.98660  0.96470  1.0000 0.0590688241
C   C160      1.0  0.94450  0.99310  0.92330  1.0000 -0.1803021751
C   C161      1.0  0.98090  0.97390  0.85650  1.0000 -0.160200269
C   C162      1.0  0.13690  0.93260  0.75690  1.0000 -0.1900688419
N   N1        1.0  0.77930  0.02900  0.26990  1.0000 0.1594715295
N   N2        1.0  0.62020  0.99790  0.29420  1.0000 -0.3290496888
N   N3        1.0  0.81290  0.95500  0.27920  1.0000 -0.2779411348
N   N4        1.0  0.22070  0.97100  0.73010  1.0000 0.1594715295
N   N5        1.0  0.37980  0.00210  0.70580  1.0000 -0.3290496888
N   N6        1.0  0.18710  0.04500  0.72080  1.0000 -0.2779411348
O   O1        1.0  0.13310  0.41030  0.52990  1.0000 -0.160200269
O   O2        1.0  0.79820  0.36220  0.47930  1.0000 -0.1712126853
O   O3        1.0  0.54680  0.23570  0.25330  1.0000 -0.5848960104
O   O4        1.0  0.40160  0.29140  0.33190  1.0000 -0.5416366282
O   O5        1.0  0.97360  0.22530  0.89460  1.0000 -0.1390181939
O   O6        1.0  0.12510  0.24550  0.66140  1.0000 -0.1803021751
O   O7        1.0  0.37860  0.12020  0.33790  1.0000 -0.5724008801
O   O8        1.0  0.33690  0.01800  0.36900  1.0000 -0.5416366282
O   O9        1.0  0.42320  0.39780  0.99070  1.0000 -0.1390181939
O   O10       1.0  0.79040  0.37620  0.04510  1.0000 -0.1712126853
O   O11       1.0  0.25740  0.29270  0.19530  1.0000 -0.5314839604
O   O12       1.0  0.19520  0.21200  0.25800  1.0000 -0.5416366282
O   O13       1.0  0.76530  0.21290  0.63210  1.0000 -0.1522711846
O   O14       1.0  0.58780  0.23730  0.86400  1.0000 -0.1390181939
O   O15       1.0  0.46970  0.11290  0.19240  1.0000 -0.5517434003
O   O16       1.0  0.53690  0.00280  0.15370  1.0000 -0.5416366282
O   O17       1.0  0.86690  0.58970  0.47010  1.0000 -0.160200269
O   O18       1.0  0.20180  0.63780  0.52070  1.0000 -0.1712126853
O   O19       1.0  0.45320  0.76430  0.74670  1.0000 -0.5848960104
O   O20       1.0  0.59840  0.70860  0.66810  1.0000 -0.5416366282
O   O21       1.0  0.02640  0.77470  0.10540  1.0000 -0.1390181939
O   O22       1.0  0.87490  0.75450  0.33860  1.0000 -0.1803021751
O   O23       1.0  0.62140  0.87980  0.66210  1.0000 -0.5724008801
O   O24       1.0  0.66310  0.98200  0.63100  1.0000 -0.5416366282
O   O25       1.0  0.57680  0.60220  0.00930  1.0000 -0.1390181939
O   O26       1.0  0.20960  0.62380  0.95490  1.0000 -0.1712126853
O   O27       1.0  0.74260  0.70730  0.80470  1.0000 -0.5314839604
O   O28       1.0  0.80480  0.78800  0.74200  1.0000 -0.5416366282
O   O29       1.0  0.23470  0.78710  0.36790  1.0000 -0.1522711846
O   O30       1.0  0.41220  0.76270  0.13600  1.0000 -0.1390181939
O   O31       1.0  0.53030  0.88710  0.80760  1.0000 -0.5517434003
O   O32       1.0  0.46310  0.99720  0.84630  1.0000 -0.5416366282
