# DDEC6 charges by PACMAN v1.1 (https://github.com/mtap-research/PACMAN-charge/)
data_2022[Zn][nan]3[ASR]14
_chemical_formula_sum              "Zn4 H24 C40 N8 O8"
_cell_length_a       11.7545
_cell_length_b       11.7545
_cell_length_c       11.7545
_cell_angle_alpha    106.001
_cell_angle_beta     106.001
_cell_angle_gamma    116.66

_symmetry_space_group_name_H-M    "P 1"
_symmetry_Int_Tables_number       1

loop_
  _symmetry_equiv_pos_as_xyz
  'x, y, z'

loop_
  _atom_site_type_symbol
  _atom_site_label
  _atom_site_symmetry_multiplicity
  _atom_site_fract_x
  _atom_site_fract_y
  _atom_site_fract_z
  _atom_site_occupancy
  _atom_site_charge
Zn  Zn1       1.0  0.00510  0.59642  0.90252  1.0000 0.7397409404
Zn  Zn2       1.0  0.69390  0.10258  0.09748  1.0000 0.7397409404
Zn  Zn3       1.0  0.35258  0.75510  0.90868  1.0000 0.7397409404
Zn  Zn4       1.0  0.84642  0.44390  0.09132  1.0000 0.7397409404
H   H1        1.0  0.34081  0.07782  0.86081  1.0000 0.1083261167
H   H2        1.0  0.33426  0.25998  0.83250  1.0000 0.1048185999
H   H3        1.0  0.95076  0.09264  0.82360  1.0000 0.1083261167
H   H4        1.0  0.94736  0.89606  0.82104  1.0000 0.1172823148
H   H5        1.0  0.96651  0.29715  0.84504  1.0000 0.1083261167
H   H6        1.0  0.33719  0.46026  0.84463  1.0000 0.1172823148
H   H7        1.0  0.21701  0.48000  0.13919  1.0000 0.1083261167
H   H8        1.0  0.42748  0.50176  0.16750  1.0000 0.1048185999
H   H9        1.0  0.26904  0.12716  0.17640  1.0000 0.1083261167
H   H10       1.0  0.07502  0.12632  0.17896  1.0000 0.1172823148
H   H11       1.0  0.45211  0.12147  0.15496  1.0000 0.1083261167
H   H12       1.0  0.61563  0.49256  0.15537  1.0000 0.1172823148
H   H13       1.0  0.73000  0.09081  0.76299  1.0000 0.1083261167
H   H14       1.0  0.75176  0.08426  0.57428  1.0000 0.1048185999
H   H15       1.0  0.37716  0.70076  0.35812  1.0000 0.1083261167
H   H16       1.0  0.37632  0.69736  0.55130  1.0000 0.1172823148
H   H17       1.0  0.37147  0.71651  0.16936  1.0000 0.1083261167
H   H18       1.0  0.74256  0.08719  0.37693  1.0000 0.1172823148
H   H19       1.0  0.32782  0.96701  0.23701  1.0000 0.1083261167
H   H20       1.0  0.50998  0.17748  0.42572  1.0000 0.1083261167
H   H21       1.0  0.34264  0.01904  0.64188  1.0000 0.1083261167
H   H22       1.0  0.14606  0.82502  0.44870  1.0000 0.1172823148
H   H23       1.0  0.54715  0.20211  0.83064  1.0000 0.1083261167
H   H24       1.0  0.71026  0.36563  0.62307  1.0000 0.1172823148
C   C1        1.0  0.13540  0.83460  0.85900  1.0000 0.5532893116
C   C2        1.0  0.14150  0.96110  0.83800  1.0000 -0.0289902644
C   C3        1.0  0.25820  0.07640  0.84640  1.0000 -0.1186912333
C   C4        1.0  0.25710  0.18870  0.83440  1.0000 -0.1538495918
C   C5        1.0  0.14040  0.19560  0.82520  1.0000 0.0906006942
C   C6        1.0  0.02790  0.08780  0.82510  1.0000 -0.1383958583
C   C7        1.0  0.02810  0.97120  0.82730  1.0000 -0.1306669836
C   C8        1.0  0.14590  0.32430  0.83180  1.0000 -0.0177932404
C   C9        1.0  0.05220  0.35870  0.84670  1.0000 -0.0854134907
C   C10       1.0  0.25380  0.44880  0.84520  1.0000 -0.0543308308
C   C11       1.0  0.97560  0.27640  0.14100  1.0000 0.5532893116
C   C12       1.0  0.12310  0.30350  0.16200  1.0000 -0.0289902644
C   C13       1.0  0.23000  0.41180  0.15360  1.0000 -0.1186912333
C   C14       1.0  0.35430  0.42270  0.16560  1.0000 -0.1538495918
C   C15       1.0  0.37040  0.31520  0.17480  1.0000 0.0906006942
C   C16       1.0  0.26270  0.20280  0.17490  1.0000 -0.1383958583
C   C17       1.0  0.14390  0.20080  0.17270  1.0000 -0.1306669836
C   C18       1.0  0.49250  0.31410  0.16820  1.0000 -0.0177932404
C   C19       1.0  0.51200  0.20550  0.15330  1.0000 -0.0854134907
C   C20       1.0  0.60360  0.40860  0.15480  1.0000 -0.0556615976
C   C21       1.0  0.52640  0.88540  0.80080  1.0000 0.5532893116
C   C22       1.0  0.55350  0.89150  0.68040  1.0000 -0.0289902644
C   C23       1.0  0.66180  0.00820  0.68180  1.0000 -0.1186912333
C   C24       1.0  0.67270  0.00710  0.56840  1.0000 -0.1538495918
C   C25       1.0  0.56520  0.89040  0.44480  1.0000 0.0906006942
C   C26       1.0  0.45280  0.77790  0.44010  1.0000 -0.1383958583
C   C27       1.0  0.45080  0.77810  0.55690  1.0000 -0.1306669836
C   C28       1.0  0.56410  0.89590  0.32160  1.0000 -0.0177932404
C   C29       1.0  0.45550  0.80220  0.19350  1.0000 -0.0854134907
C   C30       1.0  0.65860  0.00380  0.30500  1.0000 -0.0543308308
C   C31       1.0  0.08460  0.72560  0.19920  1.0000 0.5532893116
C   C32       1.0  0.21110  0.87310  0.31960  1.0000 -0.0289902644
C   C33       1.0  0.32640  0.98000  0.31820  1.0000 -0.1186912333
C   C34       1.0  0.43870  0.10430  0.43160  1.0000 -0.1538495918
C   C35       1.0  0.44560  0.12040  0.55520  1.0000 0.0906006942
C   C36       1.0  0.33780  0.01270  0.55990  1.0000 -0.1383958583
C   C37       1.0  0.22120  0.89390  0.44310  1.0000 -0.1306669836
C   C38       1.0  0.57430  0.24250  0.67840  1.0000 -0.0177932404
C   C39       1.0  0.60870  0.26200  0.80650  1.0000 -0.0854134907
C   C40       1.0  0.69880  0.35360  0.69500  1.0000 -0.0543308308
N   N1        1.0  0.10180  0.49830  0.86490  1.0000 -0.2361294379
N   N2        1.0  0.23220  0.55170  0.85930  1.0000 -0.2005934243
N   N3        1.0  0.63340  0.23690  0.13510  1.0000 -0.2361294379
N   N4        1.0  0.69240  0.37290  0.14070  1.0000 -0.2005934243
N   N5        1.0  0.48690  0.85180  0.10350  1.0000 -0.2361294379
N   N6        1.0  0.62290  0.98220  0.18050  1.0000 -0.2005934243
N   N7        1.0  0.74830  0.38340  0.89650  1.0000 -0.2361294379
N   N8        1.0  0.80170  0.44240  0.81950  1.0000 -0.2005934243
O   O1        1.0  0.03970  0.73930  0.84520  1.0000 -0.3595394542
O   O2        1.0  0.25740  0.85300  0.89120  1.0000 -0.5241429035
O   O3        1.0  0.89410  0.19450  0.15480  1.0000 -0.3595394542
O   O4        1.0  0.96180  0.36620  0.10880  1.0000 -0.5241429035
O   O5        1.0  0.44450  0.78970  0.80040  1.0000 -0.3595394542
O   O6        1.0  0.61620  0.00740  0.90440  1.0000 -0.5241429035
O   O7        1.0  0.98930  0.64410  0.19960  1.0000 -0.3595394542
O   O8        1.0  0.10300  0.71180  0.09560  1.0000 -0.5241429035
