# DDEC6 charges by PACMAN v1.1 (https://github.com/mtap-research/PACMAN-charge/)
data_2022[Eu][sqc]3[ASR]1
_chemical_formula_sum              "Eu4 H16 C48 O28"
_cell_length_a       12.4014
_cell_length_b       12.6959
_cell_length_c       13.6905
_cell_angle_alpha    84.521
_cell_angle_beta     107.932
_cell_angle_gamma    108.982

_symmetry_space_group_name_H-M    "P 1"
_symmetry_Int_Tables_number       1

loop_
  _symmetry_equiv_pos_as_xyz
  'x, y, z'

loop_
  _atom_site_type_symbol
  _atom_site_label
  _atom_site_symmetry_multiplicity
  _atom_site_fract_x
  _atom_site_fract_y
  _atom_site_fract_z
  _atom_site_occupancy
  _atom_site_charge
Eu  Eu1       1.0  0.18058  0.73697  0.18318  1.0000 2.047742602
Eu  Eu2       1.0  0.01194  0.96376  0.20267  1.0000 2.0823088852
Eu  Eu3       1.0  0.81942  0.26303  0.81682  1.0000 2.047742602
Eu  Eu4       1.0  0.98806  0.03624  0.79733  1.0000 2.0823088852
H   H1        1.0  0.48580  0.90030  0.72940  1.0000 0.1389375464
H   H2        1.0  0.69670  0.68300  0.94220  1.0000 0.1298072976
H   H3        1.0  0.32040  0.38770  0.80080  1.0000 0.1507558175
H   H4        1.0  0.10160  0.41970  0.95350  1.0000 0.1298072976
H   H5        1.0  0.41630  0.66030  0.97700  1.0000 0.1389375464
H   H6        1.0  0.25560  0.80280  0.79660  1.0000 0.1507558175
H   H7        1.0  0.09640  0.91650  0.52510  1.0000 0.1389375464
H   H8        1.0  0.30070  0.72820  0.53470  1.0000 0.1507558175
H   H9        1.0  0.51420  0.09970  0.27060  1.0000 0.1389375464
H   H10       1.0  0.30330  0.31700  0.05780  1.0000 0.1298072976
H   H11       1.0  0.67960  0.61230  0.19920  1.0000 0.1507558175
H   H12       1.0  0.89840  0.58030  0.04650  1.0000 0.1298072976
H   H13       1.0  0.58370  0.33970  0.02300  1.0000 0.1389375464
H   H14       1.0  0.74440  0.19720  0.20340  1.0000 0.1507558175
H   H15       1.0  0.90360  0.08350  0.47490  1.0000 0.1389375464
H   H16       1.0  0.69930  0.27180  0.46530  1.0000 0.1507558175
C   C1        1.0  0.84090  0.88750  0.95460  1.0000 0.6249747244
C   C2        1.0  0.71170  0.83890  0.88810  1.0000 0.0075612178
C   C3        1.0  0.64720  0.90540  0.82690  1.0000 -0.0614629327
C   C4        1.0  0.52850  0.85730  0.77300  1.0000 -0.1997052251
C   C5        1.0  0.47290  0.74370  0.78430  1.0000 0.1389375464
C   C6        1.0  0.53700  0.68030  0.84660  1.0000 0.1507558175
C   C7        1.0  0.65470  0.72680  0.89900  1.0000 -0.2108603599
C   C8        1.0  0.70280  0.02430  0.81350  1.0000 0.6067246166
C   C9        1.0  0.38020  0.53000  0.88190  1.0000 0.2462083963
C   C10       1.0  0.30300  0.42890  0.84320  1.0000 -0.2108603599
C   C11       1.0  0.19580  0.38970  0.87010  1.0000 0.0026767668
C   C12       1.0  0.17240  0.44780  0.93600  1.0000 -0.1488028201
C   C13       1.0  0.25430  0.54860  0.97670  1.0000 0.0075612178
C   C14       1.0  0.36090  0.59260  0.95030  1.0000 -0.2244598004
C   C15       1.0  0.11230  0.27630  0.82810  1.0000 0.6015282837
C   C16       1.0  0.22970  0.61260  0.04760  1.0000 0.5726249781
C   C17       1.0  0.28640  0.75230  0.67470  1.0000 0.2382170898
C   C18       1.0  0.23870  0.80650  0.72560  1.0000 -0.1997052251
C   C19       1.0  0.16620  0.86530  0.66920  1.0000 0.0075612178
C   C20       1.0  0.14400  0.87450  0.56290  1.0000 -0.1051684502
C   C21       1.0  0.19270  0.82130  0.51580  1.0000 -0.0179490705
C   C22       1.0  0.26560  0.76170  0.56840  1.0000 -0.1928757263
C   C23       1.0  0.11180  0.92520  0.72000  1.0000 0.5453130869
C   C24       1.0  0.16610  0.83120  0.39930  1.0000 0.6558881966
C   C25       1.0  0.15910  0.11250  0.04540  1.0000 0.6263108221
C   C26       1.0  0.28830  0.16110  0.11190  1.0000 0.0075612178
C   C27       1.0  0.35280  0.09460  0.17310  1.0000 -0.0614629327
C   C28       1.0  0.47150  0.14270  0.22700  1.0000 -0.1997052251
C   C29       1.0  0.52710  0.25630  0.21570  1.0000 0.1389375464
C   C30       1.0  0.46300  0.31970  0.15340  1.0000 0.1507558175
C   C31       1.0  0.34530  0.27320  0.10100  1.0000 -0.2108603599
C   C32       1.0  0.29720  0.97570  0.18650  1.0000 0.6067246166
C   C33       1.0  0.61980  0.47000  0.11810  1.0000 0.2462083963
C   C34       1.0  0.69700  0.57110  0.15680  1.0000 -0.2108603599
C   C35       1.0  0.80420  0.61030  0.12990  1.0000 0.0026767668
C   C36       1.0  0.82760  0.55220  0.06400  1.0000 -0.1488028201
C   C37       1.0  0.74570  0.45140  0.02330  1.0000 0.0075612178
C   C38       1.0  0.63910  0.40740  0.04970  1.0000 -0.2244598004
C   C39       1.0  0.88770  0.72370  0.17190  1.0000 0.6015282837
C   C40       1.0  0.77030  0.38740  0.95240  1.0000 0.5726249781
C   C41       1.0  0.71360  0.24770  0.32530  1.0000 0.2382170898
C   C42       1.0  0.76130  0.19350  0.27440  1.0000 -0.1997052251
C   C43       1.0  0.83380  0.13470  0.33080  1.0000 0.0075612178
C   C44       1.0  0.85600  0.12550  0.43710  1.0000 -0.1051684502
C   C45       1.0  0.80730  0.17870  0.48420  1.0000 -0.0179490705
C   C46       1.0  0.73440  0.23830  0.43160  1.0000 -0.1928757263
C   C47       1.0  0.88820  0.07480  0.28000  1.0000 0.5453130869
C   C48       1.0  0.83390  0.16880  0.60070  1.0000 0.6558881966
O   O1        1.0  0.85550  0.91460  0.04260  1.0000 -0.5966963502
O   O2        1.0  0.92280  0.89240  0.91690  1.0000 -0.6395484582
O   O3        1.0  0.81730  0.06220  0.82960  1.0000 -0.7727253469
O   O4        1.0  0.64490  0.09040  0.79240  1.0000 -0.5582388473
O   O5        1.0  0.48580  0.56690  0.85370  1.0000 -0.1997052251
O   O6        1.0  0.14310  0.21730  0.78220  1.0000 -0.5539661082
O   O7        1.0  0.01310  0.24190  0.84740  1.0000 -0.7447375389
O   O8        1.0  0.13860  0.57280  0.07760  1.0000 -0.6395484582
O   O9        1.0  0.30010  0.70990  0.07760  1.0000 -0.6462125811
O   O10       1.0  0.10260  0.90120  0.80620  1.0000 -0.5787491235
O   O11       1.0  0.08040  0.00700  0.67230  1.0000 -0.634949151
O   O12       1.0  0.10120  0.88710  0.35510  1.0000 -0.6395484582
O   O13       1.0  0.21070  0.78110  0.35500  1.0000 -0.6887452635
O   O14       1.0  0.35690  0.68870  0.72850  1.0000 -0.1997052251
O   O15       1.0  0.14450  0.08540  0.95740  1.0000 -0.5966963502
O   O16       1.0  0.07720  0.10760  0.08310  1.0000 -0.6395484582
O   O17       1.0  0.18270  0.93780  0.17040  1.0000 -0.7727253469
O   O18       1.0  0.35510  0.90960  0.20760  1.0000 -0.5582388473
O   O19       1.0  0.51420  0.43310  0.14630  1.0000 -0.1928757263
O   O20       1.0  0.85690  0.78270  0.21780  1.0000 -0.5582388473
O   O21       1.0  0.98690  0.75810  0.15260  1.0000 -0.7447375389
O   O22       1.0  0.86140  0.42720  0.92240  1.0000 -0.6395484582
O   O23       1.0  0.69990  0.29010  0.92240  1.0000 -0.6462125811
O   O24       1.0  0.89740  0.09880  0.19380  1.0000 -0.5787491235
O   O25       1.0  0.91960  0.99300  0.32770  1.0000 -0.6395484582
O   O26       1.0  0.89880  0.11290  0.64490  1.0000 -0.6395484582
O   O27       1.0  0.78930  0.21890  0.64500  1.0000 -0.6887452635
O   O28       1.0  0.64310  0.31130  0.27150  1.0000 -0.1997052251
