# DDEC6 charges by PACMAN v1.1 (https://github.com/mtap-research/PACMAN-charge/)
data_2022[Ni][shp]3[ASR]1
_chemical_formula_sum              "Ni18 H30 C60 O60"
_cell_length_a       16.084
_cell_length_b       16.084
_cell_length_c       12.091
_cell_angle_alpha    90
_cell_angle_beta     90
_cell_angle_gamma    120

_symmetry_space_group_name_H-M    "P 1"
_symmetry_Int_Tables_number       1

loop_
  _symmetry_equiv_pos_as_xyz
  'x, y, z'

loop_
  _atom_site_type_symbol
  _atom_site_label
  _atom_site_symmetry_multiplicity
  _atom_site_fract_x
  _atom_site_fract_y
  _atom_site_fract_z
  _atom_site_occupancy
  _atom_site_charge
Ni  Ni1       1.0  0.00000  0.24032  0.00000  1.0000 0.7646646519
Ni  Ni2       1.0  0.12220  0.24441  0.80376  1.0000 0.5732411563
Ni  Ni3       1.0  0.87779  0.12220  0.80377  1.0000 0.5732411563
Ni  Ni4       1.0  0.24032  0.00000  0.00000  1.0000 0.7646646519
Ni  Ni5       1.0  0.12221  0.87779  0.80376  1.0000 0.5732411563
Ni  Ni6       1.0  0.24441  0.12220  0.80377  1.0000 0.5732411563
Ni  Ni7       1.0  0.75969  0.75969  0.00000  1.0000 0.7659117301
Ni  Ni8       1.0  0.75559  0.87779  0.80376  1.0000 0.5732411563
Ni  Ni9       1.0  0.87779  0.75559  0.80377  1.0000 0.5732411563
Ni  Ni10      1.0  0.00000  0.75969  0.00000  1.0000 0.7646646519
Ni  Ni11      1.0  0.87779  0.75559  0.19624  1.0000 0.5732411563
Ni  Ni12      1.0  0.12221  0.87779  0.19623  1.0000 0.5732411563
Ni  Ni13      1.0  0.75969  0.00000  0.00000  1.0000 0.7659117301
Ni  Ni14      1.0  0.87779  0.12220  0.19624  1.0000 0.5732411563
Ni  Ni15      1.0  0.75559  0.87779  0.19623  1.0000 0.5732411563
Ni  Ni16      1.0  0.24032  0.24032  0.00000  1.0000 0.7646646519
Ni  Ni17      1.0  0.24441  0.12220  0.19624  1.0000 0.5732411563
Ni  Ni18      1.0  0.12220  0.24441  0.19623  1.0000 0.5732411563
H   H1        1.0  0.00044  0.50022  0.87226  1.0000 0.1446023305
H   H2        1.0  0.99947  0.62348  0.58393  1.0000 0.1197747534
H   H3        1.0  0.99947  0.37599  0.58393  1.0000 0.1197747534
H   H4        1.0  0.93587  0.06413  0.75261  1.0000 0.0918287356
H   H5        1.0  0.06432  0.12865  0.75249  1.0000 0.0918287356
H   H6        1.0  0.49978  0.99956  0.87226  1.0000 0.1446023305
H   H7        1.0  0.62401  0.00053  0.58393  1.0000 0.1197747534
H   H8        1.0  0.37652  0.00053  0.58393  1.0000 0.1197747534
H   H9        1.0  0.12825  0.06413  0.75261  1.0000 0.0918287356
H   H10       1.0  0.06432  0.93568  0.75249  1.0000 0.0918287356
H   H11       1.0  0.49978  0.50022  0.87226  1.0000 0.1446023305
H   H12       1.0  0.37652  0.37599  0.58393  1.0000 0.1197747534
H   H13       1.0  0.62401  0.62348  0.58393  1.0000 0.1197747534
H   H14       1.0  0.93587  0.87175  0.75261  1.0000 0.0918287356
H   H15       1.0  0.87135  0.93568  0.75249  1.0000 0.0918287356
H   H16       1.0  0.99956  0.49978  0.12774  1.0000 0.1446023305
H   H17       1.0  0.00053  0.37652  0.41607  1.0000 0.1197747534
H   H18       1.0  0.00053  0.62401  0.41607  1.0000 0.1197747534
H   H19       1.0  0.06413  0.93588  0.24739  1.0000 0.0918287356
H   H20       1.0  0.93568  0.87135  0.24751  1.0000 0.0918287356
H   H21       1.0  0.50022  0.00044  0.12774  1.0000 0.1446023305
H   H22       1.0  0.37599  0.99947  0.41607  1.0000 0.1197747534
H   H23       1.0  0.62348  0.99947  0.41607  1.0000 0.1197747534
H   H24       1.0  0.87175  0.93588  0.24739  1.0000 0.0918287356
H   H25       1.0  0.93568  0.06432  0.24751  1.0000 0.0918287356
H   H26       1.0  0.50022  0.49978  0.12774  1.0000 0.1446023305
H   H27       1.0  0.62348  0.62401  0.41607  1.0000 0.1197747534
H   H28       1.0  0.37599  0.37652  0.41607  1.0000 0.1197747534
H   H29       1.0  0.06413  0.12825  0.24739  1.0000 0.0918287356
H   H30       1.0  0.12865  0.06432  0.24751  1.0000 0.0918287356
C   C1        1.0  0.00030  0.65630  0.79600  1.0000 0.5817336956
C   C2        1.0  0.00030  0.34400  0.79600  1.0000 0.5817336956
C   C3        1.0  0.00020  0.50010  0.79530  1.0000 -0.1194468332
C   C4        1.0  0.00010  0.57460  0.73690  1.0000 -0.0061913647
C   C5        1.0  0.00010  0.42550  0.73690  1.0000 -0.0061913647
C   C6        1.0  0.99990  0.49995  0.56200  1.0000 0.069070027
C   C7        1.0  0.99980  0.57340  0.62190  1.0000 -0.1289854246
C   C8        1.0  0.99980  0.42640  0.62190  1.0000 -0.1289854246
C   C9        1.0  0.92700  0.07300  0.82680  1.0000 0.0512343167
C   C10       1.0  0.07305  0.14610  0.82670  1.0000 0.0512343167
C   C11       1.0  0.65600  0.99970  0.79600  1.0000 0.5817336956
C   C12       1.0  0.34370  0.99970  0.79600  1.0000 0.5817336956
C   C13       1.0  0.49990  0.99980  0.79530  1.0000 -0.1194468332
C   C14       1.0  0.57450  0.99990  0.73690  1.0000 -0.0061913647
C   C15       1.0  0.42540  0.99990  0.73690  1.0000 -0.0061913647
C   C16       1.0  0.50005  0.00010  0.56200  1.0000 0.069070027
C   C17       1.0  0.57360  0.00020  0.62190  1.0000 -0.1289854246
C   C18       1.0  0.42660  0.00020  0.62190  1.0000 -0.1289854246
C   C19       1.0  0.14600  0.07300  0.82680  1.0000 0.0512343167
C   C20       1.0  0.07305  0.92695  0.82670  1.0000 0.0512343167
C   C21       1.0  0.34370  0.34400  0.79600  1.0000 0.5817336956
C   C22       1.0  0.65600  0.65630  0.79600  1.0000 0.5817336956
C   C23       1.0  0.49990  0.50010  0.79530  1.0000 -0.1194468332
C   C24       1.0  0.42540  0.42550  0.73690  1.0000 -0.0061913647
C   C25       1.0  0.57450  0.57460  0.73690  1.0000 -0.0061913647
C   C26       1.0  0.50005  0.49995  0.56200  1.0000 0.069070027
C   C27       1.0  0.42660  0.42640  0.62190  1.0000 -0.1289854246
C   C28       1.0  0.57360  0.57340  0.62190  1.0000 -0.1289854246
C   C29       1.0  0.92700  0.85400  0.82680  1.0000 0.0512343167
C   C30       1.0  0.85390  0.92695  0.82670  1.0000 0.0512343167
C   C31       1.0  0.99970  0.34370  0.20400  1.0000 0.5817336956
C   C32       1.0  0.99970  0.65600  0.20400  1.0000 0.5817336956
C   C33       1.0  0.99980  0.49990  0.20470  1.0000 -0.1194468332
C   C34       1.0  0.99990  0.42540  0.26310  1.0000 -0.0061913647
C   C35       1.0  0.99990  0.57450  0.26310  1.0000 -0.0061913647
C   C36       1.0  0.00010  0.50005  0.43800  1.0000 0.069070027
C   C37       1.0  0.00020  0.42660  0.37810  1.0000 -0.1289854246
C   C38       1.0  0.00020  0.57360  0.37810  1.0000 -0.1289854246
C   C39       1.0  0.07300  0.92700  0.17320  1.0000 0.0512343167
C   C40       1.0  0.92695  0.85390  0.17330  1.0000 0.0512343167
C   C41       1.0  0.34400  0.00030  0.20400  1.0000 0.5817336956
C   C42       1.0  0.65630  0.00030  0.20400  1.0000 0.5817336956
C   C43       1.0  0.50010  0.00020  0.20470  1.0000 -0.1194468332
C   C44       1.0  0.42550  0.00010  0.26310  1.0000 -0.0061913647
C   C45       1.0  0.57460  0.00010  0.26310  1.0000 -0.0061913647
C   C46       1.0  0.49995  0.99990  0.43800  1.0000 0.069070027
C   C47       1.0  0.42640  0.99980  0.37810  1.0000 -0.1289854246
C   C48       1.0  0.57340  0.99980  0.37810  1.0000 -0.1289854246
C   C49       1.0  0.85400  0.92700  0.17320  1.0000 0.0512343167
C   C50       1.0  0.92695  0.07305  0.17330  1.0000 0.0512343167
C   C51       1.0  0.65630  0.65600  0.20400  1.0000 0.5817336956
C   C52       1.0  0.34400  0.34370  0.20400  1.0000 0.5817336956
C   C53       1.0  0.50010  0.49990  0.20470  1.0000 -0.1194468332
C   C54       1.0  0.57460  0.57450  0.26310  1.0000 -0.0061913647
C   C55       1.0  0.42550  0.42540  0.26310  1.0000 -0.0061913647
C   C56       1.0  0.49995  0.50005  0.43800  1.0000 0.069070027
C   C57       1.0  0.57340  0.57360  0.37810  1.0000 -0.1289854246
C   C58       1.0  0.42640  0.42660  0.37810  1.0000 -0.1289854246
C   C59       1.0  0.07300  0.14600  0.17320  1.0000 0.0512343167
C   C60       1.0  0.14610  0.07305  0.17330  1.0000 0.0553218407
O   O1        1.0  0.00000  0.15620  0.86940  1.0000 -0.2829966749
O   O2        1.0  0.84380  0.00000  0.86940  1.0000 -0.2829966749
O   O3        1.0  0.00000  0.33480  0.88880  1.0000 -0.3897827745
O   O4        1.0  0.00000  0.66520  0.88880  1.0000 -0.3897827745
O   O5        1.0  0.07570  0.32940  0.74460  1.0000 -0.4552111606
O   O6        1.0  0.07570  0.74630  0.74460  1.0000 -0.4552111606
O   O7        1.0  0.85215  0.14785  0.03700  1.0000 -0.1396359012
O   O8        1.0  0.92390  0.67000  0.74460  1.0000 -0.4524208728
O   O9        1.0  0.85195  0.14805  0.96300  1.0000 -0.1289854246
O   O10       1.0  0.92390  0.25390  0.74460  1.0000 -0.4524208728
O   O11       1.0  0.15620  0.00000  0.86940  1.0000 -0.2829966749
O   O12       1.0  0.15620  0.15620  0.86940  1.0000 -0.2829966749
O   O13       1.0  0.33480  0.00000  0.88880  1.0000 -0.3897827745
O   O14       1.0  0.66520  0.00000  0.88880  1.0000 -0.3897827745
O   O15       1.0  0.25370  0.92430  0.74460  1.0000 -0.4552111606
O   O16       1.0  0.67060  0.92430  0.74460  1.0000 -0.4524208728
O   O17       1.0  0.29570  0.14785  0.03700  1.0000 -0.1396359012
O   O18       1.0  0.74610  0.07610  0.74460  1.0000 -0.4524208728
O   O19       1.0  0.29610  0.14805  0.96300  1.0000 -0.1289854246
O   O20       1.0  0.33000  0.07610  0.74460  1.0000 -0.4524208728
O   O21       1.0  0.84380  0.84380  0.86940  1.0000 -0.2829966749
O   O22       1.0  0.00000  0.84380  0.86940  1.0000 -0.2829966749
O   O23       1.0  0.66520  0.66520  0.88880  1.0000 -0.3897827745
O   O24       1.0  0.33480  0.33480  0.88880  1.0000 -0.3897827745
O   O25       1.0  0.67060  0.74630  0.74460  1.0000 -0.4524208728
O   O26       1.0  0.25370  0.32940  0.74460  1.0000 -0.4524208728
O   O27       1.0  0.85215  0.70430  0.03700  1.0000 -0.1396359012
O   O28       1.0  0.33000  0.25390  0.74460  1.0000 -0.4524208728
O   O29       1.0  0.85195  0.70390  0.96300  1.0000 -0.1289854246
O   O30       1.0  0.74610  0.67000  0.74460  1.0000 -0.4524208728
O   O31       1.0  0.00000  0.84380  0.13060  1.0000 -0.2829966749
O   O32       1.0  0.15620  0.00000  0.13060  1.0000 -0.2829966749
O   O33       1.0  0.00000  0.66520  0.11120  1.0000 -0.3897827745
O   O34       1.0  0.00000  0.33480  0.11120  1.0000 -0.3897827745
O   O35       1.0  0.92430  0.67060  0.25540  1.0000 -0.4524208728
O   O36       1.0  0.92430  0.25370  0.25540  1.0000 -0.4524208728
O   O37       1.0  0.14785  0.85215  0.96300  1.0000 -0.1396359012
O   O38       1.0  0.07610  0.33000  0.25540  1.0000 -0.4524208728
O   O39       1.0  0.14805  0.85195  0.03700  1.0000 -0.1289854246
O   O40       1.0  0.07610  0.74610  0.25540  1.0000 -0.4524208728
O   O41       1.0  0.84380  0.00000  0.13060  1.0000 -0.2829966749
O   O42       1.0  0.84380  0.84380  0.13060  1.0000 -0.2829966749
O   O43       1.0  0.66520  0.00000  0.11120  1.0000 -0.3897827745
O   O44       1.0  0.33480  0.00000  0.11120  1.0000 -0.3897827745
O   O45       1.0  0.74630  0.07570  0.25540  1.0000 -0.4524208728
O   O46       1.0  0.32940  0.07570  0.25540  1.0000 -0.4524208728
O   O47       1.0  0.70430  0.85215  0.96300  1.0000 -0.1396359012
O   O48       1.0  0.25390  0.92390  0.25540  1.0000 -0.4524208728
O   O49       1.0  0.70390  0.85195  0.03700  1.0000 -0.1289854246
O   O50       1.0  0.67000  0.92390  0.25540  1.0000 -0.4524208728
O   O51       1.0  0.15620  0.15620  0.13060  1.0000 -0.2829966749
O   O52       1.0  0.00000  0.15620  0.13060  1.0000 -0.2829966749
O   O53       1.0  0.33480  0.33480  0.11120  1.0000 -0.3897827745
O   O54       1.0  0.66520  0.66520  0.11120  1.0000 -0.3897827745
O   O55       1.0  0.32940  0.25370  0.25540  1.0000 -0.4524208728
O   O56       1.0  0.74630  0.67060  0.25540  1.0000 -0.4524208728
O   O57       1.0  0.14785  0.29570  0.96300  1.0000 -0.1396359012
O   O58       1.0  0.67000  0.74610  0.25540  1.0000 -0.4524208728
O   O59       1.0  0.14805  0.29610  0.03700  1.0000 -0.1289854246
O   O60       1.0  0.25390  0.33000  0.25540  1.0000 -0.4524208728
