# DDEC6 charges by PACMAN v1.1 (https://github.com/mtap-research/PACMAN-charge/)
data_2022[Cu][tbo]3[ASR]5
_chemical_formula_sum              "Cu12 H24 C72 O48"
_cell_length_a       18.5566
_cell_length_b       18.5566
_cell_length_c       18.5566
_cell_angle_alpha    60
_cell_angle_beta     60
_cell_angle_gamma    60

_symmetry_space_group_name_H-M    "P 1"
_symmetry_Int_Tables_number       1

loop_
  _symmetry_equiv_pos_as_xyz
  'x, y, z'

loop_
  _atom_site_type_symbol
  _atom_site_label
  _atom_site_symmetry_multiplicity
  _atom_site_fract_x
  _atom_site_fract_y
  _atom_site_fract_z
  _atom_site_occupancy
  _atom_site_charge
Cu  Cu1       1.0  0.42924  0.00000  0.57076  1.0000 0.8655404283
Cu  Cu2       1.0  0.57076  0.00000  0.42924  1.0000 0.8655404283
Cu  Cu3       1.0  0.00000  0.42924  0.00000  1.0000 0.8655404283
Cu  Cu4       1.0  0.00000  0.57076  0.00000  1.0000 0.8655404283
Cu  Cu5       1.0  0.00000  0.57076  0.42924  1.0000 0.8647270103
Cu  Cu6       1.0  0.00000  0.42924  0.57076  1.0000 0.8647270103
Cu  Cu7       1.0  0.42924  0.00000  0.00000  1.0000 0.8655404283
Cu  Cu8       1.0  0.57076  0.00000  0.00000  1.0000 0.8655404283
Cu  Cu9       1.0  0.57076  0.42924  0.00000  1.0000 0.8655404283
Cu  Cu10      1.0  0.42924  0.57076  0.00000  1.0000 0.8655404283
Cu  Cu11      1.0  0.00000  0.00000  0.42924  1.0000 0.8647270103
Cu  Cu12      1.0  0.00000  0.00000  0.57076  1.0000 0.8655404283
H   H1        1.0  0.48556  0.97212  0.27116  1.0000 0.1376312437
H   H2        1.0  0.27116  0.27116  0.48556  1.0000 0.1376312437
H   H3        1.0  0.97212  0.48556  0.27116  1.0000 0.1376312437
H   H4        1.0  0.27116  0.27116  0.97212  1.0000 0.1376312437
H   H5        1.0  0.97212  0.27116  0.48556  1.0000 0.1376312437
H   H6        1.0  0.27116  0.48556  0.27116  1.0000 0.1376312437
H   H7        1.0  0.48556  0.27116  0.97212  1.0000 0.1376312437
H   H8        1.0  0.27116  0.97212  0.27116  1.0000 0.1376312437
H   H9        1.0  0.27116  0.48556  0.97212  1.0000 0.1376312437
H   H10       1.0  0.48556  0.27116  0.27116  1.0000 0.1376312437
H   H11       1.0  0.27116  0.97212  0.48556  1.0000 0.1376312437
H   H12       1.0  0.97212  0.27116  0.27116  1.0000 0.1376312437
H   H13       1.0  0.51444  0.72884  0.72884  1.0000 0.1376312437
H   H14       1.0  0.72884  0.02788  0.51444  1.0000 0.1376312437
H   H15       1.0  0.02788  0.72884  0.72884  1.0000 0.1376312437
H   H16       1.0  0.72884  0.51444  0.02788  1.0000 0.1376312437
H   H17       1.0  0.02788  0.72884  0.51444  1.0000 0.1376312437
H   H18       1.0  0.72884  0.02788  0.72884  1.0000 0.1376312437
H   H19       1.0  0.51444  0.72884  0.02788  1.0000 0.1376312437
H   H20       1.0  0.72884  0.51444  0.72884  1.0000 0.1376312437
H   H21       1.0  0.72884  0.72884  0.02788  1.0000 0.1376312437
H   H22       1.0  0.51444  0.02788  0.72884  1.0000 0.1376312437
H   H23       1.0  0.72884  0.72884  0.51444  1.0000 0.1376312437
H   H24       1.0  0.02788  0.51444  0.72884  1.0000 0.1376312437
C   C1        1.0  0.43030  0.97750  0.43030  1.0000 0.5827147737
C   C2        1.0  0.38530  0.97170  0.38530  1.0000 -0.022128113
C   C3        1.0  0.43030  0.16190  0.43030  1.0000 0.5827147737
C   C4        1.0  0.38530  0.25770  0.38530  1.0000 -0.022128113
C   C5        1.0  0.97750  0.43030  0.16190  1.0000 0.5827147737
C   C6        1.0  0.97170  0.38530  0.25770  1.0000 -0.022128113
C   C7        1.0  0.16190  0.43030  0.97750  1.0000 0.5827147737
C   C8        1.0  0.25770  0.38530  0.97170  1.0000 -0.022128113
C   C9        1.0  0.97750  0.43030  0.43030  1.0000 0.5827147737
C   C10       1.0  0.97170  0.38530  0.38530  1.0000 -0.022128113
C   C11       1.0  0.16190  0.43030  0.43030  1.0000 0.5827147737
C   C12       1.0  0.25770  0.38530  0.38530  1.0000 -0.022128113
C   C13       1.0  0.43030  0.16190  0.97750  1.0000 0.5827147737
C   C14       1.0  0.38530  0.25770  0.97170  1.0000 -0.022128113
C   C15       1.0  0.43030  0.97750  0.16190  1.0000 0.5827147737
C   C16       1.0  0.38530  0.97170  0.25770  1.0000 -0.022128113
C   C17       1.0  0.43030  0.43030  0.97750  1.0000 0.5827147737
C   C18       1.0  0.38530  0.38530  0.97170  1.0000 -0.022128113
C   C19       1.0  0.43030  0.43030  0.16190  1.0000 0.5827147737
C   C20       1.0  0.38530  0.38530  0.25770  1.0000 -0.022128113
C   C21       1.0  0.16190  0.97750  0.43030  1.0000 0.5827147737
C   C22       1.0  0.25770  0.97170  0.38530  1.0000 -0.022128113
C   C23       1.0  0.97750  0.16190  0.43030  1.0000 0.5827147737
C   C24       1.0  0.97170  0.25770  0.38530  1.0000 -0.022128113
C   C25       1.0  0.56970  0.83810  0.56970  1.0000 0.5827147737
C   C26       1.0  0.61470  0.74230  0.61470  1.0000 -0.022128113
C   C27       1.0  0.56970  0.02250  0.56970  1.0000 0.5827147737
C   C28       1.0  0.61470  0.02830  0.61470  1.0000 -0.022128113
C   C29       1.0  0.02250  0.56970  0.83810  1.0000 0.5827147737
C   C30       1.0  0.02830  0.61470  0.74230  1.0000 -0.022128113
C   C31       1.0  0.83810  0.56970  0.02250  1.0000 0.5827147737
C   C32       1.0  0.74230  0.61470  0.02830  1.0000 -0.022128113
C   C33       1.0  0.02250  0.83810  0.56970  1.0000 0.5827147737
C   C34       1.0  0.02830  0.74230  0.61470  1.0000 -0.022128113
C   C35       1.0  0.83810  0.02250  0.56970  1.0000 0.5827147737
C   C36       1.0  0.74230  0.02830  0.61470  1.0000 -0.022128113
C   C37       1.0  0.56970  0.56970  0.02250  1.0000 0.5827147737
C   C38       1.0  0.61470  0.61470  0.02830  1.0000 -0.022128113
C   C39       1.0  0.56970  0.56970  0.83810  1.0000 0.5827147737
C   C40       1.0  0.61470  0.61470  0.74230  1.0000 -0.022128113
C   C41       1.0  0.56970  0.83810  0.02250  1.0000 0.5827147737
C   C42       1.0  0.61470  0.74230  0.02830  1.0000 -0.022128113
C   C43       1.0  0.56970  0.02250  0.83810  1.0000 0.5827147737
C   C44       1.0  0.61470  0.02830  0.74230  1.0000 -0.022128113
C   C45       1.0  0.83810  0.56970  0.56970  1.0000 0.5827147737
C   C46       1.0  0.74230  0.61470  0.61470  1.0000 -0.022128113
C   C47       1.0  0.02250  0.56970  0.56970  1.0000 0.5827147737
C   C48       1.0  0.02830  0.61470  0.61470  1.0000 -0.022128113
C   C49       1.0  0.42780  0.97180  0.30020  1.0000 -0.0836656016
C   C50       1.0  0.30020  0.30020  0.42780  1.0000 -0.0836656016
C   C51       1.0  0.97180  0.42780  0.30020  1.0000 -0.0836656016
C   C52       1.0  0.30020  0.30020  0.97180  1.0000 -0.0836656016
C   C53       1.0  0.97180  0.30020  0.42780  1.0000 -0.0836656016
C   C54       1.0  0.30020  0.42780  0.30020  1.0000 -0.0836656016
C   C55       1.0  0.42780  0.30020  0.97180  1.0000 -0.0836656016
C   C56       1.0  0.30020  0.97180  0.30020  1.0000 -0.0836656016
C   C57       1.0  0.30020  0.42780  0.97180  1.0000 -0.0836656016
C   C58       1.0  0.42780  0.30020  0.30020  1.0000 -0.0836656016
C   C59       1.0  0.30020  0.97180  0.42780  1.0000 -0.0854842763
C   C60       1.0  0.97180  0.30020  0.30020  1.0000 -0.0836656016
C   C61       1.0  0.57220  0.69980  0.69980  1.0000 -0.0854842763
C   C62       1.0  0.69980  0.02820  0.57220  1.0000 -0.0836656016
C   C63       1.0  0.02820  0.69980  0.69980  1.0000 -0.0854842763
C   C64       1.0  0.69980  0.57220  0.02820  1.0000 -0.0854842763
C   C65       1.0  0.02820  0.69980  0.57220  1.0000 -0.0836656016
C   C66       1.0  0.69980  0.02820  0.69980  1.0000 -0.0836656016
C   C67       1.0  0.57220  0.69980  0.02820  1.0000 -0.0854842763
C   C68       1.0  0.69980  0.57220  0.69980  1.0000 -0.0854842763
C   C69       1.0  0.69980  0.69980  0.02820  1.0000 -0.0854842763
C   C70       1.0  0.57220  0.02820  0.69980  1.0000 -0.0836656016
C   C71       1.0  0.69980  0.69980  0.57220  1.0000 -0.0836656016
C   C72       1.0  0.02820  0.57220  0.69980  1.0000 -0.0854842763
O   O1        1.0  0.38680  0.97820  0.50900  1.0000 -0.523183924
O   O2        1.0  0.50900  0.12600  0.38680  1.0000 -0.523183924
O   O3        1.0  0.97820  0.38680  0.12600  1.0000 -0.523183924
O   O4        1.0  0.12600  0.50900  0.97820  1.0000 -0.523183924
O   O5        1.0  0.97820  0.50900  0.38680  1.0000 -0.523183924
O   O6        1.0  0.12600  0.38680  0.50900  1.0000 -0.523183924
O   O7        1.0  0.38680  0.12600  0.97820  1.0000 -0.5251580576
O   O8        1.0  0.50900  0.97820  0.12600  1.0000 -0.523183924
O   O9        1.0  0.50900  0.38680  0.97820  1.0000 -0.523183924
O   O10       1.0  0.38680  0.50900  0.12600  1.0000 -0.523183924
O   O11       1.0  0.12600  0.97820  0.38680  1.0000 -0.523183924
O   O12       1.0  0.97820  0.12600  0.50900  1.0000 -0.523183924
O   O13       1.0  0.61320  0.87400  0.49100  1.0000 -0.523183924
O   O14       1.0  0.49100  0.02180  0.61320  1.0000 -0.523183924
O   O15       1.0  0.02180  0.49100  0.87400  1.0000 -0.523183924
O   O16       1.0  0.87400  0.61320  0.02180  1.0000 -0.523183924
O   O17       1.0  0.02180  0.87400  0.61320  1.0000 -0.523183924
O   O18       1.0  0.87400  0.02180  0.49100  1.0000 -0.523183924
O   O19       1.0  0.61320  0.49100  0.02180  1.0000 -0.523183924
O   O20       1.0  0.49100  0.61320  0.87400  1.0000 -0.523183924
O   O21       1.0  0.49100  0.87400  0.02180  1.0000 -0.523183924
O   O22       1.0  0.61320  0.02180  0.87400  1.0000 -0.523183924
O   O23       1.0  0.87400  0.49100  0.61320  1.0000 -0.523183924
O   O24       1.0  0.02180  0.61320  0.49100  1.0000 -0.523183924
O   O25       1.0  0.61320  0.02180  0.49100  1.0000 -0.523183924
O   O26       1.0  0.49100  0.87400  0.61320  1.0000 -0.523183924
O   O27       1.0  0.02180  0.61320  0.87400  1.0000 -0.523183924
O   O28       1.0  0.87400  0.49100  0.02180  1.0000 -0.523183924
O   O29       1.0  0.02180  0.49100  0.61320  1.0000 -0.523183924
O   O30       1.0  0.87400  0.61320  0.49100  1.0000 -0.523183924
O   O31       1.0  0.61320  0.87400  0.02180  1.0000 -0.523183924
O   O32       1.0  0.49100  0.02180  0.87400  1.0000 -0.523183924
O   O33       1.0  0.49100  0.61320  0.02180  1.0000 -0.523183924
O   O34       1.0  0.61320  0.49100  0.87400  1.0000 -0.523183924
O   O35       1.0  0.87400  0.02180  0.61320  1.0000 -0.523183924
O   O36       1.0  0.02180  0.87400  0.49100  1.0000 -0.523183924
O   O37       1.0  0.38680  0.12600  0.50900  1.0000 -0.523183924
O   O38       1.0  0.50900  0.97820  0.38680  1.0000 -0.523183924
O   O39       1.0  0.97820  0.50900  0.12600  1.0000 -0.523183924
O   O40       1.0  0.12600  0.38680  0.97820  1.0000 -0.5251580576
O   O41       1.0  0.97820  0.12600  0.38680  1.0000 -0.523183924
O   O42       1.0  0.12600  0.97820  0.50900  1.0000 -0.523183924
O   O43       1.0  0.38680  0.50900  0.97820  1.0000 -0.523183924
O   O44       1.0  0.50900  0.38680  0.12600  1.0000 -0.523183924
O   O45       1.0  0.50900  0.12600  0.97820  1.0000 -0.5251580576
O   O46       1.0  0.38680  0.97820  0.12600  1.0000 -0.523183924
O   O47       1.0  0.12600  0.50900  0.38680  1.0000 -0.523183924
O   O48       1.0  0.97820  0.38680  0.50900  1.0000 -0.523183924
