# DDEC6 charges by PACMAN v1.1 (https://github.com/mtap-research/PACMAN-charge/)
data_2022[Cu][tbo]3[ASR]4
_chemical_formula_sum              "Cu12 H24 C72 O48"
_cell_length_a       18.5941
_cell_length_b       18.5941
_cell_length_c       18.5941
_cell_angle_alpha    60
_cell_angle_beta     60
_cell_angle_gamma    60

_symmetry_space_group_name_H-M    "P 1"
_symmetry_Int_Tables_number       1

loop_
  _symmetry_equiv_pos_as_xyz
  'x, y, z'

loop_
  _atom_site_type_symbol
  _atom_site_label
  _atom_site_symmetry_multiplicity
  _atom_site_fract_x
  _atom_site_fract_y
  _atom_site_fract_z
  _atom_site_occupancy
  _atom_site_charge
Cu  Cu1       1.0  0.57048  0.42952  0.00000  1.0000 0.8407140994
Cu  Cu2       1.0  0.42952  0.57048  0.00000  1.0000 0.8407140994
Cu  Cu3       1.0  0.00000  0.00000  0.57048  1.0000 0.8407140994
Cu  Cu4       1.0  0.00000  0.00000  0.42952  1.0000 0.8407140994
Cu  Cu5       1.0  1.00000  0.57048  0.42952  1.0000 0.8407140994
Cu  Cu6       1.0  1.00000  0.42952  0.57048  1.0000 0.8407140994
Cu  Cu7       1.0  0.57048  0.00000  0.00000  1.0000 0.8407140994
Cu  Cu8       1.0  0.42952  0.00000  0.00000  1.0000 0.8407140994
Cu  Cu9       1.0  0.42952  0.00000  0.57048  1.0000 0.8407140994
Cu  Cu10      1.0  0.57048  0.00000  0.42952  1.0000 0.8407140994
Cu  Cu11      1.0  1.00000  0.57048  0.00000  1.0000 0.8407140994
Cu  Cu12      1.0  0.00000  0.42952  0.00000  1.0000 0.8407140994
H   H1        1.0  0.51375  0.72823  0.02979  1.0000 0.1397431666
H   H2        1.0  0.72823  0.51375  0.72823  1.0000 0.1397431666
H   H3        1.0  0.02979  0.72823  0.51375  1.0000 0.1397431666
H   H4        1.0  0.72823  0.02979  0.72823  1.0000 0.1397431666
H   H5        1.0  0.02979  0.51375  0.72823  1.0000 0.1397431666
H   H6        1.0  0.72823  0.72823  0.51375  1.0000 0.1397431666
H   H7        1.0  0.51375  0.02979  0.72823  1.0000 0.1397431666
H   H8        1.0  0.72823  0.72823  0.02979  1.0000 0.1397431666
H   H9        1.0  0.72823  0.02979  0.51375  1.0000 0.1397431666
H   H10       1.0  0.51375  0.72823  0.72823  1.0000 0.1397431666
H   H11       1.0  0.72823  0.51375  0.02979  1.0000 0.1397431666
H   H12       1.0  0.02979  0.72823  0.72823  1.0000 0.1397431666
H   H13       1.0  0.48625  0.27177  0.27177  1.0000 0.1397431666
H   H14       1.0  0.27177  0.48625  0.97021  1.0000 0.1397431666
H   H15       1.0  0.97021  0.27177  0.27177  1.0000 0.1397431666
H   H16       1.0  0.27177  0.97021  0.48625  1.0000 0.1397431666
H   H17       1.0  0.97021  0.48625  0.27177  1.0000 0.1397431666
H   H18       1.0  0.27177  0.27177  0.97021  1.0000 0.1397431666
H   H19       1.0  0.48625  0.97021  0.27177  1.0000 0.1397431666
H   H20       1.0  0.27177  0.27177  0.48625  1.0000 0.1397431666
H   H21       1.0  0.27177  0.97021  0.27177  1.0000 0.1397431666
H   H22       1.0  0.48625  0.27177  0.97021  1.0000 0.1397431666
H   H23       1.0  0.27177  0.48625  0.27177  1.0000 0.1397431666
H   H24       1.0  0.97021  0.27177  0.48625  1.0000 0.1397431666
C   C1        1.0  0.56900  0.56900  0.02360  1.0000 0.5761834854
C   C2        1.0  0.61390  0.61390  0.03010  1.0000 -0.0219573375
C   C3        1.0  0.56900  0.56900  0.83840  1.0000 0.5761834854
C   C4        1.0  0.61390  0.61390  0.74210  1.0000 -0.0219573375
C   C5        1.0  0.02360  0.83840  0.56900  1.0000 0.5761834854
C   C6        1.0  0.03010  0.74210  0.61390  1.0000 -0.0219573375
C   C7        1.0  0.83840  0.02360  0.56900  1.0000 0.5761834854
C   C8        1.0  0.74210  0.03010  0.61390  1.0000 -0.0219573375
C   C9        1.0  0.02360  0.56900  0.56900  1.0000 0.5761834854
C   C10       1.0  0.03010  0.61390  0.61390  1.0000 -0.0219573375
C   C11       1.0  0.83840  0.56900  0.56900  1.0000 0.5761834854
C   C12       1.0  0.74210  0.61390  0.61390  1.0000 -0.0219573375
C   C13       1.0  0.56900  0.02360  0.83840  1.0000 0.5761834854
C   C14       1.0  0.61390  0.03010  0.74210  1.0000 -0.0219573375
C   C15       1.0  0.56900  0.83840  0.02360  1.0000 0.5761834854
C   C16       1.0  0.61390  0.74210  0.03010  1.0000 -0.0219573375
C   C17       1.0  0.56900  0.02360  0.56900  1.0000 0.5761834854
C   C18       1.0  0.61390  0.03010  0.61390  1.0000 -0.0219573375
C   C19       1.0  0.56900  0.83840  0.56900  1.0000 0.5761834854
C   C20       1.0  0.61390  0.74210  0.61390  1.0000 -0.0219573375
C   C21       1.0  0.83840  0.56900  0.02360  1.0000 0.5761834854
C   C22       1.0  0.74210  0.61390  0.03010  1.0000 -0.0219573375
C   C23       1.0  0.02360  0.56900  0.83840  1.0000 0.5761834854
C   C24       1.0  0.03010  0.61390  0.74210  1.0000 -0.0219573375
C   C25       1.0  0.43100  0.43100  0.16160  1.0000 0.5761834854
C   C26       1.0  0.38610  0.38610  0.25790  1.0000 -0.0219573375
C   C27       1.0  0.43100  0.43100  0.97640  1.0000 0.5761834854
C   C28       1.0  0.38610  0.38610  0.96990  1.0000 -0.0219573375
C   C29       1.0  0.97640  0.16160  0.43100  1.0000 0.5761834854
C   C30       1.0  0.96990  0.25790  0.38610  1.0000 -0.0219573375
C   C31       1.0  0.16160  0.97640  0.43100  1.0000 0.5761834854
C   C32       1.0  0.25790  0.96990  0.38610  1.0000 -0.0219573375
C   C33       1.0  0.97640  0.43100  0.16160  1.0000 0.5761834854
C   C34       1.0  0.96990  0.38610  0.25790  1.0000 -0.0219573375
C   C35       1.0  0.16160  0.43100  0.97640  1.0000 0.5761834854
C   C36       1.0  0.25790  0.38610  0.96990  1.0000 -0.0219573375
C   C37       1.0  0.43100  0.97640  0.43100  1.0000 0.5761834854
C   C38       1.0  0.38610  0.96990  0.38610  1.0000 -0.0219573375
C   C39       1.0  0.43100  0.16160  0.43100  1.0000 0.5761834854
C   C40       1.0  0.38610  0.25790  0.38610  1.0000 -0.0219573375
C   C41       1.0  0.43100  0.97640  0.16160  1.0000 0.5761834854
C   C42       1.0  0.38610  0.96990  0.25790  1.0000 -0.0219573375
C   C43       1.0  0.43100  0.16160  0.97640  1.0000 0.5761834854
C   C44       1.0  0.38610  0.25790  0.96990  1.0000 -0.0219573375
C   C45       1.0  0.16160  0.43100  0.43100  1.0000 0.5761834854
C   C46       1.0  0.25790  0.38610  0.38610  1.0000 -0.0219573375
C   C47       1.0  0.97640  0.43100  0.43100  1.0000 0.5761834854
C   C48       1.0  0.96990  0.38610  0.38610  1.0000 -0.0219573375
C   C49       1.0  0.57150  0.69930  0.02990  1.0000 -0.0879194129
C   C50       1.0  0.69930  0.57150  0.69930  1.0000 -0.0879194129
C   C51       1.0  0.02990  0.69930  0.57150  1.0000 -0.0879194129
C   C52       1.0  0.69930  0.02990  0.69930  1.0000 -0.0879194129
C   C53       1.0  0.02990  0.57150  0.69930  1.0000 -0.0879194129
C   C54       1.0  0.69930  0.69930  0.57150  1.0000 -0.0879194129
C   C55       1.0  0.57150  0.02990  0.69930  1.0000 -0.0879194129
C   C56       1.0  0.69930  0.69930  0.02990  1.0000 -0.0879194129
C   C57       1.0  0.69930  0.02990  0.57150  1.0000 -0.0879194129
C   C58       1.0  0.57150  0.69930  0.69930  1.0000 -0.0879194129
C   C59       1.0  0.69930  0.57150  0.02990  1.0000 -0.0879194129
C   C60       1.0  0.02990  0.69930  0.69930  1.0000 -0.0879194129
C   C61       1.0  0.42850  0.30070  0.30070  1.0000 -0.0879194129
C   C62       1.0  0.30070  0.42850  0.97010  1.0000 -0.0879194129
C   C63       1.0  0.97010  0.30070  0.30070  1.0000 -0.0879194129
C   C64       1.0  0.30070  0.97010  0.42850  1.0000 -0.0879194129
C   C65       1.0  0.97010  0.42850  0.30070  1.0000 -0.0879194129
C   C66       1.0  0.30070  0.30070  0.97010  1.0000 -0.0879194129
C   C67       1.0  0.42850  0.97010  0.30070  1.0000 -0.0879194129
C   C68       1.0  0.30070  0.30070  0.42850  1.0000 -0.0879194129
C   C69       1.0  0.30070  0.97010  0.30070  1.0000 -0.0879194129
C   C70       1.0  0.42850  0.30070  0.97010  1.0000 -0.0879194129
C   C71       1.0  0.30070  0.42850  0.30070  1.0000 -0.0879194129
C   C72       1.0  0.97010  0.30070  0.42850  1.0000 -0.0879194129
O   O1        1.0  0.61269  0.49235  0.02169  1.0000 -0.5132034757
O   O2        1.0  0.49235  0.61269  0.87327  1.0000 -0.5132034757
O   O3        1.0  0.02169  0.87327  0.61269  1.0000 -0.5132034757
O   O4        1.0  0.87327  0.02169  0.49235  1.0000 -0.5132034757
O   O5        1.0  0.02169  0.61269  0.49235  1.0000 -0.5132034757
O   O6        1.0  0.87327  0.49235  0.61269  1.0000 -0.5132034757
O   O7        1.0  0.61269  0.02169  0.87327  1.0000 -0.5132034757
O   O8        1.0  0.49235  0.87327  0.02169  1.0000 -0.5132034757
O   O9        1.0  0.49235  0.02169  0.61269  1.0000 -0.5132034757
O   O10       1.0  0.61269  0.87327  0.49235  1.0000 -0.5132034757
O   O11       1.0  0.87327  0.61269  0.02169  1.0000 -0.5132034757
O   O12       1.0  0.02169  0.49235  0.87327  1.0000 -0.5132034757
O   O13       1.0  0.38731  0.50765  0.12673  1.0000 -0.5132034757
O   O14       1.0  0.50765  0.38731  0.97831  1.0000 -0.5132034757
O   O15       1.0  0.97831  0.12673  0.50765  1.0000 -0.5132034757
O   O16       1.0  0.12673  0.97831  0.38731  1.0000 -0.5132034757
O   O17       1.0  0.97831  0.38731  0.12673  1.0000 -0.5132034757
O   O18       1.0  0.12673  0.50765  0.97831  1.0000 -0.5132034757
O   O19       1.0  0.38731  0.97831  0.50765  1.0000 -0.5132034757
O   O20       1.0  0.50765  0.12673  0.38731  1.0000 -0.5132034757
O   O21       1.0  0.50765  0.97831  0.12673  1.0000 -0.5132034757
O   O22       1.0  0.38731  0.12673  0.97831  1.0000 -0.5132034757
O   O23       1.0  0.12673  0.38731  0.50765  1.0000 -0.5132034757
O   O24       1.0  0.97831  0.50765  0.38731  1.0000 -0.5132034757
O   O25       1.0  0.38731  0.50765  0.97831  1.0000 -0.5132034757
O   O26       1.0  0.50765  0.38731  0.12673  1.0000 -0.5132034757
O   O27       1.0  0.97831  0.12673  0.38731  1.0000 -0.5132034757
O   O28       1.0  0.12673  0.97831  0.50765  1.0000 -0.5132034757
O   O29       1.0  0.97831  0.38731  0.50765  1.0000 -0.5132034757
O   O30       1.0  0.12673  0.50765  0.38731  1.0000 -0.5132034757
O   O31       1.0  0.38731  0.97831  0.12673  1.0000 -0.5132034757
O   O32       1.0  0.50765  0.12673  0.97831  1.0000 -0.5132034757
O   O33       1.0  0.50765  0.97831  0.38731  1.0000 -0.5132034757
O   O34       1.0  0.38731  0.12673  0.50765  1.0000 -0.5132034757
O   O35       1.0  0.12673  0.38731  0.97831  1.0000 -0.5132034757
O   O36       1.0  0.97831  0.50765  0.12673  1.0000 -0.5132034757
O   O37       1.0  0.61269  0.49235  0.87327  1.0000 -0.5132034757
O   O38       1.0  0.49235  0.61269  0.02169  1.0000 -0.5132034757
O   O39       1.0  0.02169  0.87327  0.49235  1.0000 -0.5132034757
O   O40       1.0  0.87327  0.02169  0.61269  1.0000 -0.5132034757
O   O41       1.0  0.02169  0.61269  0.87327  1.0000 -0.5132034757
O   O42       1.0  0.87327  0.49235  0.02169  1.0000 -0.5132034757
O   O43       1.0  0.61269  0.02169  0.49235  1.0000 -0.5132034757
O   O44       1.0  0.49235  0.87327  0.61269  1.0000 -0.5132034757
O   O45       1.0  0.49235  0.02169  0.87327  1.0000 -0.5132034757
O   O46       1.0  0.61269  0.87327  0.02169  1.0000 -0.5132034757
O   O47       1.0  0.87327  0.61269  0.49235  1.0000 -0.5132034757
O   O48       1.0  0.02169  0.49235  0.61269  1.0000 -0.5132034757
