# DDEC6 charges by PACMAN v1.1 (https://github.com/mtap-research/PACMAN-charge/)
data_2022[Cd][nan]3[ASR]8
_chemical_formula_sum              "Cd6 H52 C100 N8 O32"
_cell_length_a       9.89637
_cell_length_b       9.89637
_cell_length_c       34.808
_cell_angle_alpha    85.0784
_cell_angle_beta     94.9216
_cell_angle_gamma    84.6802

_symmetry_space_group_name_H-M    "P 1"
_symmetry_Int_Tables_number       1

loop_
  _symmetry_equiv_pos_as_xyz
  'x, y, z'

loop_
  _atom_site_type_symbol
  _atom_site_label
  _atom_site_symmetry_multiplicity
  _atom_site_fract_x
  _atom_site_fract_y
  _atom_site_fract_z
  _atom_site_occupancy
  _atom_site_charge
Cd  Cd1       1.0  0.20769  0.40067  0.64247  1.0000 1.0618205373
Cd  Cd2       1.0  0.40067  0.20769  0.85753  1.0000 1.0618205373
Cd  Cd3       1.0  0.79231  0.59933  0.35753  1.0000 1.0618205373
Cd  Cd4       1.0  0.59933  0.79231  0.14247  1.0000 1.0618205373
Cd  Cd5       1.0  0.65593  0.65593  0.25000  1.0000 0.9883263116
Cd  Cd6       1.0  0.34407  0.34407  0.75000  1.0000 0.9883263116
H   H1        1.0  0.68540  0.32220  0.36310  1.0000 0.126560735
H   H2        1.0  0.89620  0.01160  0.54100  1.0000 0.1202705512
H   H3        1.0  0.66700  0.15200  0.26180  1.0000 0.1385180806
H   H4        1.0  0.69320  0.91560  0.36270  1.0000 0.1202705512
H   H5        1.0  0.58560  0.03660  0.53400  1.0000 0.1115646078
H   H6        1.0  0.71160  0.38880  0.49150  1.0000 0.126560735
H   H7        1.0  0.78040  0.73740  0.46990  1.0000 0.1202705512
H   H8        1.0  0.47760  0.14940  0.57980  1.0000 0.1115646078
H   H9        1.0  0.59880  0.50120  0.53770  1.0000 0.1115646078
H   H10       1.0  0.00080  0.83620  0.58520  1.0000 0.1115646078
H   H11       1.0  0.88270  0.56290  0.51470  1.0000 0.1202705512
H   H12       1.0  0.80600  0.91200  0.42200  1.0000 0.3042301242
H   H13       1.0  0.69800  0.27800  0.42910  1.0000 0.3142757718
H   H14       1.0  0.32220  0.68540  0.13690  1.0000 0.126560735
H   H15       1.0  0.01160  0.89620  0.95900  1.0000 0.1202705512
H   H16       1.0  0.15200  0.66700  0.23820  1.0000 0.1385180806
H   H17       1.0  0.91560  0.69320  0.13730  1.0000 0.1202705512
H   H18       1.0  0.03660  0.58560  0.96600  1.0000 0.1115646078
H   H19       1.0  0.38880  0.71160  0.00850  1.0000 0.126560735
H   H20       1.0  0.73740  0.78040  0.03010  1.0000 0.1202705512
H   H21       1.0  0.14940  0.47760  0.92020  1.0000 0.1115646078
H   H22       1.0  0.50120  0.59880  0.96230  1.0000 0.1115646078
H   H23       1.0  0.83620  0.00080  0.91480  1.0000 0.1115646078
H   H24       1.0  0.56290  0.88270  0.98530  1.0000 0.1202705512
H   H25       1.0  0.91200  0.80600  0.07800  1.0000 0.3042301242
H   H26       1.0  0.27800  0.69800  0.07090  1.0000 0.3142757718
H   H27       1.0  0.31460  0.67780  0.63690  1.0000 0.126560735
H   H28       1.0  0.10380  0.98840  0.45900  1.0000 0.1202705512
H   H29       1.0  0.33300  0.84800  0.73820  1.0000 0.1385180806
H   H30       1.0  0.30680  0.08440  0.63730  1.0000 0.1202705512
H   H31       1.0  0.41440  0.96340  0.46600  1.0000 0.1115646078
H   H32       1.0  0.28840  0.61120  0.50850  1.0000 0.126560735
H   H33       1.0  0.21960  0.26260  0.53010  1.0000 0.1202705512
H   H34       1.0  0.52240  0.85060  0.42020  1.0000 0.1115646078
H   H35       1.0  0.40120  0.49880  0.46230  1.0000 0.1115646078
H   H36       1.0  0.99920  0.16380  0.41480  1.0000 0.1115646078
H   H37       1.0  0.11730  0.43710  0.48530  1.0000 0.1202705512
H   H38       1.0  0.19400  0.08800  0.57800  1.0000 0.3042301242
H   H39       1.0  0.30200  0.72200  0.57090  1.0000 0.3142757718
H   H40       1.0  0.67780  0.31460  0.86310  1.0000 0.126560735
H   H41       1.0  0.98840  0.10380  0.04100  1.0000 0.1202705512
H   H42       1.0  0.84800  0.33300  0.76180  1.0000 0.1385180806
H   H43       1.0  0.08440  0.30680  0.86270  1.0000 0.1202705512
H   H44       1.0  0.96340  0.41440  0.03400  1.0000 0.1115646078
H   H45       1.0  0.61120  0.28840  0.99150  1.0000 0.126560735
H   H46       1.0  0.26260  0.21960  0.96990  1.0000 0.1202705512
H   H47       1.0  0.85060  0.52240  0.07980  1.0000 0.1115646078
H   H48       1.0  0.49880  0.40120  0.03770  1.0000 0.1115646078
H   H49       1.0  0.16380  0.99920  0.08520  1.0000 0.1115646078
H   H50       1.0  0.43710  0.11730  0.01470  1.0000 0.1202705512
H   H51       1.0  0.08800  0.19400  0.92200  1.0000 0.3042301242
H   H52       1.0  0.72200  0.30200  0.92910  1.0000 0.3142757718
C   C1        1.0  0.67630  0.01550  0.30920  1.0000 -0.0073513383
C   C2        1.0  0.67170  0.88950  0.28790  1.0000 0.5722471554
C   C3        1.0  0.68760  0.24480  0.34970  1.0000 -0.1412625035
C   C4        1.0  0.67610  0.39710  0.28750  1.0000 0.5776080792
C   C5        1.0  0.89310  0.92150  0.53550  1.0000 -0.1548974361
C   C6        1.0  0.67310  0.14350  0.28874  1.0000 -0.0808670665
C   C7        1.0  0.82580  0.89340  0.50140  1.0000 0.0514990012
C   C8        1.0  0.69890  0.11510  0.36990  1.0000 -0.0020446273
C   C9        1.0  0.71560  0.09820  0.41230  1.0000 0.2925109719
C   C10       1.0  0.70480  0.13340  0.47467  1.0000 0.0608553841
C   C11       1.0  0.76410  0.00370  0.47180  1.0000 0.0608553841
C   C12       1.0  0.65380  0.20320  0.50697  1.0000 0.0608553841
C   C13       1.0  0.69000  0.00160  0.34940  1.0000 -0.1579523324
C   C14       1.0  0.52660  0.33660  0.56350  1.0000 -0.0218385193
C   C15       1.0  0.58730  0.13030  0.53430  1.0000 -0.1579523324
C   C16       1.0  0.66250  0.34090  0.50870  1.0000 -0.1412625035
C   C17       1.0  0.82370  0.75770  0.49310  1.0000 -0.1412625035
C   C18       1.0  0.67940  0.25760  0.30890  1.0000 -0.0073513383
C   C19       1.0  0.52350  0.19810  0.56190  1.0000 -0.1119047846
C   C20       1.0  0.59610  0.40790  0.53690  1.0000 -0.0888737771
C   C21       1.0  0.95690  0.81630  0.56200  1.0000 -0.119492169
C   C22       1.0  0.43710  0.41150  0.59040  1.0000 0.5722471554
C   C23       1.0  0.88680  0.65320  0.51990  1.0000 -0.0888737771
C   C24       1.0  0.95480  0.68200  0.55360  1.0000 -0.0073513383
C   C25       1.0  0.02950  0.56530  0.58180  1.0000 0.5231666421
C   C26       1.0  0.01550  0.67630  0.19080  1.0000 -0.0073513383
C   C27       1.0  0.88950  0.67170  0.21210  1.0000 0.5722471554
C   C28       1.0  0.24480  0.68760  0.15030  1.0000 -0.1412625035
C   C29       1.0  0.39710  0.67610  0.21250  1.0000 0.5776080792
C   C30       1.0  0.92150  0.89310  0.96450  1.0000 -0.1548974361
C   C31       1.0  0.14350  0.67310  0.21126  1.0000 -0.0808670665
C   C32       1.0  0.89340  0.82580  0.99860  1.0000 0.0514990012
C   C33       1.0  0.11510  0.69890  0.13010  1.0000 -0.0020446273
C   C34       1.0  0.09820  0.71560  0.08770  1.0000 0.2925109719
C   C35       1.0  0.13340  0.70480  0.02533  1.0000 0.0608553841
C   C36       1.0  0.00370  0.76410  0.02820  1.0000 0.0608553841
C   C37       1.0  0.20320  0.65380  0.99303  1.0000 0.0608553841
C   C38       1.0  0.00160  0.69000  0.15060  1.0000 -0.1579523324
C   C39       1.0  0.33660  0.52660  0.93650  1.0000 -0.0218385193
C   C40       1.0  0.13030  0.58730  0.96570  1.0000 -0.1579523324
C   C41       1.0  0.34090  0.66250  0.99130  1.0000 -0.1412625035
C   C42       1.0  0.75770  0.82370  0.00690  1.0000 -0.1412625035
C   C43       1.0  0.25760  0.67940  0.19110  1.0000 -0.0073513383
C   C44       1.0  0.19810  0.52350  0.93810  1.0000 -0.1119047846
C   C45       1.0  0.40790  0.59610  0.96310  1.0000 -0.0888737771
C   C46       1.0  0.81630  0.95690  0.93800  1.0000 -0.119492169
C   C47       1.0  0.41150  0.43710  0.90960  1.0000 0.5722471554
C   C48       1.0  0.65320  0.88680  0.98010  1.0000 -0.0888737771
C   C49       1.0  0.68200  0.95480  0.94640  1.0000 -0.0073513383
C   C50       1.0  0.56530  0.02950  0.91820  1.0000 0.5231666421
C   C51       1.0  0.32370  0.98450  0.69080  1.0000 -0.0020446273
C   C52       1.0  0.32830  0.11050  0.71210  1.0000 0.5722471554
C   C53       1.0  0.31240  0.75520  0.65030  1.0000 -0.1412625035
C   C54       1.0  0.32390  0.60290  0.71250  1.0000 0.5776080792
C   C55       1.0  0.10690  0.07850  0.46450  1.0000 -0.1548974361
C   C56       1.0  0.32690  0.85650  0.71126  1.0000 -0.0808670665
C   C57       1.0  0.17420  0.10660  0.49860  1.0000 0.0514990012
C   C58       1.0  0.30110  0.88490  0.63010  1.0000 -0.0020446273
C   C59       1.0  0.28440  0.90180  0.58770  1.0000 0.2925109719
C   C60       1.0  0.29520  0.86660  0.52533  1.0000 0.0608553841
C   C61       1.0  0.23590  0.99630  0.52820  1.0000 0.0608553841
C   C62       1.0  0.34620  0.79680  0.49303  1.0000 0.0608553841
C   C63       1.0  0.31000  0.99840  0.65060  1.0000 -0.1579523324
C   C64       1.0  0.47340  0.66340  0.43650  1.0000 -0.0218385193
C   C65       1.0  0.41270  0.86970  0.46570  1.0000 -0.1579523324
C   C66       1.0  0.33750  0.65910  0.49130  1.0000 -0.1412625035
C   C67       1.0  0.17630  0.24230  0.50690  1.0000 -0.1412625035
C   C68       1.0  0.32060  0.74240  0.69110  1.0000 -0.0073513383
C   C69       1.0  0.47650  0.80190  0.43810  1.0000 -0.1119047846
C   C70       1.0  0.40390  0.59210  0.46310  1.0000 -0.0888737771
C   C71       1.0  0.04310  0.18370  0.43800  1.0000 -0.119492169
C   C72       1.0  0.56290  0.58850  0.40960  1.0000 0.5722471554
C   C73       1.0  0.11320  0.34680  0.48010  1.0000 -0.0888737771
C   C74       1.0  0.04520  0.31800  0.44640  1.0000 -0.0073513383
C   C75       1.0  0.97050  0.43470  0.41820  1.0000 0.5231666421
C   C76       1.0  0.98450  0.32370  0.80920  1.0000 -0.0073513383
C   C77       1.0  0.11050  0.32830  0.78790  1.0000 0.5722471554
C   C78       1.0  0.75520  0.31240  0.84970  1.0000 -0.1412625035
C   C79       1.0  0.60290  0.32390  0.78750  1.0000 0.5776080792
C   C80       1.0  0.07850  0.10690  0.03550  1.0000 -0.1548974361
C   C81       1.0  0.85650  0.32690  0.78874  1.0000 -0.0808670665
C   C82       1.0  0.10660  0.17420  0.00140  1.0000 0.0514990012
C   C83       1.0  0.88490  0.30110  0.86990  1.0000 -0.0020446273
C   C84       1.0  0.90180  0.28440  0.91230  1.0000 0.2925109719
C   C85       1.0  0.86660  0.29520  0.97467  1.0000 0.0608553841
C   C86       1.0  0.99630  0.23590  0.97180  1.0000 0.0608553841
C   C87       1.0  0.79680  0.34620  0.00697  1.0000 0.0608553841
C   C88       1.0  0.99840  0.31000  0.84940  1.0000 -0.1579523324
C   C89       1.0  0.66340  0.47340  0.06350  1.0000 -0.0218385193
C   C90       1.0  0.86970  0.41270  0.03430  1.0000 -0.1579523324
C   C91       1.0  0.65910  0.33750  0.00870  1.0000 -0.1412625035
C   C92       1.0  0.24230  0.17630  0.99310  1.0000 -0.1412625035
C   C93       1.0  0.74240  0.32060  0.80890  1.0000 -0.0073513383
C   C94       1.0  0.80190  0.47650  0.06190  1.0000 -0.1119047846
C   C95       1.0  0.59210  0.40390  0.03690  1.0000 -0.0888737771
C   C96       1.0  0.18370  0.04310  0.06200  1.0000 -0.119492169
C   C97       1.0  0.58850  0.56290  0.09040  1.0000 0.5722471554
C   C98       1.0  0.34680  0.11320  0.01990  1.0000 -0.0888737771
C   C99       1.0  0.31800  0.04520  0.05360  1.0000 -0.0073513383
C   C100      1.0  0.43470  0.97050  0.08180  1.0000 0.5231666421
N   N1        1.0  0.67570  0.19130  0.43650  1.0000 -0.2794236536
N   N2        1.0  0.77000  0.98380  0.43308  1.0000 -0.286430716
N   N3        1.0  0.19130  0.67570  0.06350  1.0000 -0.2794236536
N   N4        1.0  0.98380  0.77000  0.06692  1.0000 -0.286430716
N   N5        1.0  0.32430  0.80870  0.56350  1.0000 -0.2794236536
N   N6        1.0  0.23000  0.01620  0.56692  1.0000 -0.286430716
N   N7        1.0  0.80870  0.32430  0.93650  1.0000 -0.2794236536
N   N8        1.0  0.01620  0.23000  0.93308  1.0000 -0.286430716
O   O1        1.0  0.68860  0.49800  0.30656  1.0000 -0.5698163729
O   O2        1.0  0.66300  0.40480  0.25124  1.0000 -0.4925858597
O   O3        1.0  0.63970  0.90270  0.25163  1.0000 -0.5127947177
O   O4        1.0  0.68790  0.77510  0.30686  1.0000 -0.5698163729
O   O5        1.0  0.42720  0.53680  0.58900  1.0000 -0.5459370609
O   O6        1.0  0.09550  0.58530  0.60870  1.0000 -0.4729958768
O   O7        1.0  0.38450  0.33370  0.61560  1.0000 -0.5805576141
O   O8        1.0  0.01550  0.44890  0.57240  1.0000 -0.5257450189
O   O9        1.0  0.49800  0.68860  0.19344  1.0000 -0.5698163729
O   O10       1.0  0.40480  0.66300  0.24876  1.0000 -0.4925858597
O   O11       1.0  0.90270  0.63970  0.24837  1.0000 -0.5127947177
O   O12       1.0  0.77510  0.68790  0.19314  1.0000 -0.5698163729
O   O13       1.0  0.53680  0.42720  0.91100  1.0000 -0.5459370609
O   O14       1.0  0.58530  0.09550  0.89130  1.0000 -0.4729958768
O   O15       1.0  0.33370  0.38450  0.88440  1.0000 -0.5805576141
O   O16       1.0  0.44890  0.01550  0.92760  1.0000 -0.5257450189
O   O17       1.0  0.31140  0.50200  0.69344  1.0000 -0.5698163729
O   O18       1.0  0.33700  0.59520  0.74876  1.0000 -0.4925858597
O   O19       1.0  0.36030  0.09730  0.74837  1.0000 -0.5127947177
O   O20       1.0  0.31210  0.22490  0.69314  1.0000 -0.5698163729
O   O21       1.0  0.57280  0.46320  0.41100  1.0000 -0.5459370609
O   O22       1.0  0.90450  0.41470  0.39130  1.0000 -0.4729958768
O   O23       1.0  0.61550  0.66630  0.38440  1.0000 -0.5805576141
O   O24       1.0  0.98450  0.55110  0.42760  1.0000 -0.5257450189
O   O25       1.0  0.50200  0.31140  0.80656  1.0000 -0.5698163729
O   O26       1.0  0.59520  0.33700  0.75124  1.0000 -0.4925858597
O   O27       1.0  0.09730  0.36030  0.75163  1.0000 -0.5127947177
O   O28       1.0  0.22490  0.31210  0.80686  1.0000 -0.5698163729
O   O29       1.0  0.46320  0.57280  0.08900  1.0000 -0.5459370609
O   O30       1.0  0.41470  0.90450  0.10870  1.0000 -0.4729958768
O   O31       1.0  0.66630  0.61550  0.11560  1.0000 -0.5805576141
O   O32       1.0  0.55110  0.98450  0.07240  1.0000 -0.5257450189
