# DDEC6 charges by PACMAN v1.1 (https://github.com/mtap-research/PACMAN-charge/)
data_2022[Y][nan]3[ASR]1
_chemical_formula_sum              "Y8 H32 C68 N4 O48"
_cell_length_a       16.8935
_cell_length_b       16.8935
_cell_length_c       16.8935
_cell_angle_alpha    103.133
_cell_angle_beta     103.133
_cell_angle_gamma    123.063

_symmetry_space_group_name_H-M    "P 1"
_symmetry_Int_Tables_number       1

loop_
  _symmetry_equiv_pos_as_xyz
  'x, y, z'

loop_
  _atom_site_type_symbol
  _atom_site_label
  _atom_site_symmetry_multiplicity
  _atom_site_fract_x
  _atom_site_fract_y
  _atom_site_fract_z
  _atom_site_occupancy
  _atom_site_charge
Y   Y1        1.0  0.97425  0.87052  0.84477  1.0000 1.8578136354
Y   Y2        1.0  0.02575  0.12948  0.15523  1.0000 1.8578136354
Y   Y3        1.0  0.12948  0.97425  0.10373  1.0000 1.8578136354
Y   Y4        1.0  0.87052  0.02575  0.89627  1.0000 1.8578136354
Y   Y5        1.0  0.83487  0.83487  0.00000  1.0000 1.8578136354
Y   Y6        1.0  0.16513  0.16513  0.00000  1.0000 1.8578136354
Y   Y7        1.0  0.75000  0.25000  0.50000  1.0000 1.6471472968
Y   Y8        1.0  0.25000  0.75000  0.50000  1.0000 1.6471472968
H   H1        1.0  0.77494  0.52297  0.69461  1.0000 0.1598801724
H   H2        1.0  0.53296  0.23640  0.65372  1.0000 0.1598801724
H   H3        1.0  0.60370  0.49092  0.83628  1.0000 0.1363749158
H   H4        1.0  0.82836  0.08033  0.30539  1.0000 0.1598801724
H   H5        1.0  0.58268  0.87924  0.34628  1.0000 0.1598801724
H   H6        1.0  0.65464  0.76742  0.16372  1.0000 0.1363749158
H   H7        1.0  0.08033  0.77494  0.25197  1.0000 0.1598801724
H   H8        1.0  0.87924  0.53296  0.29656  1.0000 0.1598801724
H   H9        1.0  0.76742  0.60370  0.11278  1.0000 0.1363749158
H   H10       1.0  0.52297  0.82836  0.74803  1.0000 0.1598801724
H   H11       1.0  0.23640  0.58268  0.70344  1.0000 0.1598801724
H   H12       1.0  0.49092  0.65464  0.88722  1.0000 0.1363749158
H   H13       1.0  0.22506  0.47703  0.30539  1.0000 0.1598801724
H   H14       1.0  0.46704  0.76360  0.34628  1.0000 0.1598801724
H   H15       1.0  0.39630  0.50908  0.16372  1.0000 0.1363749158
H   H16       1.0  0.17164  0.91967  0.69461  1.0000 0.1598801724
H   H17       1.0  0.41732  0.12076  0.65372  1.0000 0.1598801724
H   H18       1.0  0.34536  0.23258  0.83628  1.0000 0.1363749158
H   H19       1.0  0.91967  0.22506  0.74803  1.0000 0.1598801724
H   H20       1.0  0.12076  0.46704  0.70344  1.0000 0.1598801724
H   H21       1.0  0.23258  0.39630  0.88722  1.0000 0.1363749158
H   H22       1.0  0.47703  0.17164  0.25197  1.0000 0.1598801724
H   H23       1.0  0.76360  0.41732  0.29656  1.0000 0.1598801724
H   H24       1.0  0.50908  0.34536  0.11278  1.0000 0.1363749158
H   H25       1.0  0.83677  0.75053  0.58730  1.0000 0.078847804
H   H26       1.0  0.16323  0.24947  0.41270  1.0000 0.078847804
H   H27       1.0  0.24947  0.83677  0.08624  1.0000 0.078847804
H   H28       1.0  0.75053  0.16323  0.91376  1.0000 0.078847804
H   H29       1.0  0.47118  0.34153  0.81271  1.0000 0.297863922
H   H30       1.0  0.52882  0.65847  0.18729  1.0000 0.297863922
H   H31       1.0  0.65847  0.47118  0.12965  1.0000 0.297863922
H   H32       1.0  0.34153  0.52882  0.87035  1.0000 0.297863922
C   C1        1.0  0.76400  0.64130  0.82130  1.0000 0.6299037029
C   C2        1.0  0.71860  0.48090  0.70830  1.0000 -0.080327035
C   C3        1.0  0.65530  0.37280  0.66810  1.0000 0.0228701848
C   C4        1.0  0.57530  0.31020  0.68510  1.0000 -0.1414903208
C   C5        1.0  0.55540  0.35250  0.74710  1.0000 0.2141722505
C   C6        1.0  0.61640  0.46080  0.79120  1.0000 -0.194815592
C   C7        1.0  0.68220  0.32670  0.60270  1.0000 0.5760909607
C   C8        1.0  0.69530  0.52450  0.76940  1.0000 0.0076765148
C   C9        1.0  0.82000  0.94270  0.17870  1.0000 0.6299037029
C   C10       1.0  0.77260  0.01030  0.29170  1.0000 -0.080327035
C   C11       1.0  0.70470  0.98720  0.33190  1.0000 0.0228701848
C   C12       1.0  0.62510  0.89020  0.31490  1.0000 -0.1414903208
C   C13       1.0  0.60540  0.80830  0.25290  1.0000 0.2141722505
C   C14       1.0  0.66960  0.82520  0.20880  1.0000 -0.1960361312
C   C15       1.0  0.72400  0.07950  0.39730  1.0000 0.5760909607
C   C16       1.0  0.75510  0.92590  0.23060  1.0000 0.0076765148
C   C17       1.0  0.94270  0.76400  0.12270  1.0000 0.6299037029
C   C18       1.0  0.01030  0.71860  0.23770  1.0000 -0.080327035
C   C19       1.0  0.98720  0.65530  0.28250  1.0000 0.0228701848
C   C20       1.0  0.89020  0.57530  0.26510  1.0000 -0.1414903208
C   C21       1.0  0.80830  0.55540  0.20290  1.0000 0.2141722505
C   C22       1.0  0.82520  0.61640  0.15560  1.0000 -0.1960361312
C   C23       1.0  0.07950  0.68220  0.35550  1.0000 0.5760909607
C   C24       1.0  0.92590  0.69530  0.17080  1.0000 0.0076765148
C   C25       1.0  0.64130  0.82000  0.87730  1.0000 0.6299037029
C   C26       1.0  0.48090  0.77260  0.76230  1.0000 -0.080327035
C   C27       1.0  0.37280  0.70470  0.71750  1.0000 0.0228701848
C   C28       1.0  0.31020  0.62510  0.73490  1.0000 -0.1414903208
C   C29       1.0  0.35250  0.60540  0.79710  1.0000 0.2141722505
C   C30       1.0  0.46080  0.66960  0.84440  1.0000 -0.194815592
C   C31       1.0  0.32670  0.72400  0.64450  1.0000 0.5760909607
C   C32       1.0  0.52450  0.75510  0.82920  1.0000 0.0076765148
C   C33       1.0  0.23600  0.35870  0.17870  1.0000 0.6299037029
C   C34       1.0  0.28140  0.51910  0.29170  1.0000 -0.080327035
C   C35       1.0  0.34470  0.62720  0.33190  1.0000 0.0228701848
C   C36       1.0  0.42470  0.68980  0.31490  1.0000 -0.1414903208
C   C37       1.0  0.44460  0.64750  0.25290  1.0000 0.2141722505
C   C38       1.0  0.38360  0.53920  0.20880  1.0000 -0.1960361312
C   C39       1.0  0.31780  0.67330  0.39730  1.0000 0.5760909607
C   C40       1.0  0.30470  0.47550  0.23060  1.0000 0.0076765148
C   C41       1.0  0.18000  0.05730  0.82130  1.0000 0.6299037029
C   C42       1.0  0.22740  0.98970  0.70830  1.0000 -0.080327035
C   C43       1.0  0.29530  0.01280  0.66810  1.0000 0.0228701848
C   C44       1.0  0.37490  0.10980  0.68510  1.0000 -0.1414903208
C   C45       1.0  0.39460  0.19170  0.74710  1.0000 0.2141722505
C   C46       1.0  0.33040  0.17480  0.79120  1.0000 -0.1960361312
C   C47       1.0  0.27600  0.92050  0.60270  1.0000 0.5760909607
C   C48       1.0  0.24490  0.07410  0.76940  1.0000 0.0076765148
C   C49       1.0  0.05730  0.23600  0.87730  1.0000 0.6299037029
C   C50       1.0  0.98970  0.28140  0.76230  1.0000 -0.080327035
C   C51       1.0  0.01280  0.34470  0.71750  1.0000 0.0228701848
C   C52       1.0  0.10980  0.42470  0.73490  1.0000 -0.1414903208
C   C53       1.0  0.19170  0.44460  0.79710  1.0000 0.2141722505
C   C54       1.0  0.17480  0.38360  0.84440  1.0000 -0.194815592
C   C55       1.0  0.92050  0.31780  0.64450  1.0000 0.5760909607
C   C56       1.0  0.07410  0.30470  0.82920  1.0000 0.0076765148
C   C57       1.0  0.35870  0.18000  0.12270  1.0000 0.6299037029
C   C58       1.0  0.51910  0.22740  0.23770  1.0000 -0.080327035
C   C59       1.0  0.62720  0.29530  0.28250  1.0000 0.0228701848
C   C60       1.0  0.68980  0.37490  0.26510  1.0000 -0.1414903208
C   C61       1.0  0.64750  0.39460  0.20290  1.0000 0.2141722505
C   C62       1.0  0.53920  0.33040  0.15560  1.0000 -0.1960361312
C   C63       1.0  0.67330  0.27600  0.35550  1.0000 0.5760909607
C   C64       1.0  0.47550  0.24490  0.17080  1.0000 0.0076765148
C   C65       1.0  0.87370  0.77700  0.65070  1.0000 0.4534516175
C   C66       1.0  0.12630  0.22300  0.34930  1.0000 0.4534516175
C   C67       1.0  0.22300  0.87370  0.09670  1.0000 0.4534516175
C   C68       1.0  0.77700  0.12630  0.90330  1.0000 0.4534516175
N   N1        1.0  0.47350  0.29970  0.77320  1.0000 -0.3074617495
N   N2        1.0  0.52650  0.70030  0.22680  1.0000 -0.3040934811
N   N3        1.0  0.70030  0.47350  0.17380  1.0000 -0.3074617495
N   N4        1.0  0.29970  0.52650  0.82620  1.0000 -0.3074617495
O   O1        1.0  0.12530  0.00460  0.97630  1.0000 -0.8392073778
O   O2        1.0  0.74820  0.67640  0.88400  1.0000 -0.5418219775
O   O3        1.0  0.83430  0.69650  0.79820  1.0000 -0.5163413296
O   O4        1.0  0.75990  0.38670  0.58660  1.0000 -0.5656591515
O   O5        1.0  0.63380  0.22850  0.56870  1.0000 -0.5418219775
O   O6        1.0  0.02830  0.14900  0.02370  1.0000 -0.8392073778
O   O7        1.0  0.79240  0.86420  0.11600  1.0000 -0.5418219775
O   O8        1.0  0.89830  0.03610  0.20180  1.0000 -0.5163413296
O   O9        1.0  0.80010  0.17330  0.41340  1.0000 -0.5656591515
O   O10       1.0  0.65980  0.06510  0.43130  1.0000 -0.5418219775
O   O11       1.0  0.14900  0.12530  0.12070  1.0000 -0.8392073778
O   O12       1.0  0.86420  0.74820  0.07180  1.0000 -0.5418219775
O   O13       1.0  0.03610  0.83430  0.13780  1.0000 -0.5163413296
O   O14       1.0  0.17330  0.75990  0.37320  1.0000 -0.5656591515
O   O15       1.0  0.06510  0.63380  0.40530  1.0000 -0.5418219775
O   O16       1.0  0.00460  0.02830  0.87930  1.0000 -0.8392073778
O   O17       1.0  0.67640  0.79240  0.92820  1.0000 -0.5418219775
O   O18       1.0  0.69650  0.89830  0.86220  1.0000 -0.5163413296
O   O19       1.0  0.38670  0.80010  0.62680  1.0000 -0.5656591515
O   O20       1.0  0.22850  0.65980  0.59470  1.0000 -0.5418219775
O   O21       1.0  0.87470  0.99540  0.02370  1.0000 -0.8392073778
O   O22       1.0  0.25180  0.32360  0.11600  1.0000 -0.5418219775
O   O23       1.0  0.16570  0.30350  0.20180  1.0000 -0.5163413296
O   O24       1.0  0.24010  0.61330  0.41340  1.0000 -0.5656591515
O   O25       1.0  0.36620  0.77150  0.43130  1.0000 -0.5418219775
O   O26       1.0  0.97170  0.85100  0.97630  1.0000 -0.8392073778
O   O27       1.0  0.20760  0.13580  0.88400  1.0000 -0.5418219775
O   O28       1.0  0.10170  0.96390  0.79820  1.0000 -0.5163413296
O   O29       1.0  0.19990  0.82670  0.58660  1.0000 -0.5656591515
O   O30       1.0  0.34020  0.93490  0.56870  1.0000 -0.5418219775
O   O31       1.0  0.85100  0.87470  0.87930  1.0000 -0.8392073778
O   O32       1.0  0.13580  0.25180  0.92820  1.0000 -0.5418219775
O   O33       1.0  0.96390  0.16570  0.86220  1.0000 -0.5163413296
O   O34       1.0  0.82670  0.24010  0.62680  1.0000 -0.5656591515
O   O35       1.0  0.93490  0.36620  0.59470  1.0000 -0.5418219775
O   O36       1.0  0.99540  0.97170  0.12070  1.0000 -0.8317593942
O   O37       1.0  0.32360  0.20760  0.07180  1.0000 -0.5418219775
O   O38       1.0  0.30350  0.10170  0.13780  1.0000 -0.5163413296
O   O39       1.0  0.61330  0.19990  0.37320  1.0000 -0.5656591515
O   O40       1.0  0.77150  0.34020  0.40530  1.0000 -0.5418219775
O   O41       1.0  0.86890  0.84150  0.71040  1.0000 -0.5418219775
O   O42       1.0  0.93520  0.74950  0.68470  1.0000 -0.5611341308
O   O43       1.0  0.13110  0.15850  0.28960  1.0000 -0.5457143794
O   O44       1.0  0.06480  0.25050  0.31530  1.0000 -0.5611341308
O   O45       1.0  0.15850  0.86890  0.02740  1.0000 -0.5457143794
O   O46       1.0  0.25050  0.93520  0.18570  1.0000 -0.5611341308
O   O47       1.0  0.84150  0.13110  0.97260  1.0000 -0.5418219775
O   O48       1.0  0.74950  0.06480  0.81430  1.0000 -0.5611341308
