# DDEC6 charges by PACMAN v1.1 (https://github.com/mtap-research/PACMAN-charge/)
data_2022[Zr][sqc]3[ASR]1
_chemical_formula_sum              "Zr12 H80 C136 N8 O48"
_cell_length_a       32.2981
_cell_length_b       32.2981
_cell_length_c       32.2981
_cell_angle_alpha    150.663
_cell_angle_beta     150.663
_cell_angle_gamma    41.9689

_symmetry_space_group_name_H-M    "P 1"
_symmetry_Int_Tables_number       1

loop_
  _symmetry_equiv_pos_as_xyz
  'x, y, z'

loop_
  _atom_site_type_symbol
  _atom_site_label
  _atom_site_symmetry_multiplicity
  _atom_site_fract_x
  _atom_site_fract_y
  _atom_site_fract_z
  _atom_site_occupancy
  _atom_site_charge
Zr  Zr1       1.0  0.95941  0.95941  0.00000  1.0000 2.3368671233
Zr  Zr2       1.0  0.70941  0.20941  0.50000  1.0000 2.3336820895
Zr  Zr3       1.0  0.79059  0.29059  0.50000  1.0000 2.3336820895
Zr  Zr4       1.0  0.04059  0.04059  0.00000  1.0000 2.3368671233
Zr  Zr5       1.0  0.10836  0.10836  0.21672  1.0000 2.4502870733
Zr  Zr6       1.0  0.89164  0.89164  0.78328  1.0000 2.4502870733
Zr  Zr7       1.0  0.85836  0.14164  0.50000  1.0000 2.4502870733
Zr  Zr8       1.0  0.64164  0.35836  0.50000  1.0000 2.4502870733
Zr  Zr9       1.0  0.64164  0.14164  0.28328  1.0000 2.4502870733
Zr  Zr10      1.0  0.85836  0.35836  0.71672  1.0000 2.4502870733
Zr  Zr11      1.0  0.89164  0.10836  0.00000  1.0000 2.4502870733
Zr  Zr12      1.0  0.10836  0.89164  0.00000  1.0000 2.4502870733
H   H1        1.0  0.77957  0.79576  0.76707  1.0000 0.123683909
H   H2        1.0  0.66925  0.73620  0.51213  1.0000 0.1093069854
H   H3        1.0  0.67416  0.71918  0.64410  1.0000 0.123683909
H   H4        1.0  0.56264  0.65503  0.38287  1.0000 0.123683909
H   H5        1.0  0.43291  0.50017  0.20950  1.0000 0.123683909
H   H6        1.0  0.02869  0.01250  0.23293  1.0000 0.123683909
H   H7        1.0  0.22407  0.15712  0.48787  1.0000 0.1093069854
H   H8        1.0  0.07508  0.03006  0.35590  1.0000 0.123683909
H   H9        1.0  0.27216  0.17977  0.61713  1.0000 0.123683909
H   H10       1.0  0.29067  0.22341  0.79050  1.0000 0.123683909
H   H11       1.0  0.54576  0.27869  0.51619  1.0000 0.123683909
H   H12       1.0  0.48620  0.47407  0.56695  1.0000 0.1093069854
H   H13       1.0  0.46918  0.32508  0.54502  1.0000 0.123683909
H   H14       1.0  0.40503  0.52216  0.59239  1.0000 0.123683909
H   H15       1.0  0.25017  0.54067  0.56726  1.0000 0.123683909
H   H16       1.0  0.76250  0.02957  0.48381  1.0000 0.123683909
H   H17       1.0  0.90712  0.91925  0.43305  1.0000 0.1093069854
H   H18       1.0  0.78006  0.92416  0.45498  1.0000 0.123683909
H   H19       1.0  0.92977  0.81264  0.40761  1.0000 0.123683909
H   H20       1.0  0.97341  0.68291  0.43274  1.0000 0.123683909
H   H21       1.0  0.72131  0.45424  0.48381  1.0000 0.123683909
H   H22       1.0  0.52593  0.51380  0.43305  1.0000 0.1093069854
H   H23       1.0  0.67492  0.53082  0.45498  1.0000 0.123683909
H   H24       1.0  0.47784  0.59497  0.40761  1.0000 0.123683909
H   H25       1.0  0.45933  0.74983  0.43274  1.0000 0.123683909
H   H26       1.0  0.97043  0.23750  0.51619  1.0000 0.123683909
H   H27       1.0  0.08075  0.09288  0.56695  1.0000 0.1093069854
H   H28       1.0  0.07584  0.21994  0.54502  1.0000 0.123683909
H   H29       1.0  0.18736  0.07023  0.59239  1.0000 0.123683909
H   H30       1.0  0.31709  0.02659  0.56726  1.0000 0.123683909
H   H31       1.0  0.98750  0.97131  0.76707  1.0000 0.123683909
H   H32       1.0  0.84288  0.77593  0.51213  1.0000 0.1093069854
H   H33       1.0  0.96994  0.92492  0.64410  1.0000 0.123683909
H   H34       1.0  0.82023  0.72784  0.38287  1.0000 0.123683909
H   H35       1.0  0.77659  0.70933  0.20950  1.0000 0.123683909
H   H36       1.0  0.20424  0.22043  0.23293  1.0000 0.123683909
H   H37       1.0  0.26380  0.33075  0.48787  1.0000 0.1093069854
H   H38       1.0  0.28082  0.32584  0.35590  1.0000 0.123683909
H   H39       1.0  0.34497  0.43736  0.61713  1.0000 0.123683909
H   H40       1.0  0.49983  0.56709  0.79050  1.0000 0.123683909
H   H41       1.0  0.97043  0.45424  0.73293  1.0000 0.123683909
H   H42       1.0  0.08075  0.51380  0.98787  1.0000 0.1093069854
H   H43       1.0  0.07584  0.53082  0.85590  1.0000 0.123683909
H   H44       1.0  0.18736  0.59497  0.11713  1.0000 0.123683909
H   H45       1.0  0.31709  0.74983  0.29050  1.0000 0.123683909
H   H46       1.0  0.72131  0.23750  0.26707  1.0000 0.123683909
H   H47       1.0  0.52593  0.09288  0.01213  1.0000 0.1093069854
H   H48       1.0  0.67492  0.21994  0.14410  1.0000 0.123683909
H   H49       1.0  0.47784  0.07023  0.88287  1.0000 0.123683909
H   H50       1.0  0.45933  0.02659  0.70950  1.0000 0.123683909
H   H51       1.0  0.20424  0.97131  0.98381  1.0000 0.123683909
H   H52       1.0  0.26380  0.77593  0.93305  1.0000 0.1093069854
H   H53       1.0  0.28082  0.92492  0.95498  1.0000 0.123683909
H   H54       1.0  0.34497  0.72784  0.90761  1.0000 0.123683909
H   H55       1.0  0.49983  0.70933  0.93274  1.0000 0.123683909
H   H56       1.0  0.98750  0.22043  0.01619  1.0000 0.123683909
H   H57       1.0  0.84288  0.33075  0.06695  1.0000 0.1093069854
H   H58       1.0  0.96994  0.32584  0.04502  1.0000 0.123683909
H   H59       1.0  0.82023  0.43736  0.09239  1.0000 0.123683909
H   H60       1.0  0.77659  0.56709  0.06726  1.0000 0.123683909
H   H61       1.0  0.02869  0.79576  0.01619  1.0000 0.123683909
H   H62       1.0  0.22407  0.73620  0.06695  1.0000 0.1093069854
H   H63       1.0  0.07508  0.71918  0.04502  1.0000 0.123683909
H   H64       1.0  0.27216  0.65503  0.09239  1.0000 0.123683909
H   H65       1.0  0.29067  0.50017  0.06726  1.0000 0.123683909
H   H66       1.0  0.77957  0.01250  0.98381  1.0000 0.123683909
H   H67       1.0  0.66925  0.15712  0.93305  1.0000 0.1093069854
H   H68       1.0  0.67416  0.03006  0.95498  1.0000 0.123683909
H   H69       1.0  0.56264  0.17977  0.90761  1.0000 0.123683909
H   H70       1.0  0.43291  0.22341  0.93274  1.0000 0.123683909
H   H71       1.0  0.76250  0.27869  0.73293  1.0000 0.123683909
H   H72       1.0  0.90712  0.47407  0.98787  1.0000 0.1093069854
H   H73       1.0  0.78006  0.32508  0.85590  1.0000 0.123683909
H   H74       1.0  0.92977  0.52216  0.11713  1.0000 0.1328437323
H   H75       1.0  0.97341  0.54067  0.29050  1.0000 0.123683909
H   H76       1.0  0.54576  0.02957  0.26707  1.0000 0.123683909
H   H77       1.0  0.48620  0.91925  0.01213  1.0000 0.1093069854
H   H78       1.0  0.46918  0.92416  0.14410  1.0000 0.123683909
H   H79       1.0  0.40503  0.81264  0.88287  1.0000 0.123683909
H   H80       1.0  0.25017  0.68291  0.70950  1.0000 0.123683909
C   C1        1.0  0.80388  0.82488  0.73520  1.0000 0.6219663615
C   C2        1.0  0.73359  0.77459  0.65180  1.0000 -0.0698938247
C   C3        1.0  0.73488  0.76778  0.68890  1.0000 -0.0858884469
C   C4        1.0  0.67049  0.73259  0.53910  1.0000 -0.0797942384
C   C5        1.0  0.67280  0.72110  0.61550  1.0000 -0.2002161249
C   C6        1.0  0.60665  0.68345  0.46120  1.0000 -0.2002161249
C   C7        1.0  0.60819  0.67679  0.49900  1.0000 0.1658644168
C   C8        1.0  0.40959  0.55119  0.22640  1.0000 -0.1733878698
C   C9        1.0  0.08968  0.06868  0.26480  1.0000 0.6219663615
C   C10       1.0  0.12279  0.08179  0.34820  1.0000 -0.0698938247
C   C11       1.0  0.07888  0.04598  0.31110  1.0000 -0.0858884469
C   C12       1.0  0.19349  0.13139  0.46090  1.0000 -0.0797942384
C   C13       1.0  0.10560  0.05730  0.38450  1.0000 -0.2002161249
C   C14       1.0  0.22225  0.14545  0.53880  1.0000 -0.2002161249
C   C15       1.0  0.17779  0.10919  0.50100  1.0000 0.1658644168
C   C16       1.0  0.32479  0.18319  0.77360  1.0000 -0.1733878698
C   C17       1.0  0.57488  0.33968  0.52100  1.0000 0.6219663615
C   C18       1.0  0.52459  0.37279  0.54100  1.0000 -0.0698938247
C   C19       1.0  0.51778  0.32888  0.53290  1.0000 -0.0858884469
C   C20       1.0  0.48259  0.44349  0.56210  1.0000 -0.0797942384
C   C21       1.0  0.47110  0.35560  0.54830  1.0000 -0.2002161249
C   C22       1.0  0.43345  0.47225  0.57680  1.0000 -0.2002161249
C   C23       1.0  0.42679  0.42779  0.56860  1.0000 0.1658644168
C   C24       1.0  0.30119  0.57479  0.64160  1.0000 -0.1733878698
C   C25       1.0  0.81868  0.05388  0.47900  1.0000 0.6219663615
C   C26       1.0  0.83179  0.98359  0.45900  1.0000 -0.0698938247
C   C27       1.0  0.79598  0.98488  0.46710  1.0000 -0.0858884469
C   C28       1.0  0.88139  0.92049  0.43790  1.0000 -0.0797942384
C   C29       1.0  0.80730  0.92280  0.45170  1.0000 -0.2002161249
C   C30       1.0  0.89545  0.85665  0.42320  1.0000 -0.2002161249
C   C31       1.0  0.85919  0.85819  0.43140  1.0000 0.1658644168
C   C32       1.0  0.93319  0.65959  0.35840  1.0000 -0.1733878698
C   C33       1.0  0.66032  0.42512  0.47900  1.0000 0.6219663615
C   C34       1.0  0.62721  0.47541  0.45900  1.0000 -0.0698938247
C   C35       1.0  0.67112  0.48222  0.46710  1.0000 -0.0858884469
C   C36       1.0  0.55651  0.51741  0.43790  1.0000 -0.0797942384
C   C37       1.0  0.64440  0.52890  0.45170  1.0000 -0.2002161249
C   C38       1.0  0.52775  0.56655  0.42320  1.0000 -0.2002161249
C   C39       1.0  0.57221  0.57321  0.43140  1.0000 0.1658644168
C   C40       1.0  0.42521  0.69881  0.35840  1.0000 -0.1733878698
C   C41       1.0  0.94612  0.18132  0.52100  1.0000 0.6219663615
C   C42       1.0  0.01641  0.16821  0.54100  1.0000 -0.0698938247
C   C43       1.0  0.01512  0.20402  0.53290  1.0000 -0.0858884469
C   C44       1.0  0.07951  0.11861  0.56210  1.0000 -0.0797942384
C   C45       1.0  0.07720  0.19270  0.54830  1.0000 -0.2002161249
C   C46       1.0  0.14335  0.10455  0.57680  1.0000 -0.2002161249
C   C47       1.0  0.14181  0.14081  0.56860  1.0000 0.1658644168
C   C48       1.0  0.34041  0.06681  0.64160  1.0000 -0.1733878698
C   C49       1.0  0.93132  0.91032  0.73520  1.0000 0.6219663615
C   C50       1.0  0.91821  0.87721  0.65180  1.0000 -0.0698938247
C   C51       1.0  0.95402  0.92112  0.68890  1.0000 -0.0858884469
C   C52       1.0  0.86861  0.80651  0.53910  1.0000 -0.0797942384
C   C53       1.0  0.94270  0.89440  0.61550  1.0000 -0.2002161249
C   C54       1.0  0.85455  0.77775  0.46120  1.0000 -0.2002161249
C   C55       1.0  0.89081  0.82221  0.49900  1.0000 0.1658644168
C   C56       1.0  0.81681  0.67521  0.22640  1.0000 -0.1733878698
C   C57       1.0  0.17512  0.19612  0.26480  1.0000 0.6219663615
C   C58       1.0  0.22541  0.26641  0.34820  1.0000 -0.0698938247
C   C59       1.0  0.23222  0.26512  0.31110  1.0000 -0.0858884469
C   C60       1.0  0.26741  0.32951  0.46090  1.0000 -0.0797942384
C   C61       1.0  0.27890  0.32720  0.38450  1.0000 -0.2002161249
C   C62       1.0  0.31655  0.39335  0.53880  1.0000 -0.2002161249
C   C63       1.0  0.32321  0.39181  0.50100  1.0000 0.1658644168
C   C64       1.0  0.44881  0.59041  0.77360  1.0000 -0.1733878698
C   C65       1.0  0.94612  0.42512  0.76480  1.0000 0.6219663615
C   C66       1.0  0.01641  0.47541  0.84820  1.0000 -0.0698938247
C   C67       1.0  0.01512  0.48222  0.81110  1.0000 -0.0858884469
C   C68       1.0  0.07951  0.51741  0.96090  1.0000 -0.0797942384
C   C69       1.0  0.07720  0.52890  0.88450  1.0000 -0.2002161249
C   C70       1.0  0.14335  0.56655  0.03880  1.0000 -0.2002161249
C   C71       1.0  0.14181  0.57321  0.00100  1.0000 0.1658644168
C   C72       1.0  0.34041  0.69881  0.27360  1.0000 -0.1733878698
C   C73       1.0  0.66032  0.18132  0.23520  1.0000 0.6219663615
C   C74       1.0  0.62721  0.16821  0.15180  1.0000 -0.0698938247
C   C75       1.0  0.67112  0.20402  0.18890  1.0000 -0.0858884469
C   C76       1.0  0.55651  0.11861  0.03910  1.0000 -0.0797942384
C   C77       1.0  0.64440  0.19270  0.11550  1.0000 -0.2002161249
C   C78       1.0  0.52775  0.10455  0.96120  1.0000 -0.2002161249
C   C79       1.0  0.57221  0.14081  0.99900  1.0000 0.1658644168
C   C80       1.0  0.42521  0.06681  0.72640  1.0000 -0.1733878698
C   C81       1.0  0.17512  0.91032  0.97900  1.0000 0.6219663615
C   C82       1.0  0.22541  0.87721  0.95900  1.0000 -0.0698938247
C   C83       1.0  0.23222  0.92112  0.96710  1.0000 -0.0858884469
C   C84       1.0  0.26741  0.80651  0.93790  1.0000 -0.0797942384
C   C85       1.0  0.27890  0.89440  0.95170  1.0000 -0.2002161249
C   C86       1.0  0.31655  0.77775  0.92320  1.0000 -0.2002161249
C   C87       1.0  0.32321  0.82221  0.93140  1.0000 0.1658644168
C   C88       1.0  0.44881  0.67521  0.85840  1.0000 -0.1733878698
C   C89       1.0  0.93132  0.19612  0.02100  1.0000 0.6219663615
C   C90       1.0  0.91821  0.26641  0.04100  1.0000 -0.0698938247
C   C91       1.0  0.95402  0.26512  0.03290  1.0000 -0.0858884469
C   C92       1.0  0.86861  0.32951  0.06210  1.0000 -0.0797942384
C   C93       1.0  0.94270  0.32720  0.04830  1.0000 -0.2002161249
C   C94       1.0  0.85455  0.39335  0.07680  1.0000 -0.2002161249
C   C95       1.0  0.89081  0.39181  0.06860  1.0000 0.1658644168
C   C96       1.0  0.81681  0.59041  0.14160  1.0000 -0.1733878698
C   C97       1.0  0.08968  0.82488  0.02100  1.0000 0.6219663615
C   C98       1.0  0.12279  0.77459  0.04100  1.0000 -0.0698938247
C   C99       1.0  0.07888  0.76778  0.03290  1.0000 -0.0858884469
C   C100      1.0  0.19349  0.73259  0.06210  1.0000 -0.0797942384
C   C101      1.0  0.10560  0.72110  0.04830  1.0000 -0.2002161249
C   C102      1.0  0.22225  0.68345  0.07680  1.0000 -0.2002161249
C   C103      1.0  0.17779  0.67679  0.06860  1.0000 0.1658644168
C   C104      1.0  0.32479  0.55119  0.14160  1.0000 -0.1733878698
C   C105      1.0  0.80388  0.06868  0.97900  1.0000 0.6219663615
C   C106      1.0  0.73359  0.08179  0.95900  1.0000 -0.0698938247
C   C107      1.0  0.73488  0.04598  0.96710  1.0000 -0.0858884469
C   C108      1.0  0.67049  0.13139  0.93790  1.0000 -0.0797942384
C   C109      1.0  0.67280  0.05730  0.95170  1.0000 -0.2002161249
C   C110      1.0  0.60665  0.14545  0.92320  1.0000 -0.2002161249
C   C111      1.0  0.60819  0.10919  0.93140  1.0000 0.1658644168
C   C112      1.0  0.40959  0.18319  0.85840  1.0000 -0.1733878698
C   C113      1.0  0.81868  0.33968  0.76480  1.0000 0.6219663615
C   C114      1.0  0.83179  0.37279  0.84820  1.0000 -0.0698938247
C   C115      1.0  0.79598  0.32888  0.81110  1.0000 -0.0858884469
C   C116      1.0  0.88139  0.44349  0.96090  1.0000 -0.0797942384
C   C117      1.0  0.80730  0.35560  0.88450  1.0000 -0.2002161249
C   C118      1.0  0.89545  0.47225  0.03880  1.0000 -0.2002161249
C   C119      1.0  0.85919  0.42779  0.00100  1.0000 0.1658644168
C   C120      1.0  0.93319  0.57479  0.27360  1.0000 -0.1733878698
C   C121      1.0  0.57488  0.05388  0.23520  1.0000 0.6219663615
C   C122      1.0  0.52459  0.98359  0.15180  1.0000 -0.0698938247
C   C123      1.0  0.51778  0.98488  0.18890  1.0000 -0.0858884469
C   C124      1.0  0.48259  0.92049  0.03910  1.0000 -0.0797942384
C   C125      1.0  0.47110  0.92280  0.11550  1.0000 -0.2002161249
C   C126      1.0  0.43345  0.85665  0.96120  1.0000 -0.2002161249
C   C127      1.0  0.42679  0.85819  0.99900  1.0000 0.1658644168
C   C128      1.0  0.30119  0.65959  0.72640  1.0000 -0.1733878698
C   C129      1.0  0.45920  0.62500  0.33420  1.0000 0.1328437323
C   C130      1.0  0.29080  0.12500  0.66580  1.0000 0.1328437323
C   C131      1.0  0.37500  0.54080  0.66580  1.0000 0.1328437323
C   C132      1.0  0.87500  0.70920  0.33420  1.0000 0.1328437323
C   C133      1.0  0.29080  0.62500  0.16580  1.0000 0.1328437323
C   C134      1.0  0.45920  0.12500  0.83420  1.0000 0.1328437323
C   C135      1.0  0.37500  0.70920  0.83420  1.0000 0.1328437323
C   C136      1.0  0.87500  0.54080  0.16580  1.0000 0.1328437323
N   N1        1.0  0.54640  0.62500  0.42140  1.0000 -0.1834521076
N   N2        1.0  0.20360  0.12500  0.57860  1.0000 -0.1834521076
N   N3        1.0  0.37500  0.45360  0.57860  1.0000 -0.1834521076
N   N4        1.0  0.87500  0.79640  0.42140  1.0000 -0.1834521076
N   N5        1.0  0.20360  0.62500  0.07860  1.0000 -0.1834521076
N   N6        1.0  0.54640  0.12500  0.92140  1.0000 -0.1834521076
N   N7        1.0  0.37500  0.79640  0.92140  1.0000 -0.1834521076
N   N8        1.0  0.87500  0.45360  0.07860  1.0000 -0.1834521076
O   O1        1.0  0.80264  0.82839  0.69869  1.0000 -0.6172940886
O   O2        1.0  0.85913  0.86156  0.83867  1.0000 -0.5780125862
O   O3        1.0  0.12970  0.10395  0.30131  1.0000 -0.6172940886
O   O4        1.0  0.02289  0.02046  0.16133  1.0000 -0.5780125862
O   O5        1.0  0.57839  0.37970  0.52575  1.0000 -0.6172940886
O   O6        1.0  0.61156  0.27289  0.50243  1.0000 -0.5780125862
O   O7        1.0  0.85395  0.05264  0.47425  1.0000 -0.6172940886
O   O8        1.0  0.77046  0.10913  0.49757  1.0000 -0.5780125862
O   O9        1.0  0.62030  0.42161  0.47425  1.0000 -0.6172940886
O   O10       1.0  0.72711  0.38844  0.49757  1.0000 -0.5780125862
O   O11       1.0  0.94736  0.14605  0.52575  1.0000 -0.6172940886
O   O12       1.0  0.89087  0.22954  0.50243  1.0000 -0.5780125862
O   O13       1.0  0.89605  0.87030  0.69869  1.0000 -0.6172940886
O   O14       1.0  0.97954  0.97711  0.83867  1.0000 -0.5780125862
O   O15       1.0  0.17161  0.19736  0.30131  1.0000 -0.6172940886
O   O16       1.0  0.13844  0.14087  0.16133  1.0000 -0.5780125862
O   O17       1.0  0.94736  0.42161  0.80131  1.0000 -0.6172940886
O   O18       1.0  0.89087  0.38844  0.66133  1.0000 -0.5780125862
O   O19       1.0  0.62030  0.14605  0.19869  1.0000 -0.6172940886
O   O20       1.0  0.72711  0.22954  0.33867  1.0000 -0.5780125862
O   O21       1.0  0.17161  0.87030  0.97425  1.0000 -0.6172940886
O   O22       1.0  0.13844  0.97711  0.99757  1.0000 -0.5780125862
O   O23       1.0  0.89605  0.19736  0.02575  1.0000 -0.6172940886
O   O24       1.0  0.97954  0.14087  0.00243  1.0000 -0.5780125862
O   O25       1.0  0.12970  0.82839  0.02575  1.0000 -0.6172940886
O   O26       1.0  0.02289  0.86156  0.00243  1.0000 -0.5780125862
O   O27       1.0  0.80264  0.10395  0.97425  1.0000 -0.6172940886
O   O28       1.0  0.85913  0.02046  0.99757  1.0000 -0.5780125862
O   O29       1.0  0.85395  0.37970  0.80131  1.0000 -0.6172940886
O   O30       1.0  0.77046  0.27289  0.66133  1.0000 -0.5780125862
O   O31       1.0  0.57839  0.05264  0.19869  1.0000 -0.6172940886
O   O32       1.0  0.61156  0.10913  0.33867  1.0000 -0.5780125862
O   O33       1.0  0.07410  0.98286  0.09124  1.0000 -1.1758663362
O   O34       1.0  0.89162  0.98286  0.90876  1.0000 -1.1669348335
O   O35       1.0  0.73286  0.14162  0.40876  1.0000 -1.1669348335
O   O36       1.0  0.73286  0.32410  0.59124  1.0000 -1.1669348335
O   O37       1.0  0.85838  0.26714  0.59124  1.0000 -1.1669348335
O   O38       1.0  0.67590  0.26714  0.40876  1.0000 -1.1669348335
O   O39       1.0  0.01714  0.10838  0.09124  1.0000 -1.1669348335
O   O40       1.0  0.01714  0.92590  0.90876  1.0000 -1.1669348335
O   O41       1.0  0.97785  0.10475  0.12690  1.0000 -1.1758663362
O   O42       1.0  0.97785  0.85095  0.87310  1.0000 -1.1669348335
O   O43       1.0  0.85475  0.22785  0.62690  1.0000 -1.1758663362
O   O44       1.0  0.60095  0.22785  0.37310  1.0000 -1.1758663362
O   O45       1.0  0.77215  0.14525  0.37310  1.0000 -1.1758663362
O   O46       1.0  0.77215  0.39905  0.62690  1.0000 -1.1758663362
O   O47       1.0  0.14905  0.02215  0.12690  1.0000 -1.1758663362
O   O48       1.0  0.89525  0.02215  0.87310  1.0000 -1.1758663362
