# DDEC6 charges by PACMAN v1.1 (https://github.com/mtap-research/PACMAN-charge/)
data_2022[Tb][sqc]3[ASR]1
_chemical_formula_sum              "Tb4 H16 C48 O28"
_cell_length_a       12.4232
_cell_length_b       12.7195
_cell_length_c       13.6515
_cell_angle_alpha    84.846
_cell_angle_beta     108.155
_cell_angle_gamma    109.062

_symmetry_space_group_name_H-M    "P 1"
_symmetry_Int_Tables_number       1

loop_
  _symmetry_equiv_pos_as_xyz
  'x, y, z'

loop_
  _atom_site_type_symbol
  _atom_site_label
  _atom_site_symmetry_multiplicity
  _atom_site_fract_x
  _atom_site_fract_y
  _atom_site_fract_z
  _atom_site_occupancy
  _atom_site_charge
Tb  Tb1       1.0  0.98823  0.03642  0.79710  1.0000 2.066813567
Tb  Tb2       1.0  0.81953  0.26056  0.81755  1.0000 2.0371863631
Tb  Tb3       1.0  0.01177  0.96358  0.20290  1.0000 2.066813567
Tb  Tb4       1.0  0.18047  0.73944  0.18245  1.0000 2.0371863631
H   H1        1.0  0.70230  0.27470  0.46370  1.0000 0.1395167035
H   H2        1.0  0.74910  0.20040  0.20370  1.0000 0.1395167035
H   H3        1.0  0.90330  0.08090  0.47360  1.0000 0.1395167035
H   H4        1.0  0.51560  0.10140  0.26890  1.0000 0.1395167035
H   H5        1.0  0.30370  0.31720  0.06010  1.0000 0.1306959775
H   H6        1.0  0.68260  0.61010  0.20080  1.0000 0.1533445579
H   H7        1.0  0.89950  0.57580  0.04760  1.0000 0.1306959775
H   H8        1.0  0.58410  0.34170  0.02080  1.0000 0.1395167035
H   H9        1.0  0.29770  0.72530  0.53630  1.0000 0.1395167035
H   H10       1.0  0.25090  0.79960  0.79630  1.0000 0.1395167035
H   H11       1.0  0.09670  0.91910  0.52640  1.0000 0.1395167035
H   H12       1.0  0.48440  0.89860  0.73110  1.0000 0.1395167035
H   H13       1.0  0.69630  0.68280  0.93990  1.0000 0.1306959775
H   H14       1.0  0.31740  0.38990  0.79920  1.0000 0.1533445579
H   H15       1.0  0.10050  0.42420  0.95240  1.0000 0.1306959775
H   H16       1.0  0.41590  0.65830  0.97920  1.0000 0.1395167035
C   C1        1.0  0.83380  0.16720  0.60140  1.0000 0.6585097102
C   C2        1.0  0.80970  0.17700  0.48750  1.0000 -0.0281163107
C   C3        1.0  0.73650  0.23950  0.43060  1.0000 -0.1996492582
C   C4        1.0  0.71600  0.24780  0.32520  1.0000 0.2277361912
C   C5        1.0  0.76380  0.19400  0.27470  1.0000 -0.1996492582
C   C6        1.0  0.83370  0.13040  0.32990  1.0000 -0.0026097509
C   C7        1.0  0.85590  0.12320  0.43630  1.0000 -0.1023000765
C   C8        1.0  0.88650  0.07070  0.27890  1.0000 0.5443132904
C   C9        1.0  0.52850  0.25690  0.21780  1.0000 0.1533445579
C   C10       1.0  0.47230  0.14480  0.22730  1.0000 -0.2098514836
C   C11       1.0  0.35050  0.09540  0.17490  1.0000 -0.0485737312
C   C12       1.0  0.28600  0.16100  0.11140  1.0000 0.0039520359
C   C13       1.0  0.34560  0.27300  0.10230  1.0000 -0.2098514836
C   C14       1.0  0.46400  0.32020  0.15350  1.0000 0.1533445579
C   C15       1.0  0.29330  0.97510  0.18570  1.0000 0.6108985332
C   C16       1.0  0.15650  0.11330  0.04680  1.0000 0.6361199406
C   C17       1.0  0.61920  0.46880  0.11630  1.0000 0.2418496993
C   C18       1.0  0.69900  0.56990  0.15670  1.0000 -0.1996492582
C   C19       1.0  0.80590  0.61130  0.13020  1.0000 -0.0026097509
C   C20       1.0  0.82850  0.54930  0.06460  1.0000 -0.141984387
C   C21       1.0  0.74700  0.44920  0.02470  1.0000 0.0208476626
C   C22       1.0  0.64040  0.40860  0.04920  1.0000 -0.2196006688
C   C23       1.0  0.77220  0.38330  0.95210  1.0000 0.570847967
C   C24       1.0  0.88980  0.72370  0.17120  1.0000 0.6012768534
C   C25       1.0  0.16620  0.83280  0.39860  1.0000 0.6585097102
C   C26       1.0  0.19030  0.82300  0.51250  1.0000 -0.0281163107
C   C27       1.0  0.26350  0.76050  0.56940  1.0000 -0.1996492582
C   C28       1.0  0.28400  0.75220  0.67480  1.0000 0.2277361912
C   C29       1.0  0.23620  0.80600  0.72530  1.0000 -0.1996492582
C   C30       1.0  0.16630  0.86960  0.67010  1.0000 -0.0051373934
C   C31       1.0  0.14410  0.87680  0.56370  1.0000 -0.1023000765
C   C32       1.0  0.11350  0.92930  0.72110  1.0000 0.5443132904
C   C33       1.0  0.47150  0.74310  0.78220  1.0000 0.1533445579
C   C34       1.0  0.52770  0.85520  0.77270  1.0000 -0.2098514836
C   C35       1.0  0.64950  0.90460  0.82510  1.0000 -0.0485737312
C   C36       1.0  0.71400  0.83900  0.88860  1.0000 0.0039520359
C   C37       1.0  0.65440  0.72700  0.89770  1.0000 -0.2098514836
C   C38       1.0  0.53600  0.67980  0.84650  1.0000 0.1533445579
C   C39       1.0  0.70670  0.02490  0.81430  1.0000 0.6108985332
C   C40       1.0  0.84350  0.88670  0.95320  1.0000 0.6361199406
C   C41       1.0  0.38080  0.53120  0.88370  1.0000 0.2418496993
C   C42       1.0  0.30100  0.43010  0.84330  1.0000 -0.1996492582
C   C43       1.0  0.19410  0.38870  0.86980  1.0000 -0.0026097509
C   C44       1.0  0.17150  0.45070  0.93540  1.0000 -0.141984387
C   C45       1.0  0.25300  0.55080  0.97530  1.0000 0.0208476626
C   C46       1.0  0.35960  0.59140  0.95080  1.0000 -0.2196006688
C   C47       1.0  0.22780  0.61670  0.04790  1.0000 0.570847967
C   C48       1.0  0.11020  0.27630  0.82880  1.0000 0.6012768534
O   O1        1.0  0.90040  0.11060  0.64580  1.0000 -0.6574557933
O   O2        1.0  0.79010  0.21840  0.64630  1.0000 -0.6857719931
O   O3        1.0  0.91970  0.99190  0.32590  1.0000 -0.6112104866
O   O4        1.0  0.89800  0.09770  0.19150  1.0000 -0.6036843273
O   O5        1.0  0.64430  0.31170  0.27100  1.0000 -0.1996492582
O   O6        1.0  0.35200  0.90900  0.20860  1.0000 -0.5737806174
O   O7        1.0  0.18170  0.93920  0.17180  1.0000 -0.7374151263
O   O8        1.0  0.07640  0.10720  0.08630  1.0000 -0.6304906321
O   O9        1.0  0.14210  0.08750  0.95700  1.0000 -0.6112104866
O   O10       1.0  0.51560  0.43360  0.14560  1.0000 -0.1933964702
O   O11       1.0  0.85810  0.78320  0.21630  1.0000 -0.5632817063
O   O12       1.0  0.98860  0.75830  0.15070  1.0000 -0.7453235599
O   O13       1.0  0.86210  0.42320  0.92270  1.0000 -0.6304906321
O   O14       1.0  0.70080  0.28700  0.92310  1.0000 -0.6304906321
O   O15       1.0  0.09960  0.88940  0.35420  1.0000 -0.6574557933
O   O16       1.0  0.20990  0.78160  0.35370  1.0000 -0.6857719931
O   O17       1.0  0.08030  0.00810  0.67410  1.0000 -0.6112104866
O   O18       1.0  0.10200  0.90230  0.80850  1.0000 -0.6036843273
O   O19       1.0  0.35570  0.68830  0.72900  1.0000 -0.1996492582
O   O20       1.0  0.64800  0.09100  0.79140  1.0000 -0.5737806174
O   O21       1.0  0.81830  0.06080  0.82820  1.0000 -0.7374151263
O   O22       1.0  0.92360  0.89280  0.91370  1.0000 -0.6304906321
O   O23       1.0  0.85790  0.91250  0.04300  1.0000 -0.6112104866
O   O24       1.0  0.48440  0.56640  0.85440  1.0000 -0.1933964702
O   O25       1.0  0.14190  0.21680  0.78370  1.0000 -0.5632817063
O   O26       1.0  0.01140  0.24170  0.84930  1.0000 -0.7453235599
O   O27       1.0  0.13790  0.57680  0.07730  1.0000 -0.6304906321
O   O28       1.0  0.29920  0.71300  0.07690  1.0000 -0.6304906321
