# DDEC6 charges by PACMAN v1.1 (https://github.com/mtap-research/PACMAN-charge/)
data_2022[Zn][nan]2[ASR]2
_chemical_formula_sum              "Zn4 H38 C64 N2 O14"
_cell_length_a       11.271
_cell_length_b       12.3581
_cell_length_c       14.479
_cell_angle_alpha    108.372
_cell_angle_beta     103.009
_cell_angle_gamma    89.104

_symmetry_space_group_name_H-M    "P 1"
_symmetry_Int_Tables_number       1

loop_
  _symmetry_equiv_pos_as_xyz
  'x, y, z'

loop_
  _atom_site_type_symbol
  _atom_site_label
  _atom_site_symmetry_multiplicity
  _atom_site_fract_x
  _atom_site_fract_y
  _atom_site_fract_z
  _atom_site_occupancy
  _atom_site_charge
Zn  Zn1       1.0  0.88805  0.96037  0.53199  1.0000 0.9145604197
Zn  Zn2       1.0  0.04902  0.14556  0.72483  1.0000 0.9437337343
Zn  Zn3       1.0  0.11195  0.03963  0.46801  1.0000 0.9145604197
Zn  Zn4       1.0  0.95098  0.85444  0.27517  1.0000 0.9437337343
H   H1        1.0  0.85587  0.44368  0.71555  1.0000 0.1197056608
H   H2        1.0  0.76127  0.59667  0.67532  1.0000 0.1197056608
H   H3        1.0  0.63878  0.56974  0.51910  1.0000 0.1107692237
H   H4        1.0  0.69382  0.23558  0.43916  1.0000 0.130333339
H   H5        1.0  0.62296  0.53305  0.34640  1.0000 0.1107692237
H   H6        1.0  0.36190  0.35325  0.11325  1.0000 0.1197056608
H   H7        1.0  0.49204  0.23236  0.34324  1.0000 0.1197056608
H   H8        1.0  0.31172  0.53635  0.11316  1.0000 0.1197056608
H   H9        1.0  0.30821  0.67816  0.04049  1.0000 0.1197056608
H   H10       1.0  0.66814  0.60374  0.22969  1.0000 0.1107692237
H   H11       1.0  0.48613  0.79276  0.07272  1.0000 0.1197056608
H   H12       1.0  0.32942  0.15976  0.02793  1.0000 0.1197056608
H   H13       1.0  0.19602  0.99832  0.94864  1.0000 0.130333339
H   H14       1.0  0.08876  0.93079  0.04153  1.0000 0.1197056608
H   H15       1.0  0.27758  0.16416  0.29140  1.0000 0.1197056608
H   H16       1.0  0.03071  0.81838  0.65680  1.0000 0.1197056608
H   H17       1.0  0.07546  0.63457  0.64628  1.0000 0.130333339
H   H18       1.0  0.88125  0.52948  0.36493  1.0000 0.130333339
H   H19       1.0  0.83769  0.71487  0.38003  1.0000 0.1107692237
H   H20       1.0  0.14413  0.55632  0.28445  1.0000 0.1197056608
H   H21       1.0  0.23873  0.40333  0.32468  1.0000 0.1197056608
H   H22       1.0  0.36122  0.43026  0.48090  1.0000 0.1107692237
H   H23       1.0  0.30618  0.76442  0.56084  1.0000 0.130333339
H   H24       1.0  0.37704  0.46695  0.65360  1.0000 0.1107692237
H   H25       1.0  0.63810  0.64675  0.88675  1.0000 0.1197056608
H   H26       1.0  0.50796  0.76764  0.65676  1.0000 0.1197056608
H   H27       1.0  0.68828  0.46365  0.88684  1.0000 0.1197056608
H   H28       1.0  0.69179  0.32184  0.95951  1.0000 0.1197056608
H   H29       1.0  0.33186  0.39626  0.77031  1.0000 0.1107692237
H   H30       1.0  0.51387  0.20724  0.92728  1.0000 0.1197056608
H   H31       1.0  0.67058  0.84024  0.97207  1.0000 0.1197056608
H   H32       1.0  0.80398  0.00168  0.05136  1.0000 0.130333339
H   H33       1.0  0.91124  0.06921  0.95847  1.0000 0.1197056608
H   H34       1.0  0.72242  0.83584  0.70860  1.0000 0.1197056608
H   H35       1.0  0.96929  0.18162  0.34320  1.0000 0.1197056608
H   H36       1.0  0.92454  0.36543  0.35372  1.0000 0.130333339
H   H37       1.0  0.11875  0.47052  0.63507  1.0000 0.130333339
H   H38       1.0  0.16231  0.28513  0.61997  1.0000 0.1107692237
C   C1        1.0  0.84920  0.22280  0.60310  1.0000 0.5710134331
C   C2        1.0  0.78560  0.32220  0.57550  1.0000 -0.0049482233
C   C3        1.0  0.80620  0.43370  0.65240  1.0000 -0.1170781057
C   C4        1.0  0.74930  0.52410  0.62820  1.0000 -0.099308715
C   C5        1.0  0.67470  0.50740  0.53450  1.0000 -0.1406318646
C   C6        1.0  0.65170  0.40030  0.46270  1.0000 0.0690058351
C   C7        1.0  0.70900  0.30810  0.48620  1.0000 -0.1481724184
C   C8        1.0  0.56960  0.38630  0.35960  1.0000 0.0845124695
C   C9        1.0  0.56940  0.46890  0.31450  1.0000 -0.1903380629
C   C10       1.0  0.49140  0.45920  0.22230  1.0000 0.0905245628
C   C11       1.0  0.41390  0.36150  0.17510  1.0000 -0.1903380629
C   C12       1.0  0.41210  0.27480  0.21860  1.0000 0.0990341354
C   C13       1.0  0.49170  0.28840  0.31280  1.0000 -0.2051982831
C   C14       1.0  0.49170  0.54790  0.17620  1.0000 0.0690058351
C   C15       1.0  0.38420  0.57710  0.12170  1.0000 -0.1406318646
C   C16       1.0  0.38070  0.66440  0.07960  1.0000 -0.0866372537
C   C17       1.0  0.59540  0.61710  0.19070  1.0000 -0.1563005622
C   C18       1.0  0.59590  0.70390  0.15040  1.0000 -0.0060619973
C   C19       1.0  0.48760  0.73120  0.09680  1.0000 -0.1084966686
C   C20       1.0  0.71050  0.78180  0.17520  1.0000 0.5593660895
C   C21       1.0  0.32230  0.17520  0.16900  1.0000 0.0537442241
C   C22       1.0  0.29320  0.12800  0.06590  1.0000 -0.1170781057
C   C23       1.0  0.20970  0.03300  0.01750  1.0000 -0.0659471292
C   C24       1.0  0.14760  0.99080  0.07330  1.0000 -0.099308715
C   C25       1.0  0.17450  0.03950  0.17700  1.0000 -0.0221251145
C   C26       1.0  0.26080  0.13130  0.22220  1.0000 -0.1563005622
C   C27       1.0  0.11200  0.99380  0.23860  1.0000 0.5791042868
C   C28       1.0  0.00040  0.76000  0.59720  1.0000 0.0905245628
C   C29       1.0  0.02760  0.64930  0.59070  1.0000 -0.1903380629
C   C30       1.0  0.98550  0.55880  0.50310  1.0000 0.1107692237
C   C31       1.0  0.91320  0.58670  0.42500  1.0000 -0.1903380629
C   C32       1.0  0.88720  0.69920  0.43450  1.0000 0.0990341354
C   C33       1.0  0.15080  0.77720  0.39690  1.0000 0.5710134331
C   C34       1.0  0.21440  0.67780  0.42450  1.0000 -0.0060619973
C   C35       1.0  0.19380  0.56630  0.34760  1.0000 -0.1170781057
C   C36       1.0  0.25070  0.47590  0.37180  1.0000 -0.099308715
C   C37       1.0  0.32530  0.49260  0.46550  1.0000 -0.1406318646
C   C38       1.0  0.34830  0.59970  0.53730  1.0000 0.0690058351
C   C39       1.0  0.29100  0.69190  0.51380  1.0000 -0.1481724184
C   C40       1.0  0.43040  0.61370  0.64040  1.0000 0.0845124695
C   C41       1.0  0.43060  0.53110  0.68550  1.0000 -0.1903380629
C   C42       1.0  0.50860  0.54080  0.77770  1.0000 0.0905245628
C   C43       1.0  0.58610  0.63850  0.82490  1.0000 -0.1903380629
C   C44       1.0  0.58790  0.72520  0.78140  1.0000 0.0990341354
C   C45       1.0  0.50830  0.71160  0.68720  1.0000 -0.2051982831
C   C46       1.0  0.50830  0.45210  0.82380  1.0000 0.0690058351
C   C47       1.0  0.61580  0.42290  0.87830  1.0000 -0.1406318646
C   C48       1.0  0.61930  0.33560  0.92040  1.0000 -0.0866372537
C   C49       1.0  0.40460  0.38290  0.80930  1.0000 -0.1563005622
C   C50       1.0  0.40410  0.29610  0.84960  1.0000 -0.0060619973
C   C51       1.0  0.51240  0.26880  0.90320  1.0000 -0.1084966686
C   C52       1.0  0.28950  0.21820  0.82480  1.0000 0.5593660895
C   C53       1.0  0.67770  0.82480  0.83100  1.0000 0.0537442241
C   C54       1.0  0.70680  0.87200  0.93410  1.0000 -0.1170781057
C   C55       1.0  0.79030  0.96700  0.98250  1.0000 -0.0659471292
C   C56       1.0  0.85240  0.00920  0.92670  1.0000 -0.099308715
C   C57       1.0  0.82550  0.96050  0.82300  1.0000 -0.0221251145
C   C58       1.0  0.73920  0.86870  0.77780  1.0000 -0.1563005622
C   C59       1.0  0.88800  0.00620  0.76140  1.0000 0.5791042868
C   C60       1.0  0.99960  0.24000  0.40280  1.0000 0.0905245628
C   C61       1.0  0.97240  0.35070  0.40930  1.0000 -0.1903380629
C   C62       1.0  0.01450  0.44120  0.49690  1.0000 0.1107692237
C   C63       1.0  0.08680  0.41330  0.57500  1.0000 -0.1903380629
C   C64       1.0  0.11280  0.30080  0.56550  1.0000 0.0990341354
N   N1        1.0  0.92960  0.78610  0.51785  1.0000 -0.2210487898
N   N2        1.0  0.07040  0.21390  0.48215  1.0000 -0.2210487898
O   O1        1.0  0.06861  0.03009  0.60108  1.0000 -0.8228427049
O   O2        1.0  0.92790  0.24870  0.68419  1.0000 -0.5297514376
O   O3        1.0  0.82370  0.12643  0.54173  1.0000 -0.4834264096
O   O4        1.0  0.70050  0.87090  0.15560  1.0000 -0.5102302905
O   O5        1.0  0.80870  0.74620  0.21488  1.0000 -0.5502475228
O   O6        1.0  0.01990  0.92390  0.19199  1.0000 -0.5102302905
O   O7        1.0  0.15310  0.02737  0.33032  1.0000 -0.5502475228
O   O8        1.0  0.93139  0.96991  0.39892  1.0000 -0.8228427049
O   O9        1.0  0.07210  0.75130  0.31581  1.0000 -0.5297514376
O   O10       1.0  0.17630  0.87357  0.45827  1.0000 -0.485317963
O   O11       1.0  0.29950  0.12910  0.84440  1.0000 -0.5102302905
O   O12       1.0  0.19130  0.25380  0.78512  1.0000 -0.5502475228
O   O13       1.0  0.98010  0.07610  0.80801  1.0000 -0.5102302905
O   O14       1.0  0.84690  0.97263  0.66968  1.0000 -0.5502475228
