# DDEC6 charges by PACMAN v1.1 (https://github.com/mtap-research/PACMAN-charge/)
data_2022[Zn][nan]3[ASR]9
_chemical_formula_sum              "Zn8 H24 C56 N8 O32"
_cell_length_a       14.0774
_cell_length_b       12.1211
_cell_length_c       17.2679
_cell_angle_alpha    90
_cell_angle_beta     125.489
_cell_angle_gamma    90

_symmetry_space_group_name_H-M    "P 1"
_symmetry_Int_Tables_number       1

loop_
  _symmetry_equiv_pos_as_xyz
  'x, y, z'

loop_
  _atom_site_type_symbol
  _atom_site_label
  _atom_site_symmetry_multiplicity
  _atom_site_fract_x
  _atom_site_fract_y
  _atom_site_fract_z
  _atom_site_occupancy
  _atom_site_charge
Zn  Zn1       1.0  0.62283  0.24396  0.42605  1.0000 0.8890727329
Zn  Zn2       1.0  0.69459  0.02134  0.34422  1.0000 0.8890727329
Zn  Zn3       1.0  0.37717  0.74396  0.07395  1.0000 0.8890727329
Zn  Zn4       1.0  0.30541  0.52134  0.15578  1.0000 0.8890727329
Zn  Zn5       1.0  0.37717  0.75604  0.57395  1.0000 0.8890727329
Zn  Zn6       1.0  0.30541  0.97866  0.65578  1.0000 0.8890727329
Zn  Zn7       1.0  0.62283  0.25604  0.92605  1.0000 0.8890727329
Zn  Zn8       1.0  0.69459  0.47866  0.84422  1.0000 0.8890727329
H   H1        1.0  0.04008  0.02262  0.56859  1.0000 0.1076011985
H   H2        1.0  0.22337  0.33381  0.74941  1.0000 0.1378930551
H   H3        1.0  0.01880  0.33047  0.64678  1.0000 0.1323738488
H   H4        1.0  0.61969  0.18332  0.10115  1.0000 0.1236403602
H   H5        1.0  0.63591  0.56494  0.12180  1.0000 0.1378930551
H   H6        1.0  0.64104  0.46179  0.23968  1.0000 0.1378930551
H   H7        1.0  0.95992  0.52262  0.93141  1.0000 0.1076011985
H   H8        1.0  0.77663  0.83381  0.75059  1.0000 0.1378930551
H   H9        1.0  0.98120  0.83047  0.85322  1.0000 0.1323738488
H   H10       1.0  0.38031  0.68332  0.39885  1.0000 0.1236403602
H   H11       1.0  0.36409  0.06494  0.37820  1.0000 0.1378930551
H   H12       1.0  0.35896  0.96179  0.26032  1.0000 0.1378930551
H   H13       1.0  0.95992  0.97738  0.43141  1.0000 0.1076011985
H   H14       1.0  0.77663  0.66619  0.25059  1.0000 0.1378930551
H   H15       1.0  0.98120  0.66953  0.35322  1.0000 0.1323738488
H   H16       1.0  0.38031  0.81668  0.89885  1.0000 0.1236403602
H   H17       1.0  0.36409  0.43506  0.87820  1.0000 0.1378930551
H   H18       1.0  0.35896  0.53821  0.76032  1.0000 0.1378930551
H   H19       1.0  0.04008  0.47738  0.06859  1.0000 0.1076011985
H   H20       1.0  0.22337  0.16619  0.24941  1.0000 0.1378930551
H   H21       1.0  0.01880  0.16953  0.14678  1.0000 0.1323738488
H   H22       1.0  0.61969  0.31668  0.60115  1.0000 0.1236403602
H   H23       1.0  0.63591  0.93506  0.62180  1.0000 0.1378930551
H   H24       1.0  0.64104  0.03821  0.73968  1.0000 0.1378930551
C   C1        1.0  0.63491  0.31113  0.18370  1.0000 -0.0630401318
C   C2        1.0  0.37963  0.17826  0.76762  1.0000 0.5413089114
C   C3        1.0  0.62764  0.43061  0.04652  1.0000 0.1076011985
C   C4        1.0  0.62432  0.26146  0.10626  1.0000 0.0881690102
C   C5        1.0  0.63393  0.48661  0.11954  1.0000 -0.1391594691
C   C6        1.0  0.63724  0.42574  0.18909  1.0000 -0.0341054426
C   C7        1.0  0.24709  0.18351  0.71027  1.0000 0.1076011985
C   C8        1.0  0.06311  0.26952  0.64954  1.0000 -0.0525865892
C   C9        1.0  0.63359  0.49107  0.97315  1.0000 0.5230879503
C   C10       1.0  0.18404  0.27195  0.70935  1.0000 -0.1343559941
C   C11       1.0  0.64391  0.24022  0.25883  1.0000 0.5986306685
C   C12       1.0  0.00760  0.17653  0.59363  1.0000 -0.0680261377
C   C13       1.0  0.87647  0.16709  0.52059  1.0000 0.5986306685
C   C14       1.0  0.07723  0.08857  0.60279  1.0000 0.0957706811
C   C15       1.0  0.36509  0.81113  0.31630  1.0000 -0.0630401318
C   C16       1.0  0.62037  0.67826  0.73238  1.0000 0.5413089114
C   C17       1.0  0.37236  0.93061  0.45348  1.0000 0.1076011985
C   C18       1.0  0.37568  0.76146  0.39374  1.0000 0.0881690102
C   C19       1.0  0.36607  0.98661  0.38046  1.0000 -0.1391594691
C   C20       1.0  0.36276  0.92574  0.31091  1.0000 -0.0341054426
C   C21       1.0  0.75291  0.68351  0.78973  1.0000 0.1076011985
C   C22       1.0  0.93689  0.76952  0.85046  1.0000 -0.0525865892
C   C23       1.0  0.36641  0.99107  0.52685  1.0000 0.5230879503
C   C24       1.0  0.81596  0.77195  0.79065  1.0000 -0.1343559941
C   C25       1.0  0.35609  0.74022  0.24117  1.0000 0.5986306685
C   C26       1.0  0.99240  0.67653  0.90637  1.0000 -0.0680261377
C   C27       1.0  0.12353  0.66709  0.97941  1.0000 0.5986306685
C   C28       1.0  0.92277  0.58857  0.89721  1.0000 0.0957706811
C   C29       1.0  0.36509  0.68887  0.81630  1.0000 -0.0630401318
C   C30       1.0  0.62037  0.82174  0.23238  1.0000 0.5413089114
C   C31       1.0  0.37236  0.56939  0.95348  1.0000 0.1076011985
C   C32       1.0  0.37568  0.73854  0.89374  1.0000 0.0881690102
C   C33       1.0  0.36607  0.51339  0.88046  1.0000 -0.1391594691
C   C34       1.0  0.36276  0.57426  0.81091  1.0000 -0.0341054426
C   C35       1.0  0.75291  0.81649  0.28973  1.0000 0.1076011985
C   C36       1.0  0.93689  0.73048  0.35046  1.0000 -0.0525865892
C   C37       1.0  0.36641  0.50893  0.02685  1.0000 0.5230879503
C   C38       1.0  0.81596  0.72805  0.29065  1.0000 -0.1343559941
C   C39       1.0  0.35609  0.75978  0.74117  1.0000 0.5986306685
C   C40       1.0  0.99240  0.82347  0.40637  1.0000 -0.0680261377
C   C41       1.0  0.12353  0.83291  0.47941  1.0000 0.5986306685
C   C42       1.0  0.92277  0.91143  0.39721  1.0000 0.0957706811
C   C43       1.0  0.63491  0.18887  0.68370  1.0000 -0.0630401318
C   C44       1.0  0.37963  0.32174  0.26762  1.0000 0.5413089114
C   C45       1.0  0.62764  0.06939  0.54652  1.0000 0.1076011985
C   C46       1.0  0.62432  0.23854  0.60626  1.0000 0.0881690102
C   C47       1.0  0.63393  0.01339  0.61954  1.0000 -0.1391594691
C   C48       1.0  0.63724  0.07426  0.68909  1.0000 -0.0341054426
C   C49       1.0  0.24709  0.31649  0.21027  1.0000 0.1076011985
C   C50       1.0  0.06311  0.23048  0.14954  1.0000 -0.0525865892
C   C51       1.0  0.63359  0.00893  0.47315  1.0000 0.5230879503
C   C52       1.0  0.18404  0.22805  0.20935  1.0000 -0.1343559941
C   C53       1.0  0.64391  0.25978  0.75883  1.0000 0.5986306685
C   C54       1.0  0.00760  0.32347  0.09363  1.0000 -0.0680261377
C   C55       1.0  0.87647  0.33291  0.02059  1.0000 0.5986306685
C   C56       1.0  0.07723  0.41143  0.10279  1.0000 0.0957706811
N   N1        1.0  0.62045  0.32014  0.03886  1.0000 -0.2495636737
N   N2        1.0  0.19371  0.09254  0.65735  1.0000 -0.2495636737
N   N3        1.0  0.37955  0.82014  0.46114  1.0000 -0.2495636737
N   N4        1.0  0.80629  0.59254  0.84265  1.0000 -0.2495636737
N   N5        1.0  0.37955  0.67986  0.96114  1.0000 -0.2495636737
N   N6        1.0  0.80629  0.90746  0.34265  1.0000 -0.2495636737
N   N7        1.0  0.62045  0.17986  0.53886  1.0000 -0.2495636737
N   N8        1.0  0.19371  0.40746  0.15735  1.0000 -0.2495636737
O   O1        1.0  0.43691  0.25282  0.82785  1.0000 -0.5315397663
O   O2        1.0  0.61349  0.43044  0.90318  1.0000 -0.5450254364
O   O3        1.0  0.42053  0.09845  0.74915  1.0000 -0.5107353462
O   O4        1.0  0.81226  0.23408  0.52450  1.0000 -0.5385590774
O   O5        1.0  0.64894  0.28808  0.32520  1.0000 -0.5194099677
O   O6        1.0  0.65908  0.58874  0.98406  1.0000 -0.4731176478
O   O7        1.0  0.64597  0.13724  0.24773  1.0000 -0.5450254364
O   O8        1.0  0.84575  0.09049  0.46089  1.0000 -0.5624265356
O   O9        1.0  0.56309  0.75282  0.67215  1.0000 -0.5315397663
O   O10       1.0  0.38651  0.93044  0.59682  1.0000 -0.5450254364
O   O11       1.0  0.57947  0.59845  0.75085  1.0000 -0.5107353462
O   O12       1.0  0.18774  0.73408  0.97550  1.0000 -0.5385590774
O   O13       1.0  0.35106  0.78808  0.17480  1.0000 -0.5194099677
O   O14       1.0  0.34092  0.08874  0.51594  1.0000 -0.4731176478
O   O15       1.0  0.35403  0.63724  0.25227  1.0000 -0.5450254364
O   O16       1.0  0.15425  0.59049  0.03911  1.0000 -0.5624265356
O   O17       1.0  0.56309  0.74718  0.17215  1.0000 -0.5315397663
O   O18       1.0  0.38651  0.56956  0.09682  1.0000 -0.5450254364
O   O19       1.0  0.57947  0.90155  0.25085  1.0000 -0.5107353462
O   O20       1.0  0.18774  0.76592  0.47550  1.0000 -0.5385590774
O   O21       1.0  0.35106  0.71192  0.67480  1.0000 -0.5194099677
O   O22       1.0  0.34092  0.41126  0.01594  1.0000 -0.4731176478
O   O23       1.0  0.35403  0.86276  0.75227  1.0000 -0.5450254364
O   O24       1.0  0.15425  0.90951  0.53911  1.0000 -0.5624265356
O   O25       1.0  0.43691  0.24718  0.32785  1.0000 -0.5315397663
O   O26       1.0  0.61349  0.06956  0.40318  1.0000 -0.5450254364
O   O27       1.0  0.42053  0.40155  0.24915  1.0000 -0.5107353462
O   O28       1.0  0.81226  0.26592  0.02450  1.0000 -0.5385590774
O   O29       1.0  0.64894  0.21192  0.82520  1.0000 -0.5194099677
O   O30       1.0  0.65908  0.91126  0.48406  1.0000 -0.4731176478
O   O31       1.0  0.64597  0.36276  0.74773  1.0000 -0.5450254364
O   O32       1.0  0.84575  0.40951  0.96089  1.0000 -0.5624265356
