# DDEC6 charges by PACMAN v1.1 (https://github.com/mtap-research/PACMAN-charge/)
data_2022[Zr][scu]3[ASR]1
_chemical_formula_sum              "Zr6 H72 C116 N4 O24"
_cell_length_a       24.9431
_cell_length_b       24.9431
_cell_length_c       20.284
_cell_angle_alpha    90
_cell_angle_beta     90
_cell_angle_gamma    116.383

_symmetry_space_group_name_H-M    "P 1"
_symmetry_Int_Tables_number       1

loop_
  _symmetry_equiv_pos_as_xyz
  'x, y, z'

loop_
  _atom_site_type_symbol
  _atom_site_label
  _atom_site_symmetry_multiplicity
  _atom_site_fract_x
  _atom_site_fract_y
  _atom_site_fract_z
  _atom_site_occupancy
  _atom_site_charge
Zr  Zr1       1.0  0.05801  0.94199  0.50000  1.0000 2.3436423484
Zr  Zr2       1.0  0.94199  0.05801  0.50000  1.0000 2.3436423484
Zr  Zr3       1.0  0.06720  0.06720  0.41289  1.0000 2.462818021
Zr  Zr4       1.0  0.93280  0.93280  0.41289  1.0000 2.462818021
Zr  Zr5       1.0  0.93280  0.93280  0.58711  1.0000 2.462818021
Zr  Zr6       1.0  0.06720  0.06720  0.58711  1.0000 2.462818021
H   H1        1.0  0.94024  0.41274  0.94204  1.0000 0.1278504469
H   H2        1.0  0.06559  0.79121  0.60426  1.0000 0.1278504469
H   H3        1.0  0.91965  0.77115  0.70025  1.0000 0.1102042296
H   H4        1.0  0.94000  0.55940  0.88347  1.0000 0.1278504469
H   H5        1.0  0.92423  0.69579  0.76101  1.0000 0.1102042296
H   H6        1.0  0.05464  0.63254  0.69788  1.0000 0.1102042296
H   H7        1.0  0.06737  0.71379  0.66514  1.0000 0.1102042296
H   H8        1.0  0.05528  0.55302  0.75697  1.0000 0.1278504469
H   H9        1.0  0.93699  0.63873  0.82571  1.0000 0.1165993083
H   H10       1.0  0.05976  0.58726  0.94204  1.0000 0.1278504469
H   H11       1.0  0.93441  0.20879  0.60426  1.0000 0.1278504469
H   H12       1.0  0.08035  0.22885  0.70025  1.0000 0.1102042296
H   H13       1.0  0.06000  0.44060  0.88347  1.0000 0.1278504469
H   H14       1.0  0.07577  0.30421  0.76101  1.0000 0.1102042296
H   H15       1.0  0.94536  0.36746  0.69788  1.0000 0.1102042296
H   H16       1.0  0.93263  0.28621  0.66514  1.0000 0.1102042296
H   H17       1.0  0.94472  0.44698  0.75697  1.0000 0.1278504469
H   H18       1.0  0.06301  0.36127  0.82571  1.0000 0.1165993083
H   H19       1.0  0.58726  0.05976  0.05796  1.0000 0.1278504469
H   H20       1.0  0.20879  0.93441  0.39574  1.0000 0.1278504469
H   H21       1.0  0.22885  0.08035  0.29975  1.0000 0.1102042296
H   H22       1.0  0.44060  0.06000  0.11653  1.0000 0.1278504469
H   H23       1.0  0.30421  0.07577  0.23899  1.0000 0.1102042296
H   H24       1.0  0.36746  0.94536  0.30212  1.0000 0.1102042296
H   H25       1.0  0.28621  0.93263  0.33486  1.0000 0.1102042296
H   H26       1.0  0.44698  0.94472  0.24303  1.0000 0.1278504469
H   H27       1.0  0.36127  0.06301  0.17429  1.0000 0.1165993083
H   H28       1.0  0.41274  0.94024  0.05796  1.0000 0.1278504469
H   H29       1.0  0.79121  0.06559  0.39574  1.0000 0.1278504469
H   H30       1.0  0.77115  0.91965  0.29975  1.0000 0.1102042296
H   H31       1.0  0.55940  0.94000  0.11653  1.0000 0.1278504469
H   H32       1.0  0.69579  0.92423  0.23899  1.0000 0.1102042296
H   H33       1.0  0.63254  0.05464  0.30212  1.0000 0.1102042296
H   H34       1.0  0.71379  0.06737  0.33486  1.0000 0.1102042296
H   H35       1.0  0.55302  0.05528  0.24303  1.0000 0.1278504469
H   H36       1.0  0.63873  0.93699  0.17429  1.0000 0.1165993083
H   H37       1.0  0.05976  0.58726  0.05796  1.0000 0.1278504469
H   H38       1.0  0.93441  0.20879  0.39574  1.0000 0.1278504469
H   H39       1.0  0.08035  0.22885  0.29975  1.0000 0.1102042296
H   H40       1.0  0.06000  0.44060  0.11653  1.0000 0.1278504469
H   H41       1.0  0.07577  0.30421  0.23899  1.0000 0.1102042296
H   H42       1.0  0.94536  0.36746  0.30212  1.0000 0.1102042296
H   H43       1.0  0.93263  0.28621  0.33486  1.0000 0.1102042296
H   H44       1.0  0.94472  0.44698  0.24303  1.0000 0.1278504469
H   H45       1.0  0.06301  0.36127  0.17429  1.0000 0.1165993083
H   H46       1.0  0.94024  0.41274  0.05796  1.0000 0.1278504469
H   H47       1.0  0.06559  0.79121  0.39574  1.0000 0.1278504469
H   H48       1.0  0.91965  0.77115  0.29975  1.0000 0.1102042296
H   H49       1.0  0.94000  0.55940  0.11653  1.0000 0.1278504469
H   H50       1.0  0.92423  0.69579  0.23899  1.0000 0.1102042296
H   H51       1.0  0.05464  0.63254  0.30212  1.0000 0.1102042296
H   H52       1.0  0.06737  0.71379  0.33486  1.0000 0.1102042296
H   H53       1.0  0.05528  0.55302  0.24303  1.0000 0.1278504469
H   H54       1.0  0.93699  0.63873  0.17429  1.0000 0.1165993083
H   H55       1.0  0.41274  0.94024  0.94204  1.0000 0.1278504469
H   H56       1.0  0.79121  0.06559  0.60426  1.0000 0.1278504469
H   H57       1.0  0.77115  0.91965  0.70025  1.0000 0.1102042296
H   H58       1.0  0.55940  0.94000  0.88347  1.0000 0.1278504469
H   H59       1.0  0.69579  0.92423  0.76101  1.0000 0.1102042296
H   H60       1.0  0.63254  0.05464  0.69788  1.0000 0.1102042296
H   H61       1.0  0.71379  0.06737  0.66514  1.0000 0.1102042296
H   H62       1.0  0.55302  0.05528  0.75697  1.0000 0.1278504469
H   H63       1.0  0.63873  0.93699  0.82571  1.0000 0.1165993083
H   H64       1.0  0.58726  0.05976  0.94204  1.0000 0.1278504469
H   H65       1.0  0.20879  0.93441  0.60426  1.0000 0.1278504469
H   H66       1.0  0.22885  0.08035  0.70025  1.0000 0.1102042296
H   H67       1.0  0.44060  0.06000  0.88347  1.0000 0.1278504469
H   H68       1.0  0.30421  0.07577  0.76101  1.0000 0.1102042296
H   H69       1.0  0.36746  0.94536  0.69788  1.0000 0.1102042296
H   H70       1.0  0.28621  0.93263  0.66514  1.0000 0.1102042296
H   H71       1.0  0.44698  0.94472  0.75697  1.0000 0.1278504469
H   H72       1.0  0.36127  0.06301  0.82571  1.0000 0.1165993083
C   C1        1.0  0.99387  0.84261  0.60940  1.0000 0.6415173058
C   C2        1.0  0.99265  0.79103  0.64725  1.0000 -0.0508440649
C   C3        1.0  0.99500  0.69600  0.71821  1.0000 0.0801804392
C   C4        1.0  0.96455  0.44825  0.96550  1.0000 -0.1705906732
C   C5        1.0  0.99875  0.54885  0.82644  1.0000 0.1473848135
C   C6        1.0  0.99574  0.64466  0.75597  1.0000 0.061573783
C   C7        1.0  0.03576  0.77204  0.63680  1.0000 -0.0918592158
C   C8        1.0  0.95143  0.76077  0.69240  1.0000 -0.0823096279
C   C9        1.0  0.96421  0.57419  0.84530  1.0000 -0.2064706068
C   C10       1.0  0.95361  0.71479  0.72800  1.0000 -0.1705906732
C   C11       1.0  0.03052  0.61848  0.73620  1.0000 -0.1462590005
C   C12       1.0  0.03643  0.72537  0.67290  1.0000 -0.1705906732
C   C13       1.0  0.03075  0.57065  0.77220  1.0000 -0.1983670499
C   C14       1.0  0.96225  0.62195  0.81050  1.0000 -0.1432810661
C   C15       1.0  0.00613  0.15739  0.60940  1.0000 0.6415173058
C   C16       1.0  0.00735  0.20897  0.64725  1.0000 -0.0508440649
C   C17       1.0  0.00500  0.30400  0.71821  1.0000 0.0801804392
C   C18       1.0  0.03545  0.55175  0.96550  1.0000 -0.1705906732
C   C19       1.0  0.00125  0.45115  0.82644  1.0000 0.1473848135
C   C20       1.0  0.00426  0.35534  0.75597  1.0000 0.061573783
C   C21       1.0  0.96424  0.22796  0.63680  1.0000 -0.0918592158
C   C22       1.0  0.04857  0.23923  0.69240  1.0000 -0.0823096279
C   C23       1.0  0.03579  0.42581  0.84530  1.0000 -0.2064706068
C   C24       1.0  0.04639  0.28521  0.72800  1.0000 -0.1705906732
C   C25       1.0  0.96948  0.38152  0.73620  1.0000 -0.1432810661
C   C26       1.0  0.96357  0.27463  0.67290  1.0000 -0.1705906732
C   C27       1.0  0.96925  0.42935  0.77220  1.0000 -0.1983670499
C   C28       1.0  0.03775  0.37805  0.81050  1.0000 -0.1432810661
C   C29       1.0  0.15739  0.00613  0.39060  1.0000 0.6415173058
C   C30       1.0  0.20897  0.00735  0.35275  1.0000 -0.0508440649
C   C31       1.0  0.30400  0.00500  0.28179  1.0000 0.0801804392
C   C32       1.0  0.55175  0.03545  0.03450  1.0000 -0.1705906732
C   C33       1.0  0.45115  0.00125  0.17356  1.0000 0.1448626463
C   C34       1.0  0.35534  0.00426  0.24403  1.0000 0.061573783
C   C35       1.0  0.22796  0.96424  0.36320  1.0000 -0.0918592158
C   C36       1.0  0.23923  0.04857  0.30760  1.0000 -0.0823096279
C   C37       1.0  0.42581  0.03579  0.15470  1.0000 -0.2064706068
C   C38       1.0  0.28521  0.04639  0.27200  1.0000 -0.1705906732
C   C39       1.0  0.38152  0.96948  0.26380  1.0000 -0.1462590005
C   C40       1.0  0.27463  0.96357  0.32710  1.0000 -0.1705906732
C   C41       1.0  0.42935  0.96925  0.22780  1.0000 -0.1983670499
C   C42       1.0  0.37805  0.03775  0.18950  1.0000 -0.1432810661
C   C43       1.0  0.84261  0.99387  0.39060  1.0000 0.6415173058
C   C44       1.0  0.79103  0.99265  0.35275  1.0000 -0.0508440649
C   C45       1.0  0.69600  0.99500  0.28179  1.0000 0.0801804392
C   C46       1.0  0.44825  0.96455  0.03450  1.0000 -0.1705906732
C   C47       1.0  0.54885  0.99875  0.17356  1.0000 0.1473848135
C   C48       1.0  0.64466  0.99574  0.24403  1.0000 0.061573783
C   C49       1.0  0.77204  0.03576  0.36320  1.0000 -0.0918592158
C   C50       1.0  0.76077  0.95143  0.30760  1.0000 -0.0823096279
C   C51       1.0  0.57419  0.96421  0.15470  1.0000 -0.2064706068
C   C52       1.0  0.71479  0.95361  0.27200  1.0000 -0.1705906732
C   C53       1.0  0.61848  0.03052  0.26380  1.0000 -0.1462590005
C   C54       1.0  0.72537  0.03643  0.32710  1.0000 -0.1705906732
C   C55       1.0  0.57065  0.03075  0.22780  1.0000 -0.1983670499
C   C56       1.0  0.62195  0.96225  0.18950  1.0000 -0.1432810661
C   C57       1.0  0.00613  0.15739  0.39060  1.0000 0.6415173058
C   C58       1.0  0.00735  0.20897  0.35275  1.0000 -0.0508440649
C   C59       1.0  0.00500  0.30400  0.28179  1.0000 0.0801804392
C   C60       1.0  0.03545  0.55175  0.03450  1.0000 -0.1705906732
C   C61       1.0  0.00125  0.45115  0.17356  1.0000 0.1448626463
C   C62       1.0  0.00426  0.35534  0.24403  1.0000 0.061573783
C   C63       1.0  0.96424  0.22796  0.36320  1.0000 -0.0918592158
C   C64       1.0  0.04857  0.23923  0.30760  1.0000 -0.0823096279
C   C65       1.0  0.03579  0.42581  0.15470  1.0000 -0.2064706068
C   C66       1.0  0.04639  0.28521  0.27200  1.0000 -0.1705906732
C   C67       1.0  0.96948  0.38152  0.26380  1.0000 -0.1432810661
C   C68       1.0  0.96357  0.27463  0.32710  1.0000 -0.1705906732
C   C69       1.0  0.96925  0.42935  0.22780  1.0000 -0.1983670499
C   C70       1.0  0.03775  0.37805  0.18950  1.0000 -0.1432810661
C   C71       1.0  0.99387  0.84261  0.39060  1.0000 0.6415173058
C   C72       1.0  0.99265  0.79103  0.35275  1.0000 -0.0508440649
C   C73       1.0  0.99500  0.69600  0.28179  1.0000 0.0801804392
C   C74       1.0  0.96455  0.44825  0.03450  1.0000 -0.1705906732
C   C75       1.0  0.99875  0.54885  0.17356  1.0000 0.1473848135
C   C76       1.0  0.99574  0.64466  0.24403  1.0000 0.061573783
C   C77       1.0  0.03576  0.77204  0.36320  1.0000 -0.0918592158
C   C78       1.0  0.95143  0.76077  0.30760  1.0000 -0.0823096279
C   C79       1.0  0.96421  0.57419  0.15470  1.0000 -0.2064706068
C   C80       1.0  0.95361  0.71479  0.27200  1.0000 -0.1705906732
C   C81       1.0  0.03052  0.61848  0.26380  1.0000 -0.1462590005
C   C82       1.0  0.03643  0.72537  0.32710  1.0000 -0.1705906732
C   C83       1.0  0.03075  0.57065  0.22780  1.0000 -0.1983670499
C   C84       1.0  0.96225  0.62195  0.18950  1.0000 -0.1432810661
C   C85       1.0  0.84261  0.99387  0.60940  1.0000 0.6415173058
C   C86       1.0  0.79103  0.99265  0.64725  1.0000 -0.0508440649
C   C87       1.0  0.69600  0.99500  0.71821  1.0000 0.0801804392
C   C88       1.0  0.44825  0.96455  0.96550  1.0000 -0.1705906732
C   C89       1.0  0.54885  0.99875  0.82644  1.0000 0.1473848135
C   C90       1.0  0.64466  0.99574  0.75597  1.0000 0.061573783
C   C91       1.0  0.77204  0.03576  0.63680  1.0000 -0.0918592158
C   C92       1.0  0.76077  0.95143  0.69240  1.0000 -0.0823096279
C   C93       1.0  0.57419  0.96421  0.84530  1.0000 -0.2064706068
C   C94       1.0  0.71479  0.95361  0.72800  1.0000 -0.1705906732
C   C95       1.0  0.61848  0.03052  0.73620  1.0000 -0.1462590005
C   C96       1.0  0.72537  0.03643  0.67290  1.0000 -0.1705906732
C   C97       1.0  0.57065  0.03075  0.77220  1.0000 -0.1983670499
C   C98       1.0  0.62195  0.96225  0.81050  1.0000 -0.1432810661
C   C99       1.0  0.15739  0.00613  0.60940  1.0000 0.6415173058
C   C100      1.0  0.20897  0.00735  0.64725  1.0000 -0.0508440649
C   C101      1.0  0.30400  0.00500  0.71821  1.0000 0.0801804392
C   C102      1.0  0.55175  0.03545  0.96550  1.0000 -0.1705906732
C   C103      1.0  0.45115  0.00125  0.82644  1.0000 0.1448626463
C   C104      1.0  0.35534  0.00426  0.75597  1.0000 0.061573783
C   C105      1.0  0.22796  0.96424  0.63680  1.0000 -0.0918592158
C   C106      1.0  0.23923  0.04857  0.69240  1.0000 -0.0823096279
C   C107      1.0  0.42581  0.03579  0.84530  1.0000 -0.2064706068
C   C108      1.0  0.28521  0.04639  0.72800  1.0000 -0.1705906732
C   C109      1.0  0.38152  0.96948  0.73620  1.0000 -0.1462590005
C   C110      1.0  0.27463  0.96357  0.67290  1.0000 -0.1705906732
C   C111      1.0  0.42935  0.96925  0.77220  1.0000 -0.1983670499
C   C112      1.0  0.37805  0.03775  0.81050  1.0000 -0.1432810661
C   C113      1.0  0.00000  0.50000  0.93140  1.0000 0.1473848135
C   C114      1.0  0.50000  0.00000  0.06860  1.0000 0.1473848135
C   C115      1.0  0.00000  0.50000  0.06860  1.0000 0.1473848135
C   C116      1.0  0.50000  0.00000  0.93140  1.0000 0.1473848135
N   N1        1.0  0.00000  0.50000  0.86200  1.0000 -0.1806969847
N   N2        1.0  0.50000  0.00000  0.13800  1.0000 -0.1806969847
N   N3        1.0  0.00000  0.50000  0.13800  1.0000 -0.1806969847
N   N4        1.0  0.50000  0.00000  0.86200  1.0000 -0.1806969847
O   O1        1.0  0.03330  0.86500  0.56561  1.0000 -0.5759432967
O   O2        1.0  0.95346  0.85866  0.62261  1.0000 -0.6177828623
O   O3        1.0  0.96670  0.13500  0.56561  1.0000 -0.5742355045
O   O4        1.0  0.04654  0.14134  0.62261  1.0000 -0.6177828623
O   O5        1.0  0.13500  0.96670  0.43439  1.0000 -0.5759432967
O   O6        1.0  0.14134  0.04654  0.37739  1.0000 -0.6177828623
O   O7        1.0  0.86500  0.03330  0.43439  1.0000 -0.5742355045
O   O8        1.0  0.85866  0.95346  0.37739  1.0000 -0.6148941573
O   O9        1.0  0.96670  0.13500  0.43439  1.0000 -0.5742355045
O   O10       1.0  0.04654  0.14134  0.37739  1.0000 -0.6177828623
O   O11       1.0  0.03330  0.86500  0.43439  1.0000 -0.5759432967
O   O12       1.0  0.95346  0.85866  0.37739  1.0000 -0.6177828623
O   O13       1.0  0.86500  0.03330  0.56561  1.0000 -0.5742355045
O   O14       1.0  0.85866  0.95346  0.62261  1.0000 -0.6177828623
O   O15       1.0  0.13500  0.96670  0.56561  1.0000 -0.5759432967
O   O16       1.0  0.14134  0.04654  0.62261  1.0000 -0.6177828623
O   O17       1.0  0.09602  0.04018  0.50000  1.0000 -1.1706235465
O   O18       1.0  0.90398  0.95982  0.50000  1.0000 -1.1706235465
O   O19       1.0  0.95982  0.90398  0.50000  1.0000 -1.1706235465
O   O20       1.0  0.04018  0.09602  0.50000  1.0000 -1.1796462114
O   O21       1.0  0.02823  0.97177  0.41200  1.0000 -1.1796462114
O   O22       1.0  0.97177  0.02823  0.41200  1.0000 -1.1796462114
O   O23       1.0  0.02823  0.97177  0.58800  1.0000 -1.1796462114
O   O24       1.0  0.97177  0.02823  0.58800  1.0000 -1.1796462114
