# DDEC6 charges by PACMAN v1.1 (https://github.com/mtap-research/PACMAN-charge/)
data_2022[Sc][bpq]3[ASR]3
_chemical_formula_sum              "Sc2 H18 C32 O10"
_cell_length_a       14.1483
_cell_length_b       14.1483
_cell_length_c       11.2728
_cell_angle_alpha    90
_cell_angle_beta     90
_cell_angle_gamma    150.024

_symmetry_space_group_name_H-M    "P 1"
_symmetry_Int_Tables_number       1

loop_
  _symmetry_equiv_pos_as_xyz
  'x, y, z'

loop_
  _atom_site_type_symbol
  _atom_site_label
  _atom_site_symmetry_multiplicity
  _atom_site_fract_x
  _atom_site_fract_y
  _atom_site_fract_z
  _atom_site_occupancy
  _atom_site_charge
Sc  Sc1       1.0  1.00000  0.50000  0.50000  1.0000 1.8311481134
Sc  Sc2       1.0  0.50000  0.00000  0.50000  1.0000 1.8311481134
H   H1        1.0  0.14812  0.40518  0.73764  1.0000 0.1233273701
H   H2        1.0  0.21443  0.33941  0.86812  1.0000 0.1134206088
H   H3        1.0  0.35188  0.09482  0.73764  1.0000 0.1233273701
H   H4        1.0  0.28557  0.16059  0.86812  1.0000 0.1134206088
H   H5        1.0  0.09482  0.35188  0.26236  1.0000 0.1233273701
H   H6        1.0  0.16059  0.28557  0.13188  1.0000 0.1134206088
H   H7        1.0  0.40518  0.14812  0.26236  1.0000 0.1233273701
H   H8        1.0  0.33941  0.21443  0.13188  1.0000 0.1134206088
H   H9        1.0  0.85188  0.59482  0.26236  1.0000 0.1233273701
H   H10       1.0  0.78557  0.66059  0.13188  1.0000 0.1134206088
H   H11       1.0  0.64812  0.90518  0.26236  1.0000 0.1233273701
H   H12       1.0  0.71443  0.83941  0.13188  1.0000 0.1134206088
H   H13       1.0  0.90518  0.64812  0.73764  1.0000 0.1233273701
H   H14       1.0  0.83941  0.71443  0.86812  1.0000 0.1134206088
H   H15       1.0  0.59482  0.85188  0.73764  1.0000 0.1233273701
H   H16       1.0  0.66059  0.78557  0.86812  1.0000 0.1134206088
H   H17       1.0  0.75000  0.25000  0.33810  1.0000 0.4191991644
H   H18       1.0  0.25000  0.75000  0.66190  1.0000 0.4191991644
C   C1        1.0  0.04893  0.27947  0.76490  1.0000 -0.0896446841
C   C2        1.0  0.08829  0.24031  0.84200  1.0000 -0.1572843312
C   C3        1.0  0.45107  0.22053  0.76490  1.0000 -0.0896446841
C   C4        1.0  0.41171  0.25969  0.84200  1.0000 -0.1572843312
C   C5        1.0  0.22053  0.45107  0.23510  1.0000 -0.0896446841
C   C6        1.0  0.25969  0.41171  0.15800  1.0000 -0.1572843312
C   C7        1.0  0.27947  0.04893  0.23510  1.0000 -0.0896446841
C   C8        1.0  0.24031  0.08829  0.15800  1.0000 -0.1572843312
C   C9        1.0  0.95107  0.72053  0.23510  1.0000 -0.0896446841
C   C10       1.0  0.91171  0.75969  0.15800  1.0000 -0.1572843312
C   C11       1.0  0.54893  0.77947  0.23510  1.0000 -0.0896446841
C   C12       1.0  0.58829  0.74031  0.15800  1.0000 -0.1572843312
C   C13       1.0  0.77947  0.54893  0.76490  1.0000 -0.0896446841
C   C14       1.0  0.74031  0.58829  0.84200  1.0000 -0.1572843312
C   C15       1.0  0.72053  0.95107  0.76490  1.0000 -0.0896446841
C   C16       1.0  0.75969  0.91171  0.84200  1.0000 -0.1572843312
C   C17       1.0  0.98385  0.01615  0.96430  1.0000 -0.103224984
C   C18       1.0  0.94387  0.05613  0.88170  1.0000 0.149011466
C   C19       1.0  0.86464  0.13536  0.72720  1.0000 -0.0323856162
C   C20       1.0  0.82115  0.17885  0.64640  1.0000 0.6473247664
C   C21       1.0  0.51615  0.48385  0.96430  1.0000 -0.103224984
C   C22       1.0  0.55613  0.44387  0.88170  1.0000 0.149011466
C   C23       1.0  0.63536  0.36464  0.72720  1.0000 -0.0323856162
C   C24       1.0  0.67885  0.32115  0.64640  1.0000 0.6473247664
C   C25       1.0  0.48385  0.51615  0.03570  1.0000 -0.103224984
C   C26       1.0  0.44387  0.55613  0.11830  1.0000 0.149011466
C   C27       1.0  0.36464  0.63536  0.27280  1.0000 -0.0323856162
C   C28       1.0  0.32115  0.67885  0.35360  1.0000 0.6473247664
C   C29       1.0  0.01615  0.98385  0.03570  1.0000 -0.103224984
C   C30       1.0  0.05613  0.94387  0.11830  1.0000 0.149011466
C   C31       1.0  0.13536  0.86464  0.27280  1.0000 -0.0323856162
C   C32       1.0  0.17885  0.82115  0.35360  1.0000 0.6473247664
O   O1        1.0  0.95647  0.34813  0.61529  1.0000 -0.6315686895
O   O2        1.0  0.54353  0.15187  0.61529  1.0000 -0.6315686895
O   O3        1.0  0.15187  0.54353  0.38471  1.0000 -0.6315686895
O   O4        1.0  0.34813  0.95647  0.38471  1.0000 -0.6315686895
O   O5        1.0  0.04353  0.65187  0.38471  1.0000 -0.6315686895
O   O6        1.0  0.45647  0.84813  0.38471  1.0000 -0.6315686895
O   O7        1.0  0.84813  0.45647  0.61529  1.0000 -0.6315686895
O   O8        1.0  0.65187  0.04353  0.61529  1.0000 -0.6315686895
O   O9        1.0  0.75000  0.25000  0.41320  1.0000 -1.0043853863
O   O10       1.0  0.25000  0.75000  0.58680  1.0000 -1.0052138908
