# DDEC6 charges by PACMAN v1.1 (https://github.com/mtap-research/PACMAN-charge/)
data_2022[Y][flu]3[ASR]1
_chemical_formula_sum              "Y6 H42 C70 N4 O28"
_cell_length_a       21.7097
_cell_length_b       18.8229
_cell_length_c       18.027
_cell_angle_alpha    72.1552
_cell_angle_beta     55.6204
_cell_angle_gamma    52.2244

_symmetry_space_group_name_H-M    "P 1"
_symmetry_Int_Tables_number       1

loop_
  _symmetry_equiv_pos_as_xyz
  'x, y, z'

loop_
  _atom_site_type_symbol
  _atom_site_label
  _atom_site_symmetry_multiplicity
  _atom_site_fract_x
  _atom_site_fract_y
  _atom_site_fract_z
  _atom_site_occupancy
  _atom_site_charge
Y   Y1        1.0  0.41036  0.58964  0.41036  1.0000 1.8933636002
Y   Y2        1.0  0.58964  0.41036  0.58964  1.0000 1.8933636002
Y   Y3        1.0  0.53340  0.34246  0.46660  1.0000 1.9194917731
Y   Y4        1.0  0.34246  0.53340  0.65754  1.0000 1.9194917731
Y   Y5        1.0  0.46660  0.65754  0.53340  1.0000 1.9194917731
Y   Y6        1.0  0.65754  0.46660  0.34246  1.0000 1.9147915892
H   H1        1.0  0.65068  0.06362  0.56764  1.0000 0.131953084
H   H2        1.0  0.72687  0.91579  0.60249  1.0000 0.1390178019
H   H3        1.0  0.84546  0.96912  0.66588  1.0000 0.1390178019
H   H4        1.0  0.76736  0.11812  0.63220  1.0000 0.131953084
H   H5        1.0  0.88521  0.68931  0.61605  1.0000 0.1390178019
H   H6        1.0  0.06362  0.65068  0.71806  1.0000 0.131953084
H   H7        1.0  0.91579  0.72687  0.75485  1.0000 0.1390178019
H   H8        1.0  0.96912  0.84546  0.51954  1.0000 0.131953084
H   H9        1.0  0.11812  0.76736  0.48232  1.0000 0.131953084
H   H10       1.0  0.68931  0.88521  0.80943  1.0000 0.1390178019
H   H11       1.0  0.56764  0.71806  0.65068  1.0000 0.131953084
H   H12       1.0  0.60249  0.75485  0.72687  1.0000 0.1390178019
H   H13       1.0  0.66588  0.51954  0.84546  1.0000 0.131953084
H   H14       1.0  0.63220  0.48232  0.76736  1.0000 0.131953084
H   H15       1.0  0.61605  0.80943  0.88521  1.0000 0.1390178019
H   H16       1.0  0.71806  0.56764  0.06362  1.0000 0.131953084
H   H17       1.0  0.75485  0.60249  0.91579  1.0000 0.1390178019
H   H18       1.0  0.51954  0.66588  0.96912  1.0000 0.131953084
H   H19       1.0  0.48232  0.63220  0.11812  1.0000 0.131953084
H   H20       1.0  0.80943  0.61605  0.68931  1.0000 0.1390178019
H   H21       1.0  0.34932  0.93638  0.43236  1.0000 0.131953084
H   H22       1.0  0.27313  0.08421  0.39751  1.0000 0.1390178019
H   H23       1.0  0.15454  0.03088  0.33412  1.0000 0.131953084
H   H24       1.0  0.23264  0.88188  0.36780  1.0000 0.131953084
H   H25       1.0  0.11479  0.31069  0.38395  1.0000 0.1390178019
H   H26       1.0  0.93638  0.34932  0.28194  1.0000 0.131953084
H   H27       1.0  0.08421  0.27313  0.24515  1.0000 0.1390178019
H   H28       1.0  0.03088  0.15454  0.48046  1.0000 0.131953084
H   H29       1.0  0.88188  0.23264  0.51768  1.0000 0.131953084
H   H30       1.0  0.31069  0.11479  0.19057  1.0000 0.1390178019
H   H31       1.0  0.43236  0.28194  0.34932  1.0000 0.131953084
H   H32       1.0  0.39751  0.24515  0.27313  1.0000 0.1390178019
H   H33       1.0  0.33412  0.48046  0.15454  1.0000 0.131953084
H   H34       1.0  0.36780  0.51768  0.23264  1.0000 0.131953084
H   H35       1.0  0.38395  0.19057  0.11479  1.0000 0.1390178019
H   H36       1.0  0.28194  0.43236  0.93638  1.0000 0.131953084
H   H37       1.0  0.24515  0.39751  0.08421  1.0000 0.1390178019
H   H38       1.0  0.48046  0.33412  0.03088  1.0000 0.131953084
H   H39       1.0  0.51768  0.36780  0.88188  1.0000 0.131953084
H   H40       1.0  0.19057  0.38395  0.31069  1.0000 0.1390178019
H   H41       1.0  0.32197  0.32197  0.67803  1.0000 0.0680568866
H   H42       1.0  0.67803  0.67803  0.32197  1.0000 0.0680568866
C   C1        1.0  0.65044  0.20416  0.57464  1.0000 0.6132202498
C   C2        1.0  0.70238  0.10584  0.59516  1.0000 -0.046438889
C   C3        1.0  0.69003  0.04475  0.58765  1.0000 -0.0744430417
C   C4        1.0  0.73465  0.95703  0.60897  1.0000 -0.190948103
C   C5        1.0  0.79208  0.92938  0.64062  1.0000 0.1765124664
C   C6        1.0  0.80525  0.98823  0.64697  1.0000 -0.190948103
C   C7        1.0  0.75932  0.07714  0.62566  1.0000 -0.0766786462
C   C8        1.0  0.83006  0.71486  0.67034  1.0000 -0.1634389818
C   C9        1.0  0.20416  0.65044  0.57076  1.0000 0.6132202498
C   C10       1.0  0.10584  0.70238  0.59662  1.0000 -0.046438889
C   C11       1.0  0.04475  0.69003  0.67757  1.0000 -0.0744430417
C   C12       1.0  0.95703  0.73465  0.69935  1.0000 -0.190948103
C   C13       1.0  0.92938  0.79208  0.63792  1.0000 0.1765124664
C   C14       1.0  0.98823  0.80525  0.55955  1.0000 -0.190948103
C   C15       1.0  0.07714  0.75932  0.53788  1.0000 -0.0766786462
C   C16       1.0  0.71486  0.83006  0.78474  1.0000 -0.1634389818
C   C17       1.0  0.57464  0.57076  0.65044  1.0000 0.6132202498
C   C18       1.0  0.59516  0.59662  0.70238  1.0000 -0.046438889
C   C19       1.0  0.58765  0.67757  0.69003  1.0000 -0.0744430417
C   C20       1.0  0.60897  0.69935  0.73465  1.0000 -0.190948103
C   C21       1.0  0.64062  0.63792  0.79208  1.0000 0.1765124664
C   C22       1.0  0.64697  0.55955  0.80525  1.0000 -0.190948103
C   C23       1.0  0.62566  0.53788  0.75932  1.0000 -0.0766786462
C   C24       1.0  0.67034  0.78474  0.83006  1.0000 -0.1634389818
C   C25       1.0  0.57076  0.57464  0.20416  1.0000 0.6132202498
C   C26       1.0  0.59662  0.59516  0.10584  1.0000 -0.046438889
C   C27       1.0  0.67757  0.58765  0.04475  1.0000 -0.0744430417
C   C28       1.0  0.69935  0.60897  0.95703  1.0000 -0.190948103
C   C29       1.0  0.63792  0.64062  0.92938  1.0000 0.1765124664
C   C30       1.0  0.55955  0.64697  0.98823  1.0000 -0.190948103
C   C31       1.0  0.53788  0.62566  0.07714  1.0000 -0.0766786462
C   C32       1.0  0.78474  0.67034  0.71486  1.0000 -0.1634389818
C   C33       1.0  0.34956  0.79584  0.42536  1.0000 0.6132202498
C   C34       1.0  0.29762  0.89416  0.40484  1.0000 -0.046438889
C   C35       1.0  0.30997  0.95525  0.41235  1.0000 -0.0744430417
C   C36       1.0  0.26535  0.04297  0.39103  1.0000 -0.190948103
C   C37       1.0  0.20792  0.07062  0.35938  1.0000 0.1765124664
C   C38       1.0  0.19475  0.01177  0.35303  1.0000 -0.190948103
C   C39       1.0  0.24068  0.92286  0.37434  1.0000 -0.0766786462
C   C40       1.0  0.16994  0.28514  0.32966  1.0000 -0.1634389818
C   C41       1.0  0.79584  0.34956  0.42924  1.0000 0.6132202498
C   C42       1.0  0.89416  0.29762  0.40338  1.0000 -0.046438889
C   C43       1.0  0.95525  0.30997  0.32243  1.0000 -0.0744430417
C   C44       1.0  0.04297  0.26535  0.30065  1.0000 -0.190948103
C   C45       1.0  0.07062  0.20792  0.36208  1.0000 0.1765124664
C   C46       1.0  0.01177  0.19475  0.44045  1.0000 -0.190948103
C   C47       1.0  0.92286  0.24068  0.46212  1.0000 -0.0766786462
C   C48       1.0  0.28514  0.16994  0.21526  1.0000 -0.1634389818
C   C49       1.0  0.42536  0.42924  0.34956  1.0000 0.6132202498
C   C50       1.0  0.40484  0.40338  0.29762  1.0000 -0.046438889
C   C51       1.0  0.41235  0.32243  0.30997  1.0000 -0.0744430417
C   C52       1.0  0.39103  0.30065  0.26535  1.0000 -0.190948103
C   C53       1.0  0.35938  0.36208  0.20792  1.0000 0.1765124664
C   C54       1.0  0.35303  0.44045  0.19475  1.0000 -0.190948103
C   C55       1.0  0.37434  0.46212  0.24068  1.0000 -0.0766786462
C   C56       1.0  0.32966  0.21526  0.16994  1.0000 -0.1634389818
C   C57       1.0  0.42924  0.42536  0.79584  1.0000 0.6132202498
C   C58       1.0  0.40338  0.40484  0.89416  1.0000 -0.046438889
C   C59       1.0  0.32243  0.41235  0.95525  1.0000 -0.0744430417
C   C60       1.0  0.30065  0.39103  0.04297  1.0000 -0.190948103
C   C61       1.0  0.36208  0.35938  0.07062  1.0000 0.1765124664
C   C62       1.0  0.44045  0.35303  0.01177  1.0000 -0.190948103
C   C63       1.0  0.46212  0.37434  0.92286  1.0000 -0.0766786462
C   C64       1.0  0.21526  0.32966  0.28514  1.0000 -0.1634389818
C   C65       1.0  0.79399  0.79399  0.70601  1.0000 0.1461002022
C   C66       1.0  0.70601  0.70601  0.79399  1.0000 0.1461002022
C   C67       1.0  0.20601  0.20601  0.29399  1.0000 0.1461002022
C   C68       1.0  0.29399  0.29399  0.20601  1.0000 0.1461002022
C   C69       1.0  0.35170  0.35170  0.64830  1.0000 0.4372598581
C   C70       1.0  0.64830  0.64830  0.35170  1.0000 0.4372598581
N   N1        1.0  0.83868  0.83868  0.66132  1.0000 -0.1676470772
N   N2        1.0  0.66132  0.66132  0.83868  1.0000 -0.1676470772
N   N3        1.0  0.16132  0.16132  0.33868  1.0000 -0.1676470772
N   N4        1.0  0.33868  0.33868  0.16132  1.0000 -0.1676470772
O   O1        1.0  0.61416  0.22066  0.53134  1.0000 -0.5591735986
O   O2        1.0  0.65187  0.25845  0.59875  1.0000 -0.5437809922
O   O3        1.0  0.22066  0.61416  0.63384  1.0000 -0.5591735986
O   O4        1.0  0.25845  0.65187  0.49093  1.0000 -0.5437809922
O   O5        1.0  0.53134  0.63384  0.61416  1.0000 -0.5591735986
O   O6        1.0  0.59875  0.49093  0.65187  1.0000 -0.5437809922
O   O7        1.0  0.63384  0.53134  0.22066  1.0000 -0.5591735986
O   O8        1.0  0.49093  0.59875  0.25845  1.0000 -0.5437809922
O   O9        1.0  0.38584  0.77934  0.46866  1.0000 -0.5591735986
O   O10       1.0  0.34813  0.74155  0.40125  1.0000 -0.5437809922
O   O11       1.0  0.77934  0.38584  0.36616  1.0000 -0.5591735986
O   O12       1.0  0.74155  0.34813  0.50907  1.0000 -0.5437809922
O   O13       1.0  0.46866  0.36616  0.38584  1.0000 -0.5591735986
O   O14       1.0  0.40125  0.50907  0.34813  1.0000 -0.5437809922
O   O15       1.0  0.36616  0.46866  0.77934  1.0000 -0.5591735986
O   O16       1.0  0.50907  0.40125  0.74155  1.0000 -0.5437809922
O   O17       1.0  0.42894  0.30534  0.57106  1.0000 -0.5591735986
O   O18       1.0  0.30534  0.42894  0.69466  1.0000 -0.5591735986
O   O19       1.0  0.57106  0.69466  0.42894  1.0000 -0.5591735986
O   O20       1.0  0.69466  0.57106  0.30534  1.0000 -0.5591735986
O   O21       1.0  0.54786  0.45214  0.36946  1.0000 -0.8789065428
O   O22       1.0  0.45214  0.54786  0.63054  1.0000 -0.8734084912
O   O23       1.0  0.36946  0.63054  0.54786  1.0000 -0.8789065428
O   O24       1.0  0.63054  0.36946  0.45214  1.0000 -0.8734084912
O   O25       1.0  0.40208  0.48526  0.51474  1.0000 -0.8945419141
O   O26       1.0  0.48526  0.40208  0.59792  1.0000 -0.9016571291
O   O27       1.0  0.51474  0.59792  0.40208  1.0000 -0.8945419141
O   O28       1.0  0.59792  0.51474  0.48526  1.0000 -0.9016571291
