# DDEC6 charges by PACMAN v1.1 (https://github.com/mtap-research/PACMAN-charge/)
data_2022[CuCd][nan]2[ASR]1
_chemical_formula_sum              "Cd8 Cu2 H96 C144 O58"
_cell_length_a       14.9995
_cell_length_b       14.9995
_cell_length_c       19.5734
_cell_angle_alpha    90
_cell_angle_beta     90
_cell_angle_gamma    90

_symmetry_space_group_name_H-M    "P 1"
_symmetry_Int_Tables_number       1

loop_
  _symmetry_equiv_pos_as_xyz
  'x, y, z'

loop_
  _atom_site_type_symbol
  _atom_site_label
  _atom_site_symmetry_multiplicity
  _atom_site_fract_x
  _atom_site_fract_y
  _atom_site_fract_z
  _atom_site_occupancy
  _atom_site_charge
Cd  Cd1       1.0  0.98181  0.65657  0.03122  1.0000 1.0163493459
Cd  Cd2       1.0  0.01819  0.34343  0.03122  1.0000 1.0163493459
Cd  Cd3       1.0  0.84343  0.48181  0.03122  1.0000 1.0163493459
Cd  Cd4       1.0  0.15657  0.51819  0.03122  1.0000 1.0163493459
Cd  Cd5       1.0  0.51819  0.15657  0.96878  1.0000 1.0163493459
Cd  Cd6       1.0  0.48181  0.84343  0.96878  1.0000 1.0163493459
Cd  Cd7       1.0  0.65657  0.98181  0.96878  1.0000 1.0163493459
Cd  Cd8       1.0  0.34343  0.01819  0.96878  1.0000 1.0163493459
Cu  Cu1       1.0  0.00000  0.50000  0.20920  1.0000 0.905378521
Cu  Cu2       1.0  0.50000  0.00000  0.79080  1.0000 0.905378521
H   H1        1.0  0.16186  0.72169  0.28079  1.0000 0.1273652211
H   H2        1.0  0.20783  0.72893  0.07862  1.0000 0.1273652211
H   H3        1.0  0.34161  0.89333  0.20417  1.0000 0.1502276422
H   H4        1.0  0.38579  0.91377  0.60069  1.0000 0.1215657224
H   H5        1.0  0.24672  0.74158  0.37061  1.0000 0.0998519403
H   H6        1.0  0.17801  0.82046  0.37436  1.0000 0.0998519403
H   H7        1.0  0.45579  0.67641  0.35775  1.0000 0.1125720484
H   H8        1.0  0.46998  0.77526  0.38157  1.0000 0.0878517064
H   H9        1.0  0.45735  0.69938  0.54564  1.0000 0.0878517064
H   H10       1.0  0.51607  0.72485  0.65588  1.0000 0.1273652211
H   H11       1.0  0.47366  0.82037  0.65669  1.0000 0.1273652211
H   H12       1.0  0.41215  0.73587  0.65676  1.0000 0.1273652211
H   H13       1.0  0.83814  0.27831  0.28079  1.0000 0.1273652211
H   H14       1.0  0.79217  0.27107  0.07862  1.0000 0.1273652211
H   H15       1.0  0.65839  0.10667  0.20417  1.0000 0.1502276422
H   H16       1.0  0.61421  0.08623  0.60069  1.0000 0.1215657224
H   H17       1.0  0.75328  0.25842  0.37061  1.0000 0.0998519403
H   H18       1.0  0.82199  0.17954  0.37436  1.0000 0.0998519403
H   H19       1.0  0.54421  0.32359  0.35775  1.0000 0.1125720484
H   H20       1.0  0.53002  0.22474  0.38157  1.0000 0.0878517064
H   H21       1.0  0.54265  0.30062  0.54564  1.0000 0.0878517064
H   H22       1.0  0.48393  0.27515  0.65588  1.0000 0.1273652211
H   H23       1.0  0.52634  0.17963  0.65669  1.0000 0.1273652211
H   H24       1.0  0.58785  0.26413  0.65676  1.0000 0.1273652211
H   H25       1.0  0.77831  0.66186  0.28079  1.0000 0.1273652211
H   H26       1.0  0.77107  0.70783  0.07862  1.0000 0.1273652211
H   H27       1.0  0.60667  0.84161  0.20417  1.0000 0.1502276422
H   H28       1.0  0.58623  0.88579  0.60069  1.0000 0.1215657224
H   H29       1.0  0.75842  0.74672  0.37061  1.0000 0.0998519403
H   H30       1.0  0.67954  0.67801  0.37436  1.0000 0.0998519403
H   H31       1.0  0.82359  0.95579  0.35775  1.0000 0.1125720484
H   H32       1.0  0.72474  0.96998  0.38157  1.0000 0.0878517064
H   H33       1.0  0.80062  0.95735  0.54564  1.0000 0.0878517064
H   H34       1.0  0.77515  0.01607  0.65588  1.0000 0.1273652211
H   H35       1.0  0.67963  0.97366  0.65669  1.0000 0.1273652211
H   H36       1.0  0.76413  0.91215  0.65676  1.0000 0.1273652211
H   H37       1.0  0.22169  0.33814  0.28079  1.0000 0.1273652211
H   H38       1.0  0.22893  0.29217  0.07862  1.0000 0.1273652211
H   H39       1.0  0.39333  0.15839  0.20417  1.0000 0.1502276422
H   H40       1.0  0.41377  0.11421  0.60069  1.0000 0.1215657224
H   H41       1.0  0.24158  0.25328  0.37061  1.0000 0.0998519403
H   H42       1.0  0.32046  0.32199  0.37436  1.0000 0.0998519403
H   H43       1.0  0.17641  0.04421  0.35775  1.0000 0.1125720484
H   H44       1.0  0.27526  0.03002  0.38157  1.0000 0.0878517064
H   H45       1.0  0.19938  0.04265  0.54564  1.0000 0.0878517064
H   H46       1.0  0.22485  0.98393  0.65588  1.0000 0.1273652211
H   H47       1.0  0.32037  0.02634  0.65669  1.0000 0.1273652211
H   H48       1.0  0.23587  0.08785  0.65676  1.0000 0.1273652211
H   H49       1.0  0.33814  0.22169  0.71921  1.0000 0.1273652211
H   H50       1.0  0.29217  0.22893  0.92138  1.0000 0.1273652211
H   H51       1.0  0.15839  0.39333  0.79583  1.0000 0.1502276422
H   H52       1.0  0.11421  0.41377  0.39931  1.0000 0.1215657224
H   H53       1.0  0.25328  0.24158  0.62939  1.0000 0.0998519403
H   H54       1.0  0.32199  0.32046  0.62564  1.0000 0.0998519403
H   H55       1.0  0.04421  0.17641  0.64225  1.0000 0.1125720484
H   H56       1.0  0.03002  0.27526  0.61843  1.0000 0.0878517064
H   H57       1.0  0.04265  0.19938  0.45436  1.0000 0.0878517064
H   H58       1.0  0.98393  0.22485  0.34412  1.0000 0.1273652211
H   H59       1.0  0.02634  0.32037  0.34331  1.0000 0.1273652211
H   H60       1.0  0.08785  0.23587  0.34324  1.0000 0.1273652211
H   H61       1.0  0.66186  0.77831  0.71921  1.0000 0.1273652211
H   H62       1.0  0.70783  0.77107  0.92138  1.0000 0.1273652211
H   H63       1.0  0.84161  0.60667  0.79583  1.0000 0.1502276422
H   H64       1.0  0.88579  0.58623  0.39931  1.0000 0.1215657224
H   H65       1.0  0.74672  0.75842  0.62939  1.0000 0.0998519403
H   H66       1.0  0.67801  0.67954  0.62564  1.0000 0.0998519403
H   H67       1.0  0.95579  0.82359  0.64225  1.0000 0.1125720484
H   H68       1.0  0.96998  0.72474  0.61843  1.0000 0.0878517064
H   H69       1.0  0.95735  0.80062  0.45436  1.0000 0.0878517064
H   H70       1.0  0.01607  0.77515  0.34412  1.0000 0.1273652211
H   H71       1.0  0.97366  0.67963  0.34331  1.0000 0.1273652211
H   H72       1.0  0.91215  0.76413  0.34324  1.0000 0.1273652211
H   H73       1.0  0.72169  0.16186  0.71921  1.0000 0.1273652211
H   H74       1.0  0.72893  0.20783  0.92138  1.0000 0.1273652211
H   H75       1.0  0.89333  0.34161  0.79583  1.0000 0.1502276422
H   H76       1.0  0.91377  0.38579  0.39931  1.0000 0.1215657224
H   H77       1.0  0.74158  0.24672  0.62939  1.0000 0.0998519403
H   H78       1.0  0.82046  0.17801  0.62564  1.0000 0.0998519403
H   H79       1.0  0.67641  0.45579  0.64225  1.0000 0.1125720484
H   H80       1.0  0.77526  0.46998  0.61843  1.0000 0.0878517064
H   H81       1.0  0.69938  0.45735  0.45436  1.0000 0.0878517064
H   H82       1.0  0.72485  0.51607  0.34412  1.0000 0.1273652211
H   H83       1.0  0.82037  0.47366  0.34331  1.0000 0.1273652211
H   H84       1.0  0.73587  0.41215  0.34324  1.0000 0.1273652211
H   H85       1.0  0.27831  0.83814  0.71921  1.0000 0.1273652211
H   H86       1.0  0.27107  0.79217  0.92138  1.0000 0.1273652211
H   H87       1.0  0.10667  0.65839  0.79583  1.0000 0.1502276422
H   H88       1.0  0.08623  0.61421  0.39931  1.0000 0.1215657224
H   H89       1.0  0.25842  0.75328  0.62939  1.0000 0.0998519403
H   H90       1.0  0.17954  0.82199  0.62564  1.0000 0.0998519403
H   H91       1.0  0.32359  0.54421  0.64225  1.0000 0.1125720484
H   H92       1.0  0.22474  0.53002  0.61843  1.0000 0.0878517064
H   H93       1.0  0.30062  0.54265  0.45436  1.0000 0.0878517064
H   H94       1.0  0.27515  0.48393  0.34412  1.0000 0.1273652211
H   H95       1.0  0.17963  0.52634  0.34331  1.0000 0.1273652211
H   H96       1.0  0.26413  0.58785  0.34324  1.0000 0.1273652211
C   C1        1.0  0.25460  0.81270  0.25330  1.0000 0.258999527
C   C2        1.0  0.19200  0.74560  0.24350  1.0000 -0.2330400343
C   C3        1.0  0.17450  0.71420  0.17810  1.0000 -0.0175204528
C   C4        1.0  0.21960  0.74990  0.12240  1.0000 -0.1575282751
C   C5        1.0  0.28220  0.81700  0.13220  1.0000 0.0208169693
C   C6        1.0  0.29970  0.84840  0.19760  1.0000 -0.2169554229
C   C7        1.0  0.28490  0.83910  0.43620  1.0000 -0.1333562354
C   C8        1.0  0.25770  0.91810  0.46810  1.0000 0.1426945631
C   C9        1.0  0.29290  0.94730  0.52950  1.0000 -0.0357477762
C   C10       1.0  0.36080  0.89490  0.55970  1.0000 -0.2169554229
C   C11       1.0  0.39200  0.81500  0.52970  1.0000 -0.0328136715
C   C12       1.0  0.35400  0.79010  0.46640  1.0000 0.1502276422
C   C13       1.0  0.10930  0.64140  0.16740  1.0000 0.5884367977
C   C14       1.0  0.33400  0.85420  0.07060  1.0000 0.5418695812
C   C15       1.0  0.24100  0.80590  0.37310  1.0000 -0.0480257836
C   C16       1.0  0.46110  0.71470  0.39750  1.0000 0.1215657224
C   C17       1.0  0.46600  0.76120  0.56050  1.0000 0.0087273572
C   C18       1.0  0.46710  0.76050  0.64010  1.0000 -0.4256931241
C   C19       1.0  0.74540  0.18730  0.25330  1.0000 0.258999527
C   C20       1.0  0.80800  0.25440  0.24350  1.0000 -0.2330400343
C   C21       1.0  0.82550  0.28580  0.17810  1.0000 -0.0175204528
C   C22       1.0  0.78040  0.25010  0.12240  1.0000 -0.1575282751
C   C23       1.0  0.71780  0.18300  0.13220  1.0000 0.0208169693
C   C24       1.0  0.70030  0.15160  0.19760  1.0000 -0.2169554229
C   C25       1.0  0.71510  0.16090  0.43620  1.0000 -0.1333562354
C   C26       1.0  0.74230  0.08190  0.46810  1.0000 0.1426945631
C   C27       1.0  0.70710  0.05270  0.52950  1.0000 -0.0357477762
C   C28       1.0  0.63920  0.10510  0.55970  1.0000 -0.2169554229
C   C29       1.0  0.60800  0.18500  0.52970  1.0000 -0.0328136715
C   C30       1.0  0.64600  0.20990  0.46640  1.0000 0.1502276422
C   C31       1.0  0.89070  0.35860  0.16740  1.0000 0.5884367977
C   C32       1.0  0.66600  0.14580  0.07060  1.0000 0.5418695812
C   C33       1.0  0.75900  0.19410  0.37310  1.0000 -0.0480257836
C   C34       1.0  0.53890  0.28530  0.39750  1.0000 0.1215657224
C   C35       1.0  0.53400  0.23880  0.56050  1.0000 0.0087273572
C   C36       1.0  0.53290  0.23950  0.64010  1.0000 -0.4256931241
C   C37       1.0  0.68730  0.75460  0.25330  1.0000 0.258999527
C   C38       1.0  0.75440  0.69200  0.24350  1.0000 -0.2330400343
C   C39       1.0  0.78580  0.67450  0.17810  1.0000 -0.0175204528
C   C40       1.0  0.75010  0.71960  0.12240  1.0000 -0.1575282751
C   C41       1.0  0.68300  0.78220  0.13220  1.0000 0.0208169693
C   C42       1.0  0.65160  0.79970  0.19760  1.0000 -0.2169554229
C   C43       1.0  0.66090  0.78490  0.43620  1.0000 -0.1333562354
C   C44       1.0  0.58190  0.75770  0.46810  1.0000 0.1426945631
C   C45       1.0  0.55270  0.79290  0.52950  1.0000 -0.0357477762
C   C46       1.0  0.60510  0.86080  0.55970  1.0000 -0.2169554229
C   C47       1.0  0.68500  0.89200  0.52970  1.0000 -0.0328136715
C   C48       1.0  0.70990  0.85400  0.46640  1.0000 0.1502276422
C   C49       1.0  0.85860  0.60930  0.16740  1.0000 0.5884367977
C   C50       1.0  0.64580  0.83400  0.07060  1.0000 0.5418695812
C   C51       1.0  0.69410  0.74100  0.37310  1.0000 -0.0480257836
C   C52       1.0  0.78530  0.96110  0.39750  1.0000 0.1215657224
C   C53       1.0  0.73880  0.96600  0.56050  1.0000 0.0087273572
C   C54       1.0  0.73950  0.96710  0.64010  1.0000 -0.4256931241
C   C55       1.0  0.31270  0.24540  0.25330  1.0000 0.258999527
C   C56       1.0  0.24560  0.30800  0.24350  1.0000 -0.2330400343
C   C57       1.0  0.21420  0.32550  0.17810  1.0000 -0.0175204528
C   C58       1.0  0.24990  0.28040  0.12240  1.0000 -0.1575282751
C   C59       1.0  0.31700  0.21780  0.13220  1.0000 0.0208169693
C   C60       1.0  0.34840  0.20030  0.19760  1.0000 -0.2169554229
C   C61       1.0  0.33910  0.21510  0.43620  1.0000 -0.1333562354
C   C62       1.0  0.41810  0.24230  0.46810  1.0000 0.1426945631
C   C63       1.0  0.44730  0.20710  0.52950  1.0000 -0.0357477762
C   C64       1.0  0.39490  0.13920  0.55970  1.0000 -0.2169554229
C   C65       1.0  0.31500  0.10800  0.52970  1.0000 -0.0328136715
C   C66       1.0  0.29010  0.14600  0.46640  1.0000 0.1502276422
C   C67       1.0  0.14140  0.39070  0.16740  1.0000 0.5884367977
C   C68       1.0  0.35420  0.16600  0.07060  1.0000 0.5418695812
C   C69       1.0  0.30590  0.25900  0.37310  1.0000 -0.0480257836
C   C70       1.0  0.21470  0.03890  0.39750  1.0000 0.1215657224
C   C71       1.0  0.26120  0.03400  0.56050  1.0000 0.0087273572
C   C72       1.0  0.26050  0.03290  0.64010  1.0000 -0.4256931241
C   C73       1.0  0.24540  0.31270  0.74670  1.0000 0.258999527
C   C74       1.0  0.30800  0.24560  0.75650  1.0000 -0.2330400343
C   C75       1.0  0.32550  0.21420  0.82190  1.0000 -0.0175204528
C   C76       1.0  0.28040  0.24990  0.87760  1.0000 -0.1575282751
C   C77       1.0  0.21780  0.31700  0.86780  1.0000 0.0208169693
C   C78       1.0  0.20030  0.34840  0.80240  1.0000 -0.2169554229
C   C79       1.0  0.21510  0.33910  0.56380  1.0000 -0.1333562354
C   C80       1.0  0.24230  0.41810  0.53190  1.0000 0.1426945631
C   C81       1.0  0.20710  0.44730  0.47050  1.0000 -0.0357477762
C   C82       1.0  0.13920  0.39490  0.44030  1.0000 -0.2169554229
C   C83       1.0  0.10800  0.31500  0.47030  1.0000 -0.0328136715
C   C84       1.0  0.14600  0.29010  0.53360  1.0000 0.1502276422
C   C85       1.0  0.39070  0.14140  0.83260  1.0000 0.5884367977
C   C86       1.0  0.16600  0.35420  0.92940  1.0000 0.5418695812
C   C87       1.0  0.25900  0.30590  0.62690  1.0000 -0.0480257836
C   C88       1.0  0.03890  0.21470  0.60250  1.0000 0.1215657224
C   C89       1.0  0.03400  0.26120  0.43950  1.0000 0.0087273572
C   C90       1.0  0.03290  0.26050  0.35990  1.0000 -0.4256931241
C   C91       1.0  0.75460  0.68730  0.74670  1.0000 0.258999527
C   C92       1.0  0.69200  0.75440  0.75650  1.0000 -0.2330400343
C   C93       1.0  0.67450  0.78580  0.82190  1.0000 -0.0175204528
C   C94       1.0  0.71960  0.75010  0.87760  1.0000 -0.1575282751
C   C95       1.0  0.78220  0.68300  0.86780  1.0000 0.0208169693
C   C96       1.0  0.79970  0.65160  0.80240  1.0000 -0.2169554229
C   C97       1.0  0.78490  0.66090  0.56380  1.0000 -0.1333562354
C   C98       1.0  0.75770  0.58190  0.53190  1.0000 0.1426945631
C   C99       1.0  0.79290  0.55270  0.47050  1.0000 -0.0357477762
C   C100      1.0  0.86080  0.60510  0.44030  1.0000 -0.2169554229
C   C101      1.0  0.89200  0.68500  0.47030  1.0000 -0.0328136715
C   C102      1.0  0.85400  0.70990  0.53360  1.0000 0.1502276422
C   C103      1.0  0.60930  0.85860  0.83260  1.0000 0.5884367977
C   C104      1.0  0.83400  0.64580  0.92940  1.0000 0.5418695812
C   C105      1.0  0.74100  0.69410  0.62690  1.0000 -0.0480257836
C   C106      1.0  0.96110  0.78530  0.60250  1.0000 0.1215657224
C   C107      1.0  0.96600  0.73880  0.43950  1.0000 0.0087273572
C   C108      1.0  0.96710  0.73950  0.35990  1.0000 -0.4256931241
C   C109      1.0  0.81270  0.25460  0.74670  1.0000 0.258999527
C   C110      1.0  0.74560  0.19200  0.75650  1.0000 -0.2330400343
C   C111      1.0  0.71420  0.17450  0.82190  1.0000 -0.0175204528
C   C112      1.0  0.74990  0.21960  0.87760  1.0000 -0.1575282751
C   C113      1.0  0.81700  0.28220  0.86780  1.0000 0.0208169693
C   C114      1.0  0.84840  0.29970  0.80240  1.0000 -0.2169554229
C   C115      1.0  0.83910  0.28490  0.56380  1.0000 -0.1333562354
C   C116      1.0  0.91810  0.25770  0.53190  1.0000 0.1426945631
C   C117      1.0  0.94730  0.29290  0.47050  1.0000 -0.0357477762
C   C118      1.0  0.89490  0.36080  0.44030  1.0000 -0.2169554229
C   C119      1.0  0.81500  0.39200  0.47030  1.0000 -0.0328136715
C   C120      1.0  0.79010  0.35400  0.53360  1.0000 0.1502276422
C   C121      1.0  0.64140  0.10930  0.83260  1.0000 0.5884367977
C   C122      1.0  0.85420  0.33400  0.92940  1.0000 0.5418695812
C   C123      1.0  0.80590  0.24100  0.62690  1.0000 -0.0480257836
C   C124      1.0  0.71470  0.46110  0.60250  1.0000 0.1215657224
C   C125      1.0  0.76120  0.46600  0.43950  1.0000 0.0087273572
C   C126      1.0  0.76050  0.46710  0.35990  1.0000 -0.4256931241
C   C127      1.0  0.18730  0.74540  0.74670  1.0000 0.258999527
C   C128      1.0  0.25440  0.80800  0.75650  1.0000 -0.2330400343
C   C129      1.0  0.28580  0.82550  0.82190  1.0000 -0.0175204528
C   C130      1.0  0.25010  0.78040  0.87760  1.0000 -0.1575282751
C   C131      1.0  0.18300  0.71780  0.86780  1.0000 0.0208169693
C   C132      1.0  0.15160  0.70030  0.80240  1.0000 -0.2169554229
C   C133      1.0  0.16090  0.71510  0.56380  1.0000 -0.1333562354
C   C134      1.0  0.08190  0.74230  0.53190  1.0000 0.1426945631
C   C135      1.0  0.05270  0.70710  0.47050  1.0000 -0.0357477762
C   C136      1.0  0.10510  0.63920  0.44030  1.0000 -0.2169554229
C   C137      1.0  0.18500  0.60800  0.47030  1.0000 -0.0328136715
C   C138      1.0  0.20990  0.64600  0.53360  1.0000 0.1502276422
C   C139      1.0  0.35860  0.89070  0.83260  1.0000 0.5884367977
C   C140      1.0  0.14580  0.66600  0.92940  1.0000 0.5418695812
C   C141      1.0  0.19410  0.75900  0.62690  1.0000 -0.0480257836
C   C142      1.0  0.28530  0.53890  0.60250  1.0000 0.1215657224
C   C143      1.0  0.23880  0.53400  0.43950  1.0000 0.0087273572
C   C144      1.0  0.23950  0.53290  0.35990  1.0000 -0.4256931241
O   O1        1.0  0.35880  0.80030  0.02660  1.0000 -0.5110351885
O   O2        1.0  0.37090  0.92630  0.07600  1.0000 -0.4639575278
O   O3        1.0  0.09190  0.61820  0.10680  1.0000 -0.5999861132
O   O4        1.0  0.07640  0.60310  0.22110  1.0000 -0.5262329499
O   O5        1.0  0.18770  0.96350  0.43680  1.0000 -0.2330400343
O   O6        1.0  0.38010  0.71030  0.43640  1.0000 -0.2459728734
O   O7        1.0  0.28110  0.84570  0.31390  1.0000 -0.1918987217
O   O8        1.0  0.64120  0.19970  0.02660  1.0000 -0.5110351885
O   O9        1.0  0.62910  0.07370  0.07600  1.0000 -0.4658443923
O   O10       1.0  0.90810  0.38180  0.10680  1.0000 -0.5999861132
O   O11       1.0  0.92360  0.39690  0.22110  1.0000 -0.5262329499
O   O12       1.0  0.81230  0.03650  0.43680  1.0000 -0.2330400343
O   O13       1.0  0.61990  0.28970  0.43640  1.0000 -0.2459728734
O   O14       1.0  0.71890  0.15430  0.31390  1.0000 -0.1918987217
O   O15       1.0  0.69970  0.85880  0.02660  1.0000 -0.5110351885
O   O16       1.0  0.57370  0.87090  0.07600  1.0000 -0.4639575278
O   O17       1.0  0.88180  0.59190  0.10680  1.0000 -0.5999861132
O   O18       1.0  0.89690  0.57640  0.22110  1.0000 -0.5262329499
O   O19       1.0  0.53650  0.68770  0.43680  1.0000 -0.2330400343
O   O20       1.0  0.78970  0.88010  0.43640  1.0000 -0.2459728734
O   O21       1.0  0.65430  0.78110  0.31390  1.0000 -0.1918987217
O   O22       1.0  0.30030  0.14120  0.02660  1.0000 -0.5110351885
O   O23       1.0  0.42630  0.12910  0.07600  1.0000 -0.4639575278
O   O24       1.0  0.11820  0.40810  0.10680  1.0000 -0.5999861132
O   O25       1.0  0.10310  0.42360  0.22110  1.0000 -0.5262329499
O   O26       1.0  0.46350  0.31230  0.43680  1.0000 -0.2330400343
O   O27       1.0  0.21030  0.11990  0.43640  1.0000 -0.2459728734
O   O28       1.0  0.34570  0.21890  0.31390  1.0000 -0.1918987217
O   O29       1.0  0.14120  0.30030  0.97340  1.0000 -0.5110351885
O   O30       1.0  0.12910  0.42630  0.92400  1.0000 -0.4639575278
O   O31       1.0  0.40810  0.11820  0.89320  1.0000 -0.5999861132
O   O32       1.0  0.42360  0.10310  0.77890  1.0000 -0.5262329499
O   O33       1.0  0.31230  0.46350  0.56320  1.0000 -0.2330400343
O   O34       1.0  0.11990  0.21030  0.56360  1.0000 -0.2459728734
O   O35       1.0  0.21890  0.34570  0.68610  1.0000 -0.1918987217
O   O36       1.0  0.85880  0.69970  0.97340  1.0000 -0.5110351885
O   O37       1.0  0.87090  0.57370  0.92400  1.0000 -0.4639575278
O   O38       1.0  0.59190  0.88180  0.89320  1.0000 -0.5999861132
O   O39       1.0  0.57640  0.89690  0.77890  1.0000 -0.5262329499
O   O40       1.0  0.68770  0.53650  0.56320  1.0000 -0.2330400343
O   O41       1.0  0.88010  0.78970  0.56360  1.0000 -0.2459728734
O   O42       1.0  0.78110  0.65430  0.68610  1.0000 -0.1918987217
O   O43       1.0  0.80030  0.35880  0.97340  1.0000 -0.5110351885
O   O44       1.0  0.92630  0.37090  0.92400  1.0000 -0.4639575278
O   O45       1.0  0.61820  0.09190  0.89320  1.0000 -0.5999861132
O   O46       1.0  0.60310  0.07640  0.77890  1.0000 -0.5262329499
O   O47       1.0  0.96350  0.18770  0.56320  1.0000 -0.2330400343
O   O48       1.0  0.71030  0.38010  0.56360  1.0000 -0.2459728734
O   O49       1.0  0.84570  0.28110  0.68610  1.0000 -0.1918987217
O   O50       1.0  0.19970  0.64120  0.97340  1.0000 -0.5110351885
O   O51       1.0  0.07370  0.62910  0.92400  1.0000 -0.4658443923
O   O52       1.0  0.38180  0.90810  0.89320  1.0000 -0.5999861132
O   O53       1.0  0.39690  0.92360  0.77890  1.0000 -0.5262329499
O   O54       1.0  0.03650  0.81230  0.56320  1.0000 -0.2330400343
O   O55       1.0  0.28970  0.61990  0.56360  1.0000 -0.2449764754
O   O56       1.0  0.15430  0.71890  0.68610  1.0000 -0.1918987217
O   O57       1.0  0.00000  0.50000  0.01660  1.0000 -0.7300966973
O   O58       1.0  0.50000  0.00000  0.98340  1.0000 -0.7300966973
