# DDEC6 charges by PACMAN v1.1 (https://github.com/mtap-research/PACMAN-charge/)
data_2022[Co][mab]3[ASR]1
_chemical_formula_sum              "Co4 H88 C112 N16 O20"
_cell_length_a       9.357
_cell_length_b       12.087
_cell_length_c       27.8043
_cell_angle_alpha    90
_cell_angle_beta     107.532
_cell_angle_gamma    90

_symmetry_space_group_name_H-M    "P 1"
_symmetry_Int_Tables_number       1

loop_
  _symmetry_equiv_pos_as_xyz
  'x, y, z'

loop_
  _atom_site_type_symbol
  _atom_site_label
  _atom_site_symmetry_multiplicity
  _atom_site_fract_x
  _atom_site_fract_y
  _atom_site_fract_z
  _atom_site_occupancy
  _atom_site_charge
Co  Co1       1.0  0.85152  0.46073  0.54876  1.0000 0.8726203269
Co  Co2       1.0  0.14848  0.96073  0.95124  1.0000 0.8726203269
Co  Co3       1.0  0.14848  0.53927  0.45124  1.0000 0.8726203269
Co  Co4       1.0  0.85152  0.03927  0.04876  1.0000 0.8726203269
H   H1        1.0  0.14338  0.55020  0.65409  1.0000 0.1302433579
H   H2        1.0  0.29381  0.62169  0.73217  1.0000 0.1302433579
H   H3        1.0  0.61334  0.70911  0.66864  1.0000 0.1371017771
H   H4        1.0  0.46587  0.63500  0.59129  1.0000 0.1193887955
H   H5        1.0  0.33945  0.86067  0.72907  1.0000 0.1302433579
H   H6        1.0  0.22073  0.94420  0.78281  1.0000 0.1193887955
H   H7        1.0  0.51472  0.79417  0.90212  1.0000 0.1193887955
H   H8        1.0  0.62476  0.70265  0.84759  1.0000 0.1371017771
H   H9        1.0  0.07120  0.34416  0.51184  1.0000 0.1035217768
H   H10       1.0  0.19967  0.18374  0.51445  1.0000 0.1193887955
H   H11       1.0  0.98922  0.05864  0.60994  1.0000 0.1302433579
H   H12       1.0  0.86597  0.22711  0.60443  1.0000 0.1113697155
H   H13       1.0  0.20249  0.91130  0.62779  1.0000 0.1563331611
H   H14       1.0  0.06102  0.88128  0.58057  1.0000 0.1509610827
H   H15       1.0  0.22332  0.83409  0.58362  1.0000 0.1563331611
H   H16       1.0  0.62656  0.00786  0.61969  1.0000 0.1563331611
H   H17       1.0  0.69202  0.02955  0.57357  1.0000 0.1509610827
H   H18       1.0  0.53528  0.08309  0.57321  1.0000 0.1509610827
H   H19       1.0  0.79801  0.85363  0.60611  1.0000 0.1302433579
H   H20       1.0  0.91779  0.68657  0.60187  1.0000 0.1113697155
H   H21       1.0  0.57252  0.58458  0.48977  1.0000 0.1193887955
H   H22       1.0  0.44044  0.74444  0.49308  1.0000 0.1371017771
H   H23       1.0  0.85662  0.05020  0.84591  1.0000 0.1302433579
H   H24       1.0  0.70619  0.12169  0.76783  1.0000 0.1302433579
H   H25       1.0  0.38666  0.20911  0.83136  1.0000 0.1371017771
H   H26       1.0  0.53413  0.13500  0.90871  1.0000 0.1193887955
H   H27       1.0  0.66055  0.36067  0.77093  1.0000 0.1302433579
H   H28       1.0  0.77927  0.44420  0.71719  1.0000 0.1193887955
H   H29       1.0  0.48528  0.29417  0.59788  1.0000 0.1193887955
H   H30       1.0  0.37524  0.20265  0.65241  1.0000 0.1371017771
H   H31       1.0  0.92880  0.84416  0.98816  1.0000 0.1035217768
H   H32       1.0  0.80033  0.68374  0.98555  1.0000 0.1193887955
H   H33       1.0  0.01078  0.55864  0.89006  1.0000 0.1302433579
H   H34       1.0  0.13403  0.72711  0.89557  1.0000 0.1113697155
H   H35       1.0  0.79751  0.41130  0.87221  1.0000 0.1563331611
H   H36       1.0  0.93898  0.38128  0.91943  1.0000 0.1509610827
H   H37       1.0  0.77668  0.33409  0.91638  1.0000 0.1509610827
H   H38       1.0  0.37344  0.50786  0.88031  1.0000 0.1563331611
H   H39       1.0  0.30798  0.52955  0.92643  1.0000 0.1509610827
H   H40       1.0  0.46472  0.58309  0.92679  1.0000 0.1509610827
H   H41       1.0  0.20199  0.35363  0.89389  1.0000 0.1302433579
H   H42       1.0  0.08221  0.18657  0.89813  1.0000 0.1113697155
H   H43       1.0  0.42748  0.08458  0.01023  1.0000 0.1193887955
H   H44       1.0  0.55956  0.24444  0.00692  1.0000 0.1371017771
H   H45       1.0  0.85662  0.44980  0.34591  1.0000 0.1302433579
H   H46       1.0  0.70619  0.37831  0.26783  1.0000 0.1302433579
H   H47       1.0  0.38666  0.29089  0.33136  1.0000 0.1371017771
H   H48       1.0  0.53413  0.36500  0.40871  1.0000 0.1193887955
H   H49       1.0  0.66055  0.13933  0.27093  1.0000 0.1302433579
H   H50       1.0  0.77927  0.05580  0.21719  1.0000 0.1193887955
H   H51       1.0  0.48528  0.20583  0.09788  1.0000 0.1193887955
H   H52       1.0  0.37524  0.29735  0.15241  1.0000 0.1371017771
H   H53       1.0  0.92880  0.65584  0.48816  1.0000 0.1035217768
H   H54       1.0  0.80033  0.81626  0.48555  1.0000 0.1193887955
H   H55       1.0  0.01078  0.94136  0.39006  1.0000 0.1302433579
H   H56       1.0  0.13403  0.77289  0.39557  1.0000 0.1113697155
H   H57       1.0  0.79751  0.08870  0.37221  1.0000 0.1563331611
H   H58       1.0  0.93898  0.11872  0.41943  1.0000 0.1509610827
H   H59       1.0  0.77668  0.16591  0.41638  1.0000 0.1509610827
H   H60       1.0  0.37344  0.99214  0.38031  1.0000 0.1563331611
H   H61       1.0  0.30798  0.97045  0.42643  1.0000 0.1509610827
H   H62       1.0  0.46472  0.91691  0.42679  1.0000 0.1509610827
H   H63       1.0  0.20199  0.14637  0.39389  1.0000 0.1302433579
H   H64       1.0  0.08221  0.31343  0.39813  1.0000 0.1113697155
H   H65       1.0  0.42748  0.41542  0.51023  1.0000 0.1193887955
H   H66       1.0  0.55956  0.25556  0.50692  1.0000 0.1371017771
H   H67       1.0  0.14338  0.94980  0.15409  1.0000 0.1302433579
H   H68       1.0  0.29381  0.87831  0.23217  1.0000 0.1302433579
H   H69       1.0  0.61334  0.79089  0.16864  1.0000 0.1371017771
H   H70       1.0  0.46587  0.86500  0.09129  1.0000 0.1193887955
H   H71       1.0  0.33945  0.63933  0.22907  1.0000 0.1302433579
H   H72       1.0  0.22073  0.55580  0.28281  1.0000 0.1193887955
H   H73       1.0  0.51472  0.70583  0.40212  1.0000 0.1193887955
H   H74       1.0  0.62476  0.79735  0.34759  1.0000 0.1371017771
H   H75       1.0  0.07120  0.15584  0.01184  1.0000 0.1035217768
H   H76       1.0  0.19967  0.31626  0.01445  1.0000 0.1193887955
H   H77       1.0  0.98922  0.44136  0.10994  1.0000 0.1302433579
H   H78       1.0  0.86597  0.27289  0.10443  1.0000 0.1113697155
H   H79       1.0  0.20249  0.58870  0.12779  1.0000 0.1563331611
H   H80       1.0  0.06102  0.61872  0.08057  1.0000 0.1509610827
H   H81       1.0  0.22332  0.66591  0.08362  1.0000 0.1563331611
H   H82       1.0  0.62656  0.49214  0.11969  1.0000 0.1563331611
H   H83       1.0  0.69202  0.47045  0.07357  1.0000 0.1509610827
H   H84       1.0  0.53528  0.41691  0.07321  1.0000 0.1509610827
H   H85       1.0  0.79801  0.64637  0.10611  1.0000 0.1302433579
H   H86       1.0  0.91779  0.81343  0.10187  1.0000 0.1113697155
H   H87       1.0  0.57252  0.91542  0.98977  1.0000 0.1193887955
H   H88       1.0  0.44044  0.75556  0.99308  1.0000 0.1371017771
C   C1        1.0  0.18570  0.55800  0.56360  1.0000 0.5874654776
C   C2        1.0  0.29110  0.59150  0.61450  1.0000 -0.0486699143
C   C3        1.0  0.23770  0.58330  0.65690  1.0000 -0.0802968546
C   C4        1.0  0.32740  0.62500  0.70320  1.0000 -0.2238390767
C   C5        1.0  0.46310  0.67050  0.70630  1.0000 0.248210167
C   C6        1.0  0.51840  0.67690  0.66560  1.0000 -0.201196116
C   C7        1.0  0.42910  0.63420  0.61960  1.0000 -0.0802968546
C   C8        1.0  0.48680  0.76740  0.78350  1.0000 0.248210167
C   C9        1.0  0.37080  0.84380  0.76410  1.0000 -0.2078449321
C   C10       1.0  0.30200  0.89470  0.79590  1.0000 -0.0802968546
C   C11       1.0  0.35370  0.87220  0.84760  1.0000 -0.0330728586
C   C12       1.0  0.47540  0.80450  0.86670  1.0000 -0.0861900435
C   C13       1.0  0.54180  0.75060  0.83430  1.0000 -0.201196116
C   C14       1.0  0.27050  0.91590  0.88250  1.0000 0.5350985057
C   C15       1.0  0.05390  0.28560  0.53220  1.0000 0.0812949782
C   C16       1.0  0.13130  0.18990  0.53360  1.0000 -0.1707713776
C   C17       1.0  0.11200  0.10160  0.56240  1.0000 0.0577315031
C   C18       1.0  0.00850  0.11630  0.58950  1.0000 -0.1902632886
C   C19       1.0  0.93490  0.21780  0.58570  1.0000 0.0812949782
C   C20       1.0  0.19800  0.99830  0.56390  1.0000 0.2633712289
C   C21       1.0  0.16870  0.89740  0.59140  1.0000 -0.513933661
C   C22       1.0  0.52040  0.91820  0.55700  1.0000 0.2633712289
C   C23       1.0  0.60040  0.01820  0.58310  1.0000 -0.5177922123
C   C24       1.0  0.60450  0.81650  0.55130  1.0000 0.065272083
C   C25       1.0  0.74860  0.79860  0.58260  1.0000 -0.1902632886
C   C26       1.0  0.82060  0.69920  0.57930  1.0000 0.0812949782
C   C27       1.0  0.61790  0.63950  0.51400  1.0000 0.0858376748
C   C28       1.0  0.53850  0.73440  0.51570  1.0000 -0.1602006466
C   C29       1.0  0.81430  0.05800  0.93640  1.0000 0.5874654776
C   C30       1.0  0.70890  0.09150  0.88550  1.0000 -0.0486699143
C   C31       1.0  0.76230  0.08330  0.84310  1.0000 -0.0802968546
C   C32       1.0  0.67260  0.12500  0.79680  1.0000 -0.2238390767
C   C33       1.0  0.53690  0.17050  0.79370  1.0000 0.248210167
C   C34       1.0  0.48160  0.17690  0.83440  1.0000 -0.201196116
C   C35       1.0  0.57090  0.13420  0.88040  1.0000 -0.0802968546
C   C36       1.0  0.51320  0.26740  0.71650  1.0000 0.248210167
C   C37       1.0  0.62920  0.34380  0.73590  1.0000 -0.2078449321
C   C38       1.0  0.69800  0.39470  0.70410  1.0000 -0.0802968546
C   C39       1.0  0.64630  0.37220  0.65240  1.0000 -0.0330728586
C   C40       1.0  0.52460  0.30450  0.63330  1.0000 -0.0861900435
C   C41       1.0  0.45820  0.25060  0.66570  1.0000 -0.201196116
C   C42       1.0  0.72950  0.41590  0.61750  1.0000 0.5350985057
C   C43       1.0  0.94610  0.78560  0.96780  1.0000 0.0812949782
C   C44       1.0  0.86870  0.68990  0.96640  1.0000 -0.1707713776
C   C45       1.0  0.88800  0.60160  0.93760  1.0000 0.0577315031
C   C46       1.0  0.99150  0.61630  0.91050  1.0000 -0.1902632886
C   C47       1.0  0.06510  0.71780  0.91430  1.0000 0.0812949782
C   C48       1.0  0.80200  0.49830  0.93610  1.0000 0.2633712289
C   C49       1.0  0.83130  0.39740  0.90860  1.0000 -0.513933661
C   C50       1.0  0.47960  0.41820  0.94300  1.0000 0.2633712289
C   C51       1.0  0.39960  0.51820  0.91690  1.0000 -0.5177922123
C   C52       1.0  0.39550  0.31650  0.94870  1.0000 0.065272083
C   C53       1.0  0.25140  0.29860  0.91740  1.0000 -0.1902632886
C   C54       1.0  0.17940  0.19920  0.92070  1.0000 0.0812949782
C   C55       1.0  0.38210  0.13950  0.98600  1.0000 0.0858376748
C   C56       1.0  0.46150  0.23440  0.98430  1.0000 -0.1602006466
C   C57       1.0  0.81430  0.44200  0.43640  1.0000 0.5874654776
C   C58       1.0  0.70890  0.40850  0.38550  1.0000 -0.0486699143
C   C59       1.0  0.76230  0.41670  0.34310  1.0000 -0.0802968546
C   C60       1.0  0.67260  0.37500  0.29680  1.0000 -0.2238390767
C   C61       1.0  0.53690  0.32950  0.29370  1.0000 0.248210167
C   C62       1.0  0.48160  0.32310  0.33440  1.0000 -0.201196116
C   C63       1.0  0.57090  0.36580  0.38040  1.0000 -0.0802968546
C   C64       1.0  0.51320  0.23260  0.21650  1.0000 0.248210167
C   C65       1.0  0.62920  0.15620  0.23590  1.0000 -0.2078449321
C   C66       1.0  0.69800  0.10530  0.20410  1.0000 -0.0802968546
C   C67       1.0  0.64630  0.12780  0.15240  1.0000 -0.0330728586
C   C68       1.0  0.52460  0.19550  0.13330  1.0000 -0.0861900435
C   C69       1.0  0.45820  0.24940  0.16570  1.0000 -0.201196116
C   C70       1.0  0.72950  0.08410  0.11750  1.0000 0.5350985057
C   C71       1.0  0.94610  0.71440  0.46780  1.0000 0.0812949782
C   C72       1.0  0.86870  0.81010  0.46640  1.0000 -0.1707713776
C   C73       1.0  0.88800  0.89840  0.43760  1.0000 0.0577315031
C   C74       1.0  0.99150  0.88370  0.41050  1.0000 -0.1902632886
C   C75       1.0  0.06510  0.78220  0.41430  1.0000 0.0812949782
C   C76       1.0  0.80200  0.00170  0.43610  1.0000 0.2633712289
C   C77       1.0  0.83130  0.10260  0.40860  1.0000 -0.513933661
C   C78       1.0  0.47960  0.08180  0.44300  1.0000 0.2650361783
C   C79       1.0  0.39960  0.98180  0.41690  1.0000 -0.5177922123
C   C80       1.0  0.39550  0.18350  0.44870  1.0000 0.065272083
C   C81       1.0  0.25140  0.20140  0.41740  1.0000 -0.1902632886
C   C82       1.0  0.17940  0.30080  0.42070  1.0000 0.0812949782
C   C83       1.0  0.38210  0.36050  0.48600  1.0000 0.0858376748
C   C84       1.0  0.46150  0.26560  0.48430  1.0000 -0.1602006466
C   C85       1.0  0.18570  0.94200  0.06360  1.0000 0.5874654776
C   C86       1.0  0.29110  0.90850  0.11450  1.0000 -0.0486699143
C   C87       1.0  0.23770  0.91670  0.15690  1.0000 -0.0802968546
C   C88       1.0  0.32740  0.87500  0.20320  1.0000 -0.2238390767
C   C89       1.0  0.46310  0.82950  0.20630  1.0000 0.248210167
C   C90       1.0  0.51840  0.82310  0.16560  1.0000 -0.201196116
C   C91       1.0  0.42910  0.86580  0.11960  1.0000 -0.0802968546
C   C92       1.0  0.48680  0.73260  0.28350  1.0000 0.248210167
C   C93       1.0  0.37080  0.65620  0.26410  1.0000 -0.2078449321
C   C94       1.0  0.30200  0.60530  0.29590  1.0000 -0.0802968546
C   C95       1.0  0.35370  0.62780  0.34760  1.0000 -0.0330728586
C   C96       1.0  0.47540  0.69550  0.36670  1.0000 -0.0861900435
C   C97       1.0  0.54180  0.74940  0.33430  1.0000 -0.201196116
C   C98       1.0  0.27050  0.58410  0.38250  1.0000 0.5350985057
C   C99       1.0  0.05390  0.21440  0.03220  1.0000 0.0812949782
C   C100      1.0  0.13130  0.31010  0.03360  1.0000 -0.1707713776
C   C101      1.0  0.11200  0.39840  0.06240  1.0000 0.0577315031
C   C102      1.0  0.00850  0.38370  0.08950  1.0000 -0.1902632886
C   C103      1.0  0.93490  0.28220  0.08570  1.0000 0.0812949782
C   C104      1.0  0.19800  0.50170  0.06390  1.0000 0.2633712289
C   C105      1.0  0.16870  0.60260  0.09140  1.0000 -0.513933661
C   C106      1.0  0.52040  0.58180  0.05700  1.0000 0.2633712289
C   C107      1.0  0.60040  0.48180  0.08310  1.0000 -0.5177922123
C   C108      1.0  0.60450  0.68350  0.05130  1.0000 0.065272083
C   C109      1.0  0.74860  0.70140  0.08260  1.0000 -0.1902632886
C   C110      1.0  0.82060  0.80080  0.07930  1.0000 0.0812949782
C   C111      1.0  0.61790  0.86050  0.01400  1.0000 0.0858376748
C   C112      1.0  0.53850  0.76560  0.01570  1.0000 -0.1602006466
N   N1        1.0  0.95430  0.30280  0.55750  1.0000 -0.2398183928
N   N2        1.0  0.29520  0.00300  0.54060  1.0000 -0.2307362319
N   N3        1.0  0.37820  0.90980  0.53870  1.0000 -0.2078449321
N   N4        1.0  0.75740  0.62050  0.54520  1.0000 -0.2638689154
N   N5        1.0  0.04570  0.80280  0.94250  1.0000 -0.2398183928
N   N6        1.0  0.70480  0.50300  0.95940  1.0000 -0.2307362319
N   N7        1.0  0.62180  0.40980  0.96130  1.0000 -0.2078449321
N   N8        1.0  0.24260  0.12050  0.95480  1.0000 -0.2638689154
N   N9        1.0  0.04570  0.69720  0.44250  1.0000 -0.2398183928
N   N10       1.0  0.70480  0.99700  0.45940  1.0000 -0.2307362319
N   N11       1.0  0.62180  0.09020  0.46130  1.0000 -0.2078449321
N   N12       1.0  0.24260  0.37950  0.45480  1.0000 -0.2638689154
N   N13       1.0  0.95430  0.19720  0.05750  1.0000 -0.2398183928
N   N14       1.0  0.29520  0.49700  0.04060  1.0000 -0.2307362319
N   N15       1.0  0.37820  0.59020  0.03870  1.0000 -0.2078449321
N   N16       1.0  0.75740  0.87950  0.04520  1.0000 -0.2638689154
O   O1        1.0  0.05600  0.52830  0.56120  1.0000 -0.5727175945
O   O2        1.0  0.23960  0.55800  0.52710  1.0000 -0.5449436181
O   O3        1.0  0.55580  0.71410  0.75180  1.0000 -0.2307362319
O   O4        1.0  0.32650  0.89900  0.92940  1.0000 -0.5498117604
O   O5        1.0  0.14680  0.96550  0.86550  1.0000 -0.5498117604
O   O6        1.0  0.94400  0.02830  0.93880  1.0000 -0.5727175945
O   O7        1.0  0.76040  0.05800  0.97290  1.0000 -0.5449436181
O   O8        1.0  0.44420  0.21410  0.74820  1.0000 -0.2307362319
O   O9        1.0  0.67350  0.39900  0.57060  1.0000 -0.5498117604
O   O10       1.0  0.85320  0.46550  0.63450  1.0000 -0.5498117604
O   O11       1.0  0.94400  0.47170  0.43880  1.0000 -0.5727175945
O   O12       1.0  0.76040  0.44200  0.47290  1.0000 -0.5449436181
O   O13       1.0  0.44420  0.28590  0.24820  1.0000 -0.2307362319
O   O14       1.0  0.67350  0.10100  0.07060  1.0000 -0.5498117604
O   O15       1.0  0.85320  0.03450  0.13450  1.0000 -0.5498117604
O   O16       1.0  0.05600  0.97170  0.06120  1.0000 -0.5727175945
O   O17       1.0  0.23960  0.94200  0.02710  1.0000 -0.5449436181
O   O18       1.0  0.55580  0.78590  0.25180  1.0000 -0.2307362319
O   O19       1.0  0.32650  0.60100  0.42940  1.0000 -0.5498117604
O   O20       1.0  0.14680  0.53450  0.36550  1.0000 -0.5498117604
