# DDEC6 charges by PACMAN v1.1 (https://github.com/mtap-research/PACMAN-charge/)
data_2022[Mn][pcu]3[ASR]1
_chemical_formula_sum              "Mn8 H36 C96 O28 F36"
_cell_length_a       15.8096
_cell_length_b       16.8634
_cell_length_c       17.8442
_cell_angle_alpha    107.32
_cell_angle_beta     99.313
_cell_angle_gamma    115.055

_symmetry_space_group_name_H-M    "P 1"
_symmetry_Int_Tables_number       1

loop_
  _symmetry_equiv_pos_as_xyz
  'x, y, z'

loop_
  _atom_site_type_symbol
  _atom_site_label
  _atom_site_symmetry_multiplicity
  _atom_site_fract_x
  _atom_site_fract_y
  _atom_site_fract_z
  _atom_site_occupancy
  _atom_site_charge
Mn  Mn1       1.0  0.57639  0.10588  0.58013  1.0000 1.153080013
Mn  Mn2       1.0  0.46163  0.11480  0.38353  1.0000 1.0924666193
Mn  Mn3       1.0  0.48121  0.27288  0.57174  1.0000 1.0713187721
Mn  Mn4       1.0  0.75261  0.08896  0.73335  1.0000 1.0462249782
Mn  Mn5       1.0  0.42361  0.89412  0.41987  1.0000 1.153080013
Mn  Mn6       1.0  0.53837  0.88520  0.61647  1.0000 1.0924666193
Mn  Mn7       1.0  0.51879  0.72712  0.42826  1.0000 1.0713187721
Mn  Mn8       1.0  0.24739  0.91104  0.26665  1.0000 1.0462249782
H   H1        1.0  0.72215  0.99447  0.48880  1.0000 0.1291492634
H   H2        1.0  0.72617  0.11419  0.32480  1.0000 0.1291492634
H   H3        1.0  0.86851  0.99836  0.47966  1.0000 0.1201274347
H   H4        1.0  0.39751  0.24791  0.80089  1.0000 0.1201274347
H   H5        1.0  0.53081  0.09094  0.76751  1.0000 0.1291492634
H   H6        1.0  0.49301  0.04886  0.87305  1.0000 0.1201274347
H   H7        1.0  0.10501  0.96725  0.31827  1.0000 0.1081445333
H   H8        1.0  0.00102  0.73235  0.31643  1.0000 0.1201274347
H   H9        1.0  0.68785  0.29829  0.36183  1.0000 0.1291492634
H   H10       1.0  0.05751  0.19785  0.49130  1.0000 0.1201274347
H   H11       1.0  0.52435  0.17462  0.17916  1.0000 0.1291492634
H   H12       1.0  0.18432  0.69109  0.46203  1.0000 0.1201274347
H   H13       1.0  0.25871  0.95635  0.03398  1.0000 0.1291492634
H   H14       1.0  0.21718  0.22704  0.49859  1.0000 0.1291492634
H   H15       1.0  0.05048  0.58087  0.48278  1.0000 0.1201274347
H   H16       1.0  0.28182  0.99379  0.92114  1.0000 0.1201274347
H   H17       1.0  0.87324  0.61978  0.53194  1.0000 0.1291492634
H   H18       1.0  0.75209  0.51787  0.56775  1.0000 0.1291492634
H   H19       1.0  0.27785  0.00553  0.51120  1.0000 0.1291492634
H   H20       1.0  0.27383  0.88581  0.67520  1.0000 0.1291492634
H   H21       1.0  0.13149  0.00164  0.52034  1.0000 0.1201274347
H   H22       1.0  0.60249  0.75209  0.19911  1.0000 0.1291492634
H   H23       1.0  0.46919  0.90906  0.23249  1.0000 0.1291492634
H   H24       1.0  0.50699  0.95114  0.12695  1.0000 0.1201274347
H   H25       1.0  0.89499  0.03275  0.68173  1.0000 0.1081445333
H   H26       1.0  0.99898  0.26765  0.68357  1.0000 0.1201274347
H   H27       1.0  0.31215  0.70171  0.63817  1.0000 0.1291492634
H   H28       1.0  0.94249  0.80215  0.50870  1.0000 0.1201274347
H   H29       1.0  0.47565  0.82538  0.82084  1.0000 0.1291492634
H   H30       1.0  0.81568  0.30891  0.53797  1.0000 0.1201274347
H   H31       1.0  0.74129  0.04365  0.96602  1.0000 0.1291492634
H   H32       1.0  0.78282  0.77296  0.50141  1.0000 0.1291492634
H   H33       1.0  0.94952  0.41913  0.51722  1.0000 0.1201274347
H   H34       1.0  0.71818  0.00621  0.07886  1.0000 0.1201274347
H   H35       1.0  0.12676  0.38022  0.46806  1.0000 0.1291492634
H   H36       1.0  0.24791  0.48213  0.43225  1.0000 0.1291492634
C   C1        1.0  0.71050  0.05530  0.40850  1.0000 -0.0045398337
C   C2        1.0  0.75240  0.01960  0.45430  1.0000 -0.083065987
C   C3        1.0  0.61940  0.06020  0.41770  1.0000 0.5812808242
C   C4        1.0  0.50000  0.20510  0.70630  1.0000 0.5812808242
C   C5        1.0  0.28050  0.12170  0.41410  1.0000 0.6056301858
C   C6        1.0  0.47220  0.17630  0.77480  1.0000 -0.008294573
C   C7        1.0  0.75460  0.09080  0.35590  1.0000 -0.1015045242
C   C8        1.0  0.88490  0.05740  0.39620  1.0000 0.0442185443
C   C9        1.0  0.98480  0.06580  0.39850  1.0000 0.0507734832
C   C10       1.0  0.83990  0.02140  0.44830  1.0000 -0.1183971157
C   C11       1.0  0.17610  0.10050  0.40840  1.0000 -0.0204753453
C   C12       1.0  0.43250  0.13330  0.90970  1.0000 0.0587768323
C   C13       1.0  0.84150  0.09130  0.34950  1.0000 -0.1595998127
C   C14       1.0  0.40070  0.18960  0.88460  1.0000 -0.138709649
C   C15       1.0  0.37430  0.04100  0.19290  1.0000 0.5904378977
C   C16       1.0  0.41970  0.21080  0.81740  1.0000 -0.1076959963
C   C17       1.0  0.19310  0.79390  0.37270  1.0000 0.5904378977
C   C18       1.0  0.38840  0.06170  0.11710  1.0000 -0.008294573
C   C19       1.0  0.49820  0.11610  0.79710  1.0000 -0.083065987
C   C20       1.0  0.61050  0.33630  0.47870  1.0000 0.5977854994
C   C21       1.0  0.47750  0.09220  0.86130  1.0000 -0.1183971157
C   C22       1.0  0.09540  0.01360  0.35330  1.0000 -0.1015045242
C   C23       1.0  0.10680  0.72370  0.38780  1.0000 -0.008294573
C   C24       1.0  0.93140  0.63490  0.36200  1.0000 -0.138709649
C   C25       1.0  0.01160  0.70220  0.34990  1.0000 -0.1076959963
C   C26       1.0  0.99830  0.99410  0.34920  1.0000 -0.1691046428
C   C27       1.0  0.41890  0.11050  0.98340  1.0000 0.0587768323
C   C28       1.0  0.72570  0.36330  0.39680  1.0000 -0.0880321391
C   C29       1.0  0.94450  0.59030  0.41150  1.0000 0.0507734832
C   C30       1.0  0.06640  0.15140  0.45560  1.0000 -0.1273797874
C   C31       1.0  0.80580  0.42280  0.37960  1.0000 -0.197937405
C   C32       1.0  0.47530  0.13830  0.12710  1.0000 -0.1015045242
C   C33       1.0  0.86110  0.52180  0.43050  1.0000 0.0587768323
C   C34       1.0  0.49190  0.16300  0.06010  1.0000 -0.1273797874
C   C35       1.0  0.12070  0.67770  0.43690  1.0000 -0.083065987
C   C36       1.0  0.70180  0.39950  0.46510  1.0000 -0.0204753453
C   C37       1.0  0.31770  0.00890  0.04110  1.0000 -0.083065987
C   C38       1.0  0.16270  0.16900  0.46030  1.0000 -0.0880321391
C   C39       1.0  0.04020  0.61120  0.44930  1.0000 -0.1273797874
C   C40       1.0  0.82910  0.61290  0.31670  1.0000 0.6204492416
C   C41       1.0  0.35080  0.23410  0.93200  1.0000 0.6204492416
C   C42       1.0  0.59470  0.24520  0.07650  1.0000 0.5904378977
C   C43       1.0  0.33110  0.03140  0.97300  1.0000 -0.1076959963
C   C44       1.0  0.83760  0.55450  0.49780  1.0000 -0.1183971157
C   C45       1.0  0.76190  0.49390  0.51780  1.0000 -0.083065987
C   C46       1.0  0.88240  0.12500  0.28780  1.0000 0.5904378977
C   C47       1.0  0.83680  0.37920  0.31720  1.0000 0.6204492416
C   C48       1.0  0.91490  0.89850  0.29220  1.0000 0.5904378977
C   C49       1.0  0.28950  0.94470  0.59150  1.0000 -0.0045398337
C   C50       1.0  0.24760  0.98040  0.54570  1.0000 -0.083065987
C   C51       1.0  0.38060  0.93980  0.58230  1.0000 0.5812808242
C   C52       1.0  0.50000  0.79490  0.29370  1.0000 0.5812808242
C   C53       1.0  0.71950  0.87830  0.58590  1.0000 0.6056301858
C   C54       1.0  0.52780  0.82370  0.22520  1.0000 -0.008294573
C   C55       1.0  0.24540  0.90920  0.64410  1.0000 -0.1015045242
C   C56       1.0  0.11510  0.94260  0.60380  1.0000 0.0442185443
C   C57       1.0  0.01520  0.93420  0.60150  1.0000 0.0507734832
C   C58       1.0  0.16010  0.97860  0.55170  1.0000 -0.1183971157
C   C59       1.0  0.82390  0.89950  0.59160  1.0000 -0.0204753453
C   C60       1.0  0.56750  0.86670  0.09030  1.0000 0.0587768323
C   C61       1.0  0.15850  0.90870  0.65050  1.0000 -0.1595998127
C   C62       1.0  0.59930  0.81040  0.11540  1.0000 -0.138709649
C   C63       1.0  0.62570  0.95900  0.80710  1.0000 0.5904378977
C   C64       1.0  0.58030  0.78920  0.18260  1.0000 -0.1076959963
C   C65       1.0  0.80690  0.20610  0.62730  1.0000 0.5904378977
C   C66       1.0  0.61160  0.93830  0.88290  1.0000 -0.008294573
C   C67       1.0  0.50180  0.88390  0.20290  1.0000 -0.083065987
C   C68       1.0  0.38950  0.66370  0.52130  1.0000 0.5977854994
C   C69       1.0  0.52250  0.90780  0.13870  1.0000 -0.1183971157
C   C70       1.0  0.90460  0.98640  0.64670  1.0000 -0.1015045242
C   C71       1.0  0.89320  0.27630  0.61220  1.0000 -0.008294573
C   C72       1.0  0.06860  0.36510  0.63800  1.0000 -0.138709649
C   C73       1.0  0.98840  0.29780  0.65010  1.0000 -0.1076959963
C   C74       1.0  0.00170  0.00590  0.65080  1.0000 -0.1691046428
C   C75       1.0  0.58110  0.88950  0.01660  1.0000 0.0587768323
C   C76       1.0  0.27430  0.63670  0.60320  1.0000 -0.0880321391
C   C77       1.0  0.05550  0.40970  0.58850  1.0000 0.0507734832
C   C78       1.0  0.93360  0.84860  0.54440  1.0000 -0.1273797874
C   C79       1.0  0.19420  0.57720  0.62040  1.0000 -0.197937405
C   C80       1.0  0.52470  0.86170  0.87290  1.0000 -0.1015045242
C   C81       1.0  0.13890  0.47820  0.56950  1.0000 0.0587768323
C   C82       1.0  0.50810  0.83700  0.93990  1.0000 -0.1273797874
C   C83       1.0  0.87930  0.32230  0.56310  1.0000 -0.083065987
C   C84       1.0  0.29820  0.60050  0.53490  1.0000 -0.0204753453
C   C85       1.0  0.68230  0.99110  0.95890  1.0000 -0.083065987
C   C86       1.0  0.83730  0.83100  0.53970  1.0000 -0.0880321391
C   C87       1.0  0.95980  0.38880  0.55070  1.0000 -0.1183971157
C   C88       1.0  0.17090  0.38710  0.68330  1.0000 0.6204492416
C   C89       1.0  0.64920  0.76590  0.06800  1.0000 0.6204492416
C   C90       1.0  0.40530  0.75480  0.92350  1.0000 0.5904378977
C   C91       1.0  0.66890  0.96860  0.02700  1.0000 -0.1076959963
C   C92       1.0  0.16240  0.44550  0.50220  1.0000 -0.1183971157
C   C93       1.0  0.23810  0.50610  0.48220  1.0000 -0.083065987
C   C94       1.0  0.11760  0.87500  0.71220  1.0000 0.5904378977
C   C95       1.0  0.16320  0.62080  0.68280  1.0000 0.6204492416
C   C96       1.0  0.08510  0.10150  0.70780  1.0000 0.5904378977
O   O1        1.0  0.61240  0.03740  0.65075  1.0000 -0.8122308287
O   O2        1.0  0.50090  0.15490  0.51461  1.0000 -0.7701009247
O   O3        1.0  0.57570  0.01860  0.46050  1.0000 -0.5429813399
O   O4        1.0  0.57200  0.19720  0.69030  1.0000 -0.529259767
O   O5        1.0  0.59510  0.10580  0.38530  1.0000 -0.4724053774
O   O6        1.0  0.29710  0.06730  0.36370  1.0000 -0.5102798674
O   O7        1.0  0.27440  0.79810  0.39820  1.0000 -0.529259767
O   O8        1.0  0.45520  0.23700  0.67260  1.0000 -0.529259767
O   O9        1.0  0.54430  0.26380  0.41500  1.0000 -0.529259767
O   O10       1.0  0.17660  0.84310  0.33820  1.0000 -0.5528934418
O   O11       1.0  0.34770  0.20030  0.47480  1.0000 -0.5528934418
O   O12       1.0  0.43800  0.09760  0.25920  1.0000 -0.4764779988
O   O13       1.0  0.29660  0.96660  0.18000  1.0000 -0.5528934418
O   O14       1.0  0.60760  0.36040  0.55260  1.0000 -0.5528934418
O   O15       1.0  0.38760  0.96260  0.34925  1.0000 -0.8122308287
O   O16       1.0  0.49910  0.84510  0.48539  1.0000 -0.7701009247
O   O17       1.0  0.42430  0.98140  0.53950  1.0000 -0.5429813399
O   O18       1.0  0.42800  0.80280  0.30970  1.0000 -0.529259767
O   O19       1.0  0.40490  0.89420  0.61470  1.0000 -0.4724053774
O   O20       1.0  0.70290  0.93270  0.63630  1.0000 -0.5102798674
O   O21       1.0  0.72560  0.20190  0.60180  1.0000 -0.529259767
O   O22       1.0  0.54480  0.76300  0.32740  1.0000 -0.529259767
O   O23       1.0  0.45570  0.73620  0.58500  1.0000 -0.529259767
O   O24       1.0  0.82340  0.15690  0.66180  1.0000 -0.5528934418
O   O25       1.0  0.65230  0.79970  0.52520  1.0000 -0.5528934418
O   O26       1.0  0.56200  0.90240  0.74080  1.0000 -0.4764779988
O   O27       1.0  0.70340  0.03340  0.82000  1.0000 -0.5429813399
O   O28       1.0  0.39240  0.63960  0.44740  1.0000 -0.5528934418
F   F1        1.0  0.83090  0.14710  0.24530  1.0000 -0.1818568399
F   F2        1.0  0.32390  0.28220  0.89950  1.0000 -0.2096421081
F   F3        1.0  0.93450  0.83770  0.25620  1.0000 -0.1691046428
F   F4        1.0  0.76350  0.52360  0.27590  1.0000 -0.1818568399
F   F5        1.0  0.83480  0.89150  0.26220  1.0000 -0.1595998127
F   F6        1.0  0.26350  0.16270  0.92960  1.0000 -0.2096421081
F   F7        1.0  0.92790  0.09360  0.25580  1.0000 -0.1595998127
F   F8        1.0  0.59280  0.29420  0.03500  1.0000 -0.1818568399
F   F9        1.0  0.40160  0.28430  0.01160  1.0000 -0.2206274043
F   F10       1.0  0.82700  0.64780  0.25990  1.0000 -0.197937405
F   F11       1.0  0.85300  0.41810  0.26320  1.0000 -0.1818568399
F   F12       1.0  0.64070  0.29490  0.15230  1.0000 -0.1902568267
F   F13       1.0  0.96750  0.21630  0.33070  1.0000 -0.1595998127
F   F14       1.0  0.77430  0.28690  0.27140  1.0000 -0.197937405
F   F15       1.0  0.92930  0.38740  0.34900  1.0000 -0.2206274043
F   F16       1.0  0.64870  0.20900  0.04830  1.0000 -0.1902568267
F   F17       1.0  0.78920  0.64270  0.36960  1.0000 -0.1902568267
F   F18       1.0  0.87110  0.85610  0.34670  1.0000 -0.1595998127
F   F19       1.0  0.16910  0.85290  0.75470  1.0000 -0.1818568399
F   F20       1.0  0.67610  0.71780  0.10050  1.0000 -0.2096421081
F   F21       1.0  0.06550  0.16230  0.74380  1.0000 -0.1691046428
F   F22       1.0  0.23650  0.47640  0.72410  1.0000 -0.1818568399
F   F23       1.0  0.16520  0.10850  0.73780  1.0000 -0.1595998127
F   F24       1.0  0.73650  0.83730  0.07040  1.0000 -0.2096421081
F   F25       1.0  0.07210  0.90640  0.74420  1.0000 -0.1595998127
F   F26       1.0  0.40720  0.70580  0.96500  1.0000 -0.1902568267
F   F27       1.0  0.59840  0.71570  0.98840  1.0000 -0.2206274043
F   F28       1.0  0.17300  0.35220  0.74010  1.0000 -0.197937405
F   F29       1.0  0.14700  0.58190  0.73680  1.0000 -0.1818568399
F   F30       1.0  0.35930  0.70510  0.84770  1.0000 -0.1902568267
F   F31       1.0  0.03250  0.78370  0.66930  1.0000 -0.1595998127
F   F32       1.0  0.22570  0.71310  0.72860  1.0000 -0.197937405
F   F33       1.0  0.07070  0.61260  0.65100  1.0000 -0.2206274043
F   F34       1.0  0.35130  0.79100  0.95170  1.0000 -0.1902568267
F   F35       1.0  0.21080  0.35730  0.63040  1.0000 -0.1902568267
F   F36       1.0  0.12890  0.14390  0.65330  1.0000 -0.1595998127
