# DDEC6 charges by PACMAN v1.1 (https://github.com/mtap-research/PACMAN-charge/)
data_2022[Cd][nan]3[ASR]5
_chemical_formula_sum              "Cd6 H72 C108 N8 O24"
_cell_length_a       14.3906
_cell_length_b       14.3906
_cell_length_c       20.055
_cell_angle_alpha    82.601
_cell_angle_beta     97.399
_cell_angle_gamma    53.9403

_symmetry_space_group_name_H-M    "P 1"
_symmetry_Int_Tables_number       1

loop_
  _symmetry_equiv_pos_as_xyz
  'x, y, z'

loop_
  _atom_site_type_symbol
  _atom_site_label
  _atom_site_symmetry_multiplicity
  _atom_site_fract_x
  _atom_site_fract_y
  _atom_site_fract_z
  _atom_site_occupancy
  _atom_site_charge
Cd  Cd1       1.0  0.05109  0.72285  0.42616  1.0000 0.8941564308
Cd  Cd2       1.0  0.72285  0.05109  0.07384  1.0000 0.8941564308
Cd  Cd3       1.0  0.84820  0.84820  0.25000  1.0000 0.9938542591
Cd  Cd4       1.0  0.94891  0.27715  0.57384  1.0000 0.8941564308
Cd  Cd5       1.0  0.27715  0.94891  0.92616  1.0000 0.8941564308
Cd  Cd6       1.0  0.15180  0.15180  0.75000  1.0000 0.9951172815
H   H1        1.0  0.42921  0.15413  0.31408  1.0000 0.1220650911
H   H2        1.0  0.10167  0.02025  0.47537  1.0000 0.1382160084
H   H3        1.0  0.23285  0.44787  0.38722  1.0000 0.1295028306
H   H4        1.0  0.35684  0.24514  0.41486  1.0000 0.1220650911
H   H5        1.0  0.62615  0.04911  0.32236  1.0000 0.1220650911
H   H6        1.0  0.97133  0.45291  0.28700  1.0000 0.1220650911
H   H7        1.0  0.09772  0.24804  0.31557  1.0000 0.1295028306
H   H8        1.0  0.17510  0.12446  0.45726  1.0000 0.1295028306
H   H9        1.0  0.49659  0.89443  0.46385  1.0000 0.1220650911
H   H10       1.0  0.69582  0.78836  0.46924  1.0000 0.1093410323
H   H11       1.0  0.06940  0.51092  0.52427  1.0000 0.1093410323
H   H12       1.0  0.17840  0.37694  0.63263  1.0000 0.1295028306
H   H13       1.0  0.38525  0.47897  0.65018  1.0000 0.1295028306
H   H14       1.0  0.27625  0.61295  0.54183  1.0000 0.1093410323
H   H15       1.0  0.34071  0.94017  0.32582  1.0000 0.1295028306
H   H16       1.0  0.26937  0.83559  0.34609  1.0000 0.1220650911
H   H17       1.0  0.36102  0.25478  0.71601  1.0000 0.1295028306
H   H18       1.0  0.44618  0.28884  0.72708  1.0000 0.1093410323
H   H19       1.0  0.15413  0.42921  0.18592  1.0000 0.1220650911
H   H20       1.0  0.02025  0.10167  0.02463  1.0000 0.1382160084
H   H21       1.0  0.44787  0.23285  0.11278  1.0000 0.1295028306
H   H22       1.0  0.24514  0.35684  0.08514  1.0000 0.1220650911
H   H23       1.0  0.04911  0.62615  0.17764  1.0000 0.1220650911
H   H24       1.0  0.45291  0.97133  0.21300  1.0000 0.1220650911
H   H25       1.0  0.24804  0.09772  0.18443  1.0000 0.1295028306
H   H26       1.0  0.12446  0.17510  0.04274  1.0000 0.1295028306
H   H27       1.0  0.89443  0.49659  0.03615  1.0000 0.1220650911
H   H28       1.0  0.78836  0.69582  0.03076  1.0000 0.1093410323
H   H29       1.0  0.51092  0.06940  0.97573  1.0000 0.1093410323
H   H30       1.0  0.37694  0.17840  0.86737  1.0000 0.1295028306
H   H31       1.0  0.47897  0.38525  0.84982  1.0000 0.1295028306
H   H32       1.0  0.61295  0.27625  0.95817  1.0000 0.1093410323
H   H33       1.0  0.94017  0.34071  0.17418  1.0000 0.1295028306
H   H34       1.0  0.83559  0.26937  0.15391  1.0000 0.1220650911
H   H35       1.0  0.25478  0.36102  0.78399  1.0000 0.1295028306
H   H36       1.0  0.28884  0.44618  0.77292  1.0000 0.1093410323
H   H37       1.0  0.57079  0.84587  0.68592  1.0000 0.1220650911
H   H38       1.0  0.89833  0.97975  0.52463  1.0000 0.1382160084
H   H39       1.0  0.76715  0.55213  0.61278  1.0000 0.1295028306
H   H40       1.0  0.64316  0.75486  0.58514  1.0000 0.1220650911
H   H41       1.0  0.37385  0.95089  0.67764  1.0000 0.1220650911
H   H42       1.0  0.02867  0.54709  0.71300  1.0000 0.1220650911
H   H43       1.0  0.90228  0.75196  0.68443  1.0000 0.1295028306
H   H44       1.0  0.82490  0.87554  0.54274  1.0000 0.1295028306
H   H45       1.0  0.50341  0.10557  0.53615  1.0000 0.1220650911
H   H46       1.0  0.30418  0.21164  0.53076  1.0000 0.1093410323
H   H47       1.0  0.93060  0.48908  0.47573  1.0000 0.1093410323
H   H48       1.0  0.82160  0.62306  0.36737  1.0000 0.1295028306
H   H49       1.0  0.61475  0.52103  0.34982  1.0000 0.1295028306
H   H50       1.0  0.72375  0.38705  0.45817  1.0000 0.1093410323
H   H51       1.0  0.65929  0.05983  0.67418  1.0000 0.1295028306
H   H52       1.0  0.73063  0.16441  0.65391  1.0000 0.1220650911
H   H53       1.0  0.63898  0.74522  0.28399  1.0000 0.1295028306
H   H54       1.0  0.55382  0.71116  0.27292  1.0000 0.1093410323
H   H55       1.0  0.84587  0.57079  0.81408  1.0000 0.1220650911
H   H56       1.0  0.97975  0.89833  0.97537  1.0000 0.1382160084
H   H57       1.0  0.55213  0.76715  0.88722  1.0000 0.1295028306
H   H58       1.0  0.75486  0.64316  0.91486  1.0000 0.1220650911
H   H59       1.0  0.95089  0.37385  0.82236  1.0000 0.1220650911
H   H60       1.0  0.54709  0.02867  0.78700  1.0000 0.1220650911
H   H61       1.0  0.75196  0.90228  0.81557  1.0000 0.1295028306
H   H62       1.0  0.87554  0.82490  0.95726  1.0000 0.1295028306
H   H63       1.0  0.10557  0.50341  0.96385  1.0000 0.1220650911
H   H64       1.0  0.21164  0.30418  0.96924  1.0000 0.1093410323
H   H65       1.0  0.48908  0.93060  0.02427  1.0000 0.1093410323
H   H66       1.0  0.62306  0.82160  0.13263  1.0000 0.1295028306
H   H67       1.0  0.52103  0.61475  0.15018  1.0000 0.1295028306
H   H68       1.0  0.38705  0.72375  0.04183  1.0000 0.1093410323
H   H69       1.0  0.05983  0.65929  0.82582  1.0000 0.1295028306
H   H70       1.0  0.16441  0.73063  0.84609  1.0000 0.1220650911
H   H71       1.0  0.74522  0.63898  0.21601  1.0000 0.1295028306
H   H72       1.0  0.71116  0.55382  0.22708  1.0000 0.1093410323
C   C1        1.0  0.08820  0.47320  0.33430  1.0000 -0.0313353902
C   C2        1.0  0.68200  0.90820  0.39720  1.0000 -0.0460688761
C   C3        1.0  0.48240  0.08020  0.34590  1.0000 -0.1804783807
C   C4        1.0  0.43980  0.03620  0.38720  1.0000 0.1878394679
C   C5        1.0  0.81050  0.83950  0.40270  1.0000 0.5491602466
C   C6        1.0  0.23930  0.22830  0.36690  1.0000 0.1654525147
C   C7        1.0  0.15040  0.00320  0.44510  1.0000 -0.0784975607
C   C8        1.0  0.20470  0.40810  0.37240  1.0000 -0.0975303238
C   C9        1.0  0.00760  0.60640  0.31260  1.0000 0.5352921531
C   C10       1.0  0.27890  0.28730  0.38870  1.0000 -0.1804783807
C   C11       1.0  0.27020  0.03840  0.39370  1.0000 0.1654525147
C   C12       1.0  0.60010  0.01750  0.35090  1.0000 -0.0784975607
C   C13       1.0  0.04920  0.41140  0.31290  1.0000 -0.0975303238
C   C14       1.0  0.12470  0.28910  0.32960  1.0000 -0.1804783807
C   C15       1.0  0.19610  0.06430  0.43500  1.0000 -0.1742178007
C   C16       1.0  0.13040  0.85020  0.42160  1.0000 0.5129811512
C   C17       1.0  0.52220  0.92580  0.43460  1.0000 -0.1897580233
C   C18       1.0  0.64160  0.86300  0.43830  1.0000 -0.0975303238
C   C19       1.0  0.17630  0.91910  0.41130  1.0000 -0.020112021
C   C20       1.0  0.13270  0.50450  0.54950  1.0000 0.0709663201
C   C21       1.0  0.19800  0.42420  0.61440  1.0000 -0.1897580233
C   C22       1.0  0.29270  0.41470  0.65210  1.0000 0.1599711524
C   C23       1.0  0.32200  0.48540  0.62490  1.0000 -0.2072342439
C   C24       1.0  0.25660  0.56560  0.56000  1.0000 0.0709663201
C   C25       1.0  0.29450  0.95530  0.35740  1.0000 -0.1897580233
C   C26       1.0  0.24920  0.89520  0.36860  1.0000 -0.0915795872
C   C27       1.0  0.36390  0.31970  0.71950  1.0000 -0.2358089937
C   C28       1.0  0.47320  0.08820  0.16570  1.0000 -0.0313353902
C   C29       1.0  0.90820  0.68200  0.10280  1.0000 -0.0460688761
C   C30       1.0  0.08020  0.48240  0.15410  1.0000 -0.1804783807
C   C31       1.0  0.03620  0.43980  0.11280  1.0000 0.1878394679
C   C32       1.0  0.83950  0.81050  0.09730  1.0000 0.5491602466
C   C33       1.0  0.22830  0.23930  0.13310  1.0000 0.1654525147
C   C34       1.0  0.00320  0.15040  0.05490  1.0000 -0.0784975607
C   C35       1.0  0.40810  0.20470  0.12760  1.0000 -0.0975303238
C   C36       1.0  0.60640  0.00760  0.18740  1.0000 0.5352921531
C   C37       1.0  0.28730  0.27890  0.11130  1.0000 -0.1804783807
C   C38       1.0  0.03840  0.27020  0.10630  1.0000 0.1654525147
C   C39       1.0  0.01750  0.60010  0.14910  1.0000 -0.0784975607
C   C40       1.0  0.41140  0.04920  0.18710  1.0000 -0.0975303238
C   C41       1.0  0.28910  0.12470  0.17040  1.0000 -0.1804783807
C   C42       1.0  0.06430  0.19610  0.06500  1.0000 -0.1742178007
C   C43       1.0  0.85020  0.13040  0.07840  1.0000 0.5153075602
C   C44       1.0  0.92580  0.52220  0.06540  1.0000 -0.1897580233
C   C45       1.0  0.86300  0.64160  0.06170  1.0000 -0.0975303238
C   C46       1.0  0.91910  0.17630  0.08870  1.0000 -0.020112021
C   C47       1.0  0.50450  0.13270  0.95050  1.0000 0.0709663201
C   C48       1.0  0.42420  0.19800  0.88560  1.0000 -0.1897580233
C   C49       1.0  0.41470  0.29270  0.84790  1.0000 0.1599711524
C   C50       1.0  0.48540  0.32200  0.87510  1.0000 -0.2072342439
C   C51       1.0  0.56560  0.25660  0.94000  1.0000 0.0709663201
C   C52       1.0  0.95530  0.29450  0.14260  1.0000 -0.1897580233
C   C53       1.0  0.89520  0.24920  0.13140  1.0000 -0.0915795872
C   C54       1.0  0.31970  0.36390  0.78050  1.0000 -0.2358089937
C   C55       1.0  0.91180  0.52680  0.66570  1.0000 -0.0313353902
C   C56       1.0  0.31800  0.09180  0.60280  1.0000 -0.0460688761
C   C57       1.0  0.51760  0.91980  0.65410  1.0000 -0.1804783807
C   C58       1.0  0.56020  0.96380  0.61280  1.0000 0.1878394679
C   C59       1.0  0.18950  0.16050  0.59730  1.0000 0.5491602466
C   C60       1.0  0.76070  0.77170  0.63310  1.0000 0.1654525147
C   C61       1.0  0.84960  0.99680  0.55490  1.0000 -0.0784975607
C   C62       1.0  0.79530  0.59190  0.62760  1.0000 -0.0975303238
C   C63       1.0  0.99240  0.39360  0.68740  1.0000 0.5352921531
C   C64       1.0  0.72110  0.71270  0.61130  1.0000 -0.1804783807
C   C65       1.0  0.72980  0.96160  0.60630  1.0000 0.1654525147
C   C66       1.0  0.39990  0.98250  0.64910  1.0000 -0.0784975607
C   C67       1.0  0.95080  0.58860  0.68710  1.0000 -0.0975303238
C   C68       1.0  0.87530  0.71090  0.67040  1.0000 -0.1804783807
C   C69       1.0  0.80390  0.93570  0.56500  1.0000 -0.1742178007
C   C70       1.0  0.86960  0.14980  0.57840  1.0000 0.5153075602
C   C71       1.0  0.47780  0.07420  0.56540  1.0000 -0.1897580233
C   C72       1.0  0.35840  0.13700  0.56170  1.0000 -0.0975303238
C   C73       1.0  0.82370  0.08090  0.58870  1.0000 -0.020112021
C   C74       1.0  0.86730  0.49550  0.45050  1.0000 0.0709663201
C   C75       1.0  0.80200  0.57580  0.38560  1.0000 -0.1897580233
C   C76       1.0  0.70730  0.58530  0.34790  1.0000 0.1599711524
C   C77       1.0  0.67800  0.51460  0.37510  1.0000 -0.2072342439
C   C78       1.0  0.74340  0.43440  0.44000  1.0000 0.0709663201
C   C79       1.0  0.70550  0.04470  0.64260  1.0000 -0.1897580233
C   C80       1.0  0.75080  0.10480  0.63140  1.0000 -0.0915795872
C   C81       1.0  0.63610  0.68030  0.28050  1.0000 -0.2358089937
C   C82       1.0  0.52680  0.91180  0.83430  1.0000 -0.0313353902
C   C83       1.0  0.09180  0.31800  0.89720  1.0000 -0.0460688761
C   C84       1.0  0.91980  0.51760  0.84590  1.0000 -0.1804783807
C   C85       1.0  0.96380  0.56020  0.88720  1.0000 0.1878394679
C   C86       1.0  0.16050  0.18950  0.90270  1.0000 0.5491602466
C   C87       1.0  0.77170  0.76070  0.86690  1.0000 0.1654525147
C   C88       1.0  0.99680  0.84960  0.94510  1.0000 -0.0784975607
C   C89       1.0  0.59190  0.79530  0.87240  1.0000 -0.0975303238
C   C90       1.0  0.39360  0.99240  0.81260  1.0000 0.5352921531
C   C91       1.0  0.71270  0.72110  0.88870  1.0000 -0.1804783807
C   C92       1.0  0.96160  0.72980  0.89370  1.0000 0.1654525147
C   C93       1.0  0.98250  0.39990  0.85090  1.0000 -0.0784975607
C   C94       1.0  0.58860  0.95080  0.81290  1.0000 -0.0975303238
C   C95       1.0  0.71090  0.87530  0.82960  1.0000 -0.1804783807
C   C96       1.0  0.93570  0.80390  0.93500  1.0000 -0.1742178007
C   C97       1.0  0.14980  0.86960  0.92160  1.0000 0.5153075602
C   C98       1.0  0.07420  0.47780  0.93460  1.0000 -0.1897580233
C   C99       1.0  0.13700  0.35840  0.93830  1.0000 -0.0975303238
C   C100      1.0  0.08090  0.82370  0.91130  1.0000 -0.020112021
C   C101      1.0  0.49550  0.86730  0.04950  1.0000 0.0709663201
C   C102      1.0  0.57580  0.80200  0.11440  1.0000 -0.1897580233
C   C103      1.0  0.58530  0.70730  0.15210  1.0000 0.1599711524
C   C104      1.0  0.51460  0.67800  0.12490  1.0000 -0.2072342439
C   C105      1.0  0.43440  0.74340  0.06000  1.0000 0.0709663201
C   C106      1.0  0.04470  0.70550  0.85740  1.0000 -0.1897580233
C   C107      1.0  0.10480  0.75080  0.86860  1.0000 -0.0915795872
C   C108      1.0  0.68030  0.63610  0.21950  1.0000 -0.2358089937
N   N1        1.0  0.31730  0.10090  0.38410  1.0000 -0.1897580233
N   N2        1.0  0.16200  0.57520  0.52230  1.0000 -0.3053613036
N   N3        1.0  0.10090  0.31730  0.11590  1.0000 -0.1897580233
N   N4        1.0  0.57520  0.16200  0.97770  1.0000 -0.3053613036
N   N5        1.0  0.68270  0.89910  0.61590  1.0000 -0.1897580233
N   N6        1.0  0.83800  0.42480  0.47770  1.0000 -0.3053613036
N   N7        1.0  0.89910  0.68270  0.88410  1.0000 -0.1897580233
N   N8        1.0  0.42480  0.83800  0.02230  1.0000 -0.3053613036
O   O1        1.0  0.05090  0.65810  0.32960  1.0000 -0.5712510599
O   O2        1.0  0.84490  0.87850  0.36000  1.0000 -0.56290863
O   O3        1.0  0.90510  0.66090  0.27760  1.0000 -0.5130945696
O   O4        1.0  0.88500  0.74780  0.45110  1.0000 -0.5398036196
O   O5        1.0  0.08200  0.85500  0.46530  1.0000 -0.4818927898
O   O6        1.0  0.11690  0.81150  0.37170  1.0000 -0.4953950498
O   O7        1.0  0.65810  0.05090  0.17040  1.0000 -0.5712510599
O   O8        1.0  0.87850  0.84490  0.14000  1.0000 -0.56290863
O   O9        1.0  0.66090  0.90510  0.22240  1.0000 -0.5130945696
O   O10       1.0  0.74780  0.88500  0.04890  1.0000 -0.5398036196
O   O11       1.0  0.85500  0.08200  0.03470  1.0000 -0.4818927898
O   O12       1.0  0.81150  0.11690  0.12830  1.0000 -0.4937918438
O   O13       1.0  0.94910  0.34190  0.67040  1.0000 -0.5712510599
O   O14       1.0  0.15510  0.12150  0.64000  1.0000 -0.56290863
O   O15       1.0  0.09490  0.33910  0.72240  1.0000 -0.5130945696
O   O16       1.0  0.11500  0.25220  0.54890  1.0000 -0.5398036196
O   O17       1.0  0.91800  0.14500  0.53470  1.0000 -0.4818927898
O   O18       1.0  0.88310  0.18850  0.62830  1.0000 -0.4953950498
O   O19       1.0  0.34190  0.94910  0.82960  1.0000 -0.5712510599
O   O20       1.0  0.12150  0.15510  0.86000  1.0000 -0.56290863
O   O21       1.0  0.33910  0.09490  0.77760  1.0000 -0.5130945696
O   O22       1.0  0.25220  0.11500  0.95110  1.0000 -0.5398036196
O   O23       1.0  0.14500  0.91800  0.96530  1.0000 -0.4818927898
O   O24       1.0  0.18850  0.88310  0.87170  1.0000 -0.4953950498
