# DDEC6 charges by PACMAN v1.1 (https://github.com/mtap-research/PACMAN-charge/)
data_2022[Cu][rob]3[ASR]1
_chemical_formula_sum              "Cu8 H96 C88 N8 O32"
_cell_length_a       13.5019
_cell_length_b       15.0054
_cell_length_c       15.01
_cell_angle_alpha    75.745
_cell_angle_beta     69.047
_cell_angle_gamma    70.426

_symmetry_space_group_name_H-M    "P 1"
_symmetry_Int_Tables_number       1

loop_
  _symmetry_equiv_pos_as_xyz
  'x, y, z'

loop_
  _atom_site_type_symbol
  _atom_site_label
  _atom_site_symmetry_multiplicity
  _atom_site_fract_x
  _atom_site_fract_y
  _atom_site_fract_z
  _atom_site_occupancy
  _atom_site_charge
Cu  Cu1       1.0  0.08830  0.77980  0.19950  1.0000 0.7697968363
Cu  Cu2       1.0  0.91110  0.72060  0.30080  1.0000 0.7697968363
Cu  Cu3       1.0  0.08840  0.75630  0.67640  1.0000 0.7697968363
Cu  Cu4       1.0  0.91140  0.74340  0.82410  1.0000 0.7697968363
Cu  Cu5       1.0  0.91170  0.22020  0.80050  1.0000 0.7697968363
Cu  Cu6       1.0  0.08890  0.27940  0.69920  1.0000 0.7697968363
Cu  Cu7       1.0  0.91160  0.24370  0.32360  1.0000 0.7697968363
Cu  Cu8       1.0  0.08860  0.25660  0.17590  1.0000 0.7697968363
H   H1        1.0  0.92420  0.98460  0.41550  1.0000 0.1491092634
H   H2        1.0  0.98190  0.89710  0.48010  1.0000 0.140882153
H   H3        1.0  0.31970  0.75560  0.02590  1.0000 0.1110088136
H   H4        1.0  0.44920  0.84180  0.94490  1.0000 0.1291919445
H   H5        1.0  0.27790  0.04250  0.12100  1.0000 0.140882153
H   H6        1.0  0.14840  0.95630  0.20200  1.0000 0.1110088136
H   H7        1.0  0.50610  0.98350  0.91030  1.0000 0.119755005
H   H8        1.0  0.42560  0.07380  0.96020  1.0000 0.119755005
H   H9        1.0  0.49210  0.52160  0.59270  1.0000 0.119755005
H   H10       1.0  0.57590  0.42880  0.54880  1.0000 0.119755005
H   H11       1.0  0.84660  0.54140  0.29460  1.0000 0.119755005
H   H12       1.0  0.71560  0.45830  0.38310  1.0000 0.140882153
H   H13       1.0  0.56010  0.66140  0.55780  1.0000 0.1291919445
H   H14       1.0  0.69110  0.74450  0.46930  1.0000 0.1110088136
H   H15       1.0  0.68820  0.68740  0.90810  1.0000 0.1110088136
H   H16       1.0  0.55460  0.66790  0.05580  1.0000 0.1291919445
H   H17       1.0  0.71630  0.75490  0.18360  1.0000 0.140882153
H   H18       1.0  0.84980  0.77440  0.03590  1.0000 0.119755005
H   H19       1.0  0.49240  0.66170  0.23670  1.0000 0.119755005
H   H20       1.0  0.57640  0.67060  0.28310  1.0000 0.119755005
H   H21       1.0  0.15140  0.72000  0.46810  1.0000 0.1110088136
H   H22       1.0  0.28150  0.73880  0.31800  1.0000 0.140882153
H   H23       1.0  0.44470  0.83500  0.43640  1.0000 0.1291919445
H   H24       1.0  0.31460  0.81610  0.58650  1.0000 0.1110088136
H   H25       1.0  0.42250  0.83010  0.21510  1.0000 0.119755005
H   H26       1.0  0.50530  0.83780  0.26380  1.0000 0.119755005
H   H27       1.0  0.08060  0.51400  0.08920  1.0000 0.1491092634
H   H28       1.0  0.01930  0.59970  0.02570  1.0000 0.140882153
H   H29       1.0  0.24710  0.53070  0.99690  1.0000 0.0892460695
H   H30       1.0  0.19690  0.63430  0.94770  1.0000 0.1030663951
H   H31       1.0  0.15650  0.47220  0.91280  1.0000 0.140882153
H   H32       1.0  0.26360  0.50500  0.84680  1.0000 0.119755005
H   H33       1.0  0.91490  0.13170  0.05890  1.0000 0.1491092634
H   H34       1.0  0.97860  0.03670  0.11010  1.0000 0.1491092634
H   H35       1.0  0.92020  0.62510  0.55100  1.0000 0.1491092634
H   H36       1.0  0.98030  0.53200  0.60820  1.0000 0.1491092634
H   H37       1.0  0.75310  0.62030  0.65240  1.0000 0.0892460695
H   H38       1.0  0.80220  0.55040  0.73390  1.0000 0.1030663951
H   H39       1.0  0.84360  0.02770  0.58590  1.0000 0.140882153
H   H40       1.0  0.73680  0.99510  0.65320  1.0000 0.1291919445
H   H41       1.0  0.73570  0.97770  0.13580  1.0000 0.1291919445
H   H42       1.0  0.84250  0.99090  0.04890  1.0000 0.140882153
H   H43       1.0  0.75250  0.11660  0.15480  1.0000 0.0892460695
H   H44       1.0  0.80330  0.04070  0.23170  1.0000 0.1030663951
H   H45       1.0  0.84660  0.48930  0.55480  1.0000 0.140882153
H   H46       1.0  0.74020  0.47670  0.64080  1.0000 0.1291919445
H   H47       1.0  0.80260  0.86420  0.55420  1.0000 0.1110088136
H   H48       1.0  0.75370  0.96750  0.50310  1.0000 0.0892460695
H   H49       1.0  0.07580  0.01540  0.58450  1.0000 0.1491092634
H   H50       1.0  0.01810  0.10290  0.51990  1.0000 0.140882153
H   H51       1.0  0.68030  0.24440  0.97410  1.0000 0.1110088136
H   H52       1.0  0.55080  0.15820  0.05510  1.0000 0.1291919445
H   H53       1.0  0.72210  0.95750  0.87900  1.0000 0.140882153
H   H54       1.0  0.85160  0.04370  0.79800  1.0000 0.1110088136
H   H55       1.0  0.49390  0.01650  0.08970  1.0000 0.119755005
H   H56       1.0  0.57440  0.92620  0.03980  1.0000 0.1291919445
H   H57       1.0  0.50790  0.47840  0.40730  1.0000 0.119755005
H   H58       1.0  0.42410  0.57120  0.45120  1.0000 0.119755005
H   H59       1.0  0.15340  0.45860  0.70540  1.0000 0.119755005
H   H60       1.0  0.28440  0.54170  0.61690  1.0000 0.140882153
H   H61       1.0  0.43990  0.33860  0.44220  1.0000 0.1291919445
H   H62       1.0  0.30890  0.25550  0.53070  1.0000 0.1110088136
H   H63       1.0  0.31180  0.31260  0.09190  1.0000 0.1110088136
H   H64       1.0  0.44540  0.33210  0.94420  1.0000 0.1291919445
H   H65       1.0  0.28370  0.24510  0.81640  1.0000 0.140882153
H   H66       1.0  0.15020  0.22560  0.96410  1.0000 0.119755005
H   H67       1.0  0.50760  0.33830  0.76330  1.0000 0.119755005
H   H68       1.0  0.42360  0.32940  0.71690  1.0000 0.119755005
H   H69       1.0  0.84860  0.28000  0.53190  1.0000 0.1110088136
H   H70       1.0  0.71850  0.26120  0.68200  1.0000 0.140882153
H   H71       1.0  0.55530  0.16500  0.56360  1.0000 0.1291919445
H   H72       1.0  0.68540  0.18390  0.41350  1.0000 0.1110088136
H   H73       1.0  0.57750  0.16990  0.78490  1.0000 0.119755005
H   H74       1.0  0.49470  0.16220  0.73620  1.0000 0.119755005
H   H75       1.0  0.91940  0.48600  0.91080  1.0000 0.1491092634
H   H76       1.0  0.98070  0.40030  0.97430  1.0000 0.140882153
H   H77       1.0  0.75290  0.46930  0.00310  1.0000 0.0892460695
H   H78       1.0  0.80310  0.36570  0.05230  1.0000 0.1030663951
H   H79       1.0  0.84350  0.52780  0.08720  1.0000 0.140882153
H   H80       1.0  0.73640  0.49500  0.15320  1.0000 0.1291919445
H   H81       1.0  0.08510  0.86830  0.94110  1.0000 0.1491092634
H   H82       1.0  0.02140  0.96330  0.88990  1.0000 0.1491092634
H   H83       1.0  0.07980  0.37490  0.44900  1.0000 0.1491092634
H   H84       1.0  0.01970  0.46800  0.39180  1.0000 0.1491092634
H   H85       1.0  0.24690  0.37970  0.34760  1.0000 0.0892460695
H   H86       1.0  0.19780  0.44960  0.26610  1.0000 0.1030663951
H   H87       1.0  0.15640  0.97230  0.41410  1.0000 0.140882153
H   H88       1.0  0.26320  0.00490  0.34680  1.0000 0.1291919445
H   H89       1.0  0.26430  0.02230  0.86420  1.0000 0.1291919445
H   H90       1.0  0.15750  0.00910  0.95110  1.0000 0.140882153
H   H91       1.0  0.24750  0.88340  0.84520  1.0000 0.0892460695
H   H92       1.0  0.19670  0.95930  0.76830  1.0000 0.1030663951
H   H93       1.0  0.15340  0.51070  0.44520  1.0000 0.140882153
H   H94       1.0  0.25980  0.52330  0.35920  1.0000 0.1291919445
H   H95       1.0  0.19740  0.13580  0.44580  1.0000 0.1110088136
H   H96       1.0  0.24630  0.03250  0.49690  1.0000 0.0892460695
C   C1        1.0  0.88200  0.38500  0.66400  1.0000 0.6211565419
C   C2        1.0  0.05900  0.64400  0.12300  1.0000 0.6308401032
C   C3        1.0  0.88100  0.89000  0.16300  1.0000 0.6308401032
C   C4        1.0  0.92200  0.92000  0.45000  1.0000 -0.3490666048
C   C5        1.0  0.94400  0.65000  0.66500  1.0000 0.6308401032
C   C6        1.0  0.88070  0.89830  0.67170  1.0000 0.6211565419
C   C7        1.0  0.11870  0.60490  0.82870  1.0000 0.6211565419
C   C8        1.0  0.94300  0.15100  0.17510  1.0000 0.6211565419
C   C9        1.0  0.31130  0.81350  0.04510  1.0000 0.0731882016
C   C10       1.0  0.38860  0.86490  0.99680  1.0000 -0.2188612008
C   C11       1.0  0.37610  0.95040  0.02520  1.0000 0.165229465
C   C12       1.0  0.28640  0.98460  0.10180  1.0000 -0.206032493
C   C13       1.0  0.20910  0.93320  0.15010  1.0000 0.0815250356
C   C14       1.0  0.46300  0.00600  0.97300  1.0000 -0.2388438951
C   C15       1.0  0.53900  0.49600  0.53200  1.0000 -0.2388438951
C   C16       1.0  0.78880  0.56560  0.34770  1.0000 0.0815250356
C   C17       1.0  0.71070  0.51600  0.40050  1.0000 -0.2046130644
C   C18       1.0  0.62520  0.55180  0.47900  1.0000 0.165229465
C   C19       1.0  0.61790  0.63720  0.50470  1.0000 -0.2188612008
C   C20       1.0  0.69610  0.68680  0.45190  1.0000 0.0731882016
C   C21       1.0  0.69380  0.70100  0.96370  1.0000 0.0731882016
C   C22       1.0  0.61420  0.68940  0.05180  1.0000 -0.2188612008
C   C23       1.0  0.62250  0.70950  0.13400  1.0000 0.1632142804
C   C24       1.0  0.71060  0.74130  0.12800  1.0000 -0.2046130644
C   C25       1.0  0.79030  0.75290  0.03990  1.0000 0.0892460695
C   C26       1.0  0.53700  0.70200  0.23500  1.0000 -0.2335280673
C   C27       1.0  0.21050  0.74320  0.46170  1.0000 0.0815250356
C   C28       1.0  0.28810  0.75440  0.37220  1.0000 -0.206032493
C   C29       1.0  0.37560  0.78870  0.36270  1.0000 0.1632142804
C   C30       1.0  0.38550  0.81180  0.44280  1.0000 -0.2188612008
C   C31       1.0  0.30790  0.80050  0.53230  1.0000 0.0731882016
C   C32       1.0  0.46100  0.79800  0.26400  1.0000 -0.2388438951
C   C33       1.0  0.08100  0.57800  0.05300  1.0000 -0.3490666048
C   C34       1.0  0.18600  0.57000  0.97200  1.0000 -0.0895568979
C   C35       1.0  0.18800  0.52700  0.88800  1.0000 -0.3101911094
C   C36       1.0  0.91600  0.09400  0.12200  1.0000 -0.3422335581
C   C37       1.0  0.92000  0.59100  0.61600  1.0000 -0.3689398066
C   C38       1.0  0.81400  0.56600  0.66400  1.0000 -0.079594626
C   C39       1.0  0.81300  0.97300  0.61200  1.0000 -0.3228050516
C   C40       1.0  0.81200  0.98100  0.11900  1.0000 -0.3305759028
C   C41       1.0  0.81500  0.06100  0.16200  1.0000 -0.0895568979
C   C42       1.0  0.81600  0.47900  0.62520  1.0000 -0.3228050516
C   C43       1.0  0.81400  0.92800  0.52900  1.0000 -0.079594626
C   C44       1.0  0.94510  0.85640  0.37900  1.0000 0.6211565419
C   C45       1.0  0.11800  0.61500  0.33600  1.0000 0.6211565419
C   C46       1.0  0.94100  0.35600  0.87700  1.0000 0.6308401032
C   C47       1.0  0.11900  0.11000  0.83700  1.0000 0.6308401032
C   C48       1.0  0.07800  0.08000  0.55000  1.0000 -0.3490666048
C   C49       1.0  0.05600  0.35000  0.33500  1.0000 0.6308401032
C   C50       1.0  0.11930  0.10170  0.32830  1.0000 0.6211565419
C   C51       1.0  0.88130  0.39510  0.17130  1.0000 0.6211565419
C   C52       1.0  0.05700  0.84900  0.82490  1.0000 0.6211565419
C   C53       1.0  0.68870  0.18650  0.95490  1.0000 0.0731882016
C   C54       1.0  0.61140  0.13510  0.00320  1.0000 -0.2188612008
C   C55       1.0  0.62390  0.04960  0.97480  1.0000 0.165229465
C   C56       1.0  0.71360  0.01540  0.89820  1.0000 -0.206032493
C   C57       1.0  0.79090  0.06680  0.84990  1.0000 0.0815250356
C   C58       1.0  0.53700  0.99400  0.02700  1.0000 -0.2388438951
C   C59       1.0  0.46100  0.50400  0.46800  1.0000 -0.2388438951
C   C60       1.0  0.21120  0.43440  0.65230  1.0000 0.0815250356
C   C61       1.0  0.28930  0.48400  0.59950  1.0000 -0.2046130644
C   C62       1.0  0.37480  0.44820  0.52100  1.0000 0.165229465
C   C63       1.0  0.38210  0.36280  0.49530  1.0000 -0.2188612008
C   C64       1.0  0.30390  0.31320  0.54810  1.0000 0.0731882016
C   C65       1.0  0.30620  0.29900  0.03630  1.0000 0.0731882016
C   C66       1.0  0.38580  0.31060  0.94820  1.0000 -0.2188612008
C   C67       1.0  0.37750  0.29050  0.86600  1.0000 0.1632142804
C   C68       1.0  0.28940  0.25870  0.87200  1.0000 -0.2046130644
C   C69       1.0  0.20970  0.24710  0.96010  1.0000 0.0892460695
C   C70       1.0  0.46300  0.29800  0.76500  1.0000 -0.2335280673
C   C71       1.0  0.78950  0.25680  0.53830  1.0000 0.0815250356
C   C72       1.0  0.71190  0.24560  0.62780  1.0000 -0.206032493
C   C73       1.0  0.62440  0.21130  0.63730  1.0000 0.1632142804
C   C74       1.0  0.61450  0.18820  0.55720  1.0000 -0.2188612008
C   C75       1.0  0.69210  0.19950  0.46770  1.0000 0.0731882016
C   C76       1.0  0.53900  0.20200  0.73600  1.0000 -0.2388438951
C   C77       1.0  0.91900  0.42200  0.94700  1.0000 -0.3422335581
C   C78       1.0  0.81400  0.43000  0.02800  1.0000 -0.0895568979
C   C79       1.0  0.81200  0.47300  0.11200  1.0000 -0.3101911094
C   C80       1.0  0.08400  0.90600  0.87800  1.0000 -0.3422335581
C   C81       1.0  0.08000  0.40900  0.38400  1.0000 -0.3689398066
C   C82       1.0  0.18600  0.43400  0.33600  1.0000 -0.079594626
C   C83       1.0  0.18700  0.02700  0.38800  1.0000 -0.3228050516
C   C84       1.0  0.18800  0.01900  0.88100  1.0000 -0.3305759028
C   C85       1.0  0.18500  0.93900  0.83800  1.0000 -0.0895568979
C   C86       1.0  0.18400  0.52100  0.37480  1.0000 -0.3228050516
C   C87       1.0  0.18600  0.07200  0.47100  1.0000 -0.079594626
C   C88       1.0  0.05490  0.14360  0.62100  1.0000 0.6211565419
N   N1        1.0  0.22150  0.84760  0.12170  1.0000 -0.3101911094
N   N2        1.0  0.78150  0.65100  0.37340  1.0000 -0.2968188943
N   N3        1.0  0.78190  0.73280  0.95770  1.0000 -0.2968188943
N   N4        1.0  0.22040  0.76620  0.54180  1.0000 -0.3101911094
N   N5        1.0  0.77850  0.15240  0.87830  1.0000 -0.3101911094
N   N6        1.0  0.21850  0.34900  0.62660  1.0000 -0.2968188943
N   N7        1.0  0.21810  0.26720  0.04230  1.0000 -0.2968188943
N   N8        1.0  0.77960  0.23380  0.45820  1.0000 -0.3101911094
O   O1        1.0  0.83100  0.33010  0.72730  1.0000 -0.5230197335
O   O2        1.0  0.98300  0.37390  0.63690  1.0000 -0.5230197335
O   O3        1.0  0.12180  0.69530  0.10910  1.0000 -0.5025383578
O   O4        1.0  0.96830  0.64620  0.19590  1.0000 -0.5686733917
O   O5        1.0  0.02900  0.85270  0.30720  1.0000 -0.5316433902
O   O6        1.0  0.87940  0.80820  0.39370  1.0000 -0.5054056839
O   O7        1.0  0.98460  0.87400  0.13440  1.0000 -0.5316433902
O   O8        1.0  0.83100  0.83290  0.22710  1.0000 -0.549820681
O   O9        1.0  0.02960  0.67720  0.63340  1.0000 -0.5230197335
O   O10       1.0  0.87960  0.66780  0.75100  1.0000 -0.5230197335
O   O11       1.0  0.87830  0.16950  0.25610  1.0000 -0.5025383578
O   O12       1.0  0.03100  0.18050  0.12960  1.0000 -0.5623290435
O   O13       1.0  0.16850  0.64180  0.74790  1.0000 -0.5316433902
O   O14       1.0  0.01670  0.62770  0.86790  1.0000 -0.5230197335
O   O15       1.0  0.98300  0.87150  0.63560  1.0000 -0.5230197335
O   O16       1.0  0.83260  0.85740  0.75070  1.0000 -0.5230197335
O   O17       1.0  0.16900  0.66990  0.27270  1.0000 -0.5230197335
O   O18       1.0  0.01700  0.62610  0.36310  1.0000 -0.5230197335
O   O19       1.0  0.87820  0.30470  0.89090  1.0000 -0.5025383578
O   O20       1.0  0.03170  0.35380  0.80410  1.0000 -0.5686733917
O   O21       1.0  0.97100  0.14730  0.69280  1.0000 -0.5316433902
O   O22       1.0  0.12060  0.19180  0.60630  1.0000 -0.5054056839
O   O23       1.0  0.01540  0.12600  0.86560  1.0000 -0.5316433902
O   O24       1.0  0.16900  0.16710  0.77290  1.0000 -0.549820681
O   O25       1.0  0.97040  0.32280  0.36660  1.0000 -0.5230197335
O   O26       1.0  0.12040  0.33220  0.24900  1.0000 -0.5230197335
O   O27       1.0  0.12170  0.83050  0.74390  1.0000 -0.5025383578
O   O28       1.0  0.96900  0.81950  0.87040  1.0000 -0.5623290435
O   O29       1.0  0.83150  0.35820  0.25210  1.0000 -0.5316433902
O   O30       1.0  0.98330  0.37230  0.13210  1.0000 -0.5230197335
O   O31       1.0  0.01700  0.12850  0.36440  1.0000 -0.5230197335
O   O32       1.0  0.16740  0.14260  0.24930  1.0000 -0.5230197335
