# DDEC6 charges by PACMAN v1.1 (https://github.com/mtap-research/PACMAN-charge/)
data_2022[CuMn][dmd]3[ASR]1
_chemical_formula_sum              "Mn4 Cu4 H24 C64 N12 O24"
_cell_length_a       14.2429
_cell_length_b       14.2429
_cell_length_c       19.2871
_cell_angle_alpha    81.3866
_cell_angle_beta     98.6134
_cell_angle_gamma    146.506

_symmetry_space_group_name_H-M    "P 1"
_symmetry_Int_Tables_number       1

loop_
  _symmetry_equiv_pos_as_xyz
  'x, y, z'

loop_
  _atom_site_type_symbol
  _atom_site_label
  _atom_site_symmetry_multiplicity
  _atom_site_fract_x
  _atom_site_fract_y
  _atom_site_fract_z
  _atom_site_occupancy
  _atom_site_charge
Mn  Mn1       1.0  0.15127  0.26623  0.28126  1.0000 1.0020811734
Mn  Mn2       1.0  0.26623  0.15127  0.21874  1.0000 1.0020811734
Mn  Mn3       1.0  0.84873  0.73377  0.71874  1.0000 1.0020811734
Mn  Mn4       1.0  0.73377  0.84873  0.78126  1.0000 1.0020811734
Cu  Cu1       1.0  0.51240  0.34766  0.49001  1.0000 0.6828719256
Cu  Cu2       1.0  0.34766  0.51240  0.00999  1.0000 0.6828719256
Cu  Cu3       1.0  0.48760  0.65234  0.50999  1.0000 0.6828719256
Cu  Cu4       1.0  0.65234  0.48760  0.99001  1.0000 0.6828719256
H   H1        1.0  0.75799  0.47239  0.31708  1.0000 0.1405089748
H   H2        1.0  0.97433  0.54235  0.31101  1.0000 0.1405089748
H   H3        1.0  0.59733  0.18719  0.49798  1.0000 0.1460480121
H   H4        1.0  0.10844  0.25488  0.58843  1.0000 0.1460480121
H   H5        1.0  0.87106  0.10764  0.64083  1.0000 0.1095579909
H   H6        1.0  0.71323  0.10969  0.58875  1.0000 0.1348972497
H   H7        1.0  0.47239  0.75799  0.18292  1.0000 0.1405089748
H   H8        1.0  0.54235  0.97433  0.18899  1.0000 0.1405089748
H   H9        1.0  0.18719  0.59733  0.00202  1.0000 0.1460480121
H   H10       1.0  0.25488  0.10844  0.91157  1.0000 0.1460480121
H   H11       1.0  0.10764  0.87106  0.85917  1.0000 0.1095579909
H   H12       1.0  0.10969  0.71323  0.91125  1.0000 0.1348972497
H   H13       1.0  0.24201  0.52761  0.68292  1.0000 0.1405089748
H   H14       1.0  0.02567  0.45765  0.68899  1.0000 0.1405089748
H   H15       1.0  0.40267  0.81281  0.50202  1.0000 0.1460480121
H   H16       1.0  0.89156  0.74512  0.41157  1.0000 0.1460480121
H   H17       1.0  0.12894  0.89236  0.35917  1.0000 0.1095579909
H   H18       1.0  0.28677  0.89031  0.41125  1.0000 0.1348972497
H   H19       1.0  0.52761  0.24201  0.81708  1.0000 0.1405089748
H   H20       1.0  0.45765  0.02567  0.81101  1.0000 0.1405089748
H   H21       1.0  0.81281  0.40267  0.99798  1.0000 0.1460480121
H   H22       1.0  0.74512  0.89156  0.08843  1.0000 0.1460480121
H   H23       1.0  0.89236  0.12894  0.14083  1.0000 0.1095579909
H   H24       1.0  0.89031  0.28677  0.08875  1.0000 0.1348972497
C   C1        1.0  0.31294  0.21806  0.36934  1.0000 0.4799912748
C   C2        1.0  0.43270  0.23710  0.35812  1.0000 0.3769269166
C   C3        1.0  0.65941  0.32459  0.40808  1.0000 0.2522842166
C   C4        1.0  0.77097  0.42943  0.35257  1.0000 -0.1600790592
C   C5        1.0  0.89892  0.47128  0.34856  1.0000 -0.1396589289
C   C6        1.0  0.91381  0.40579  0.40143  1.0000 0.1611501006
C   C7        1.0  0.80267  0.29913  0.45744  1.0000 0.0162228345
C   C8        1.0  0.67340  0.25840  0.46067  1.0000 -0.2280629399
C   C9        1.0  0.86071  0.26189  0.50272  1.0000 0.0100637306
C   C10       1.0  0.00468  0.34972  0.47139  1.0000 0.1095579909
C   C11       1.0  0.09983  0.34937  0.50259  1.0000 0.187399338
C   C12       1.0  0.04669  0.25771  0.56595  1.0000 -0.1851913305
C   C13       1.0  0.90427  0.16953  0.59746  1.0000 -0.0787364292
C   C14       1.0  0.80978  0.17002  0.56682  1.0000 -0.1396589289
C   C15       1.0  0.24185  0.41055  0.41174  1.0000 0.401673722
C   C16       1.0  0.41388  0.52612  0.38680  1.0000 0.4799912748
C   C17       1.0  0.21806  0.31294  0.13066  1.0000 0.4799912748
C   C18       1.0  0.23710  0.43270  0.14188  1.0000 0.3769269166
C   C19       1.0  0.32459  0.65941  0.09192  1.0000 0.2522842166
C   C20       1.0  0.42943  0.77097  0.14743  1.0000 -0.1600790592
C   C21       1.0  0.47128  0.89892  0.15144  1.0000 -0.1396589289
C   C22       1.0  0.40579  0.91381  0.09857  1.0000 0.1611501006
C   C23       1.0  0.29913  0.80267  0.04256  1.0000 0.0162228345
C   C24       1.0  0.25840  0.67340  0.03933  1.0000 -0.2280629399
C   C25       1.0  0.26189  0.86071  0.99728  1.0000 0.0100637306
C   C26       1.0  0.34972  0.00468  0.02861  1.0000 0.1095579909
C   C27       1.0  0.34937  0.09983  0.99741  1.0000 0.187399338
C   C28       1.0  0.25771  0.04669  0.93405  1.0000 -0.1851913305
C   C29       1.0  0.16953  0.90427  0.90254  1.0000 -0.0787364292
C   C30       1.0  0.17002  0.80978  0.93318  1.0000 -0.1396589289
C   C31       1.0  0.41055  0.24185  0.08826  1.0000 0.401673722
C   C32       1.0  0.52612  0.41388  0.11320  1.0000 0.4799912748
C   C33       1.0  0.68706  0.78194  0.63066  1.0000 0.4799912748
C   C34       1.0  0.56730  0.76290  0.64188  1.0000 0.3769269166
C   C35       1.0  0.34059  0.67541  0.59192  1.0000 0.2522842166
C   C36       1.0  0.22903  0.57057  0.64743  1.0000 -0.1600790592
C   C37       1.0  0.10108  0.52872  0.65144  1.0000 -0.1396589289
C   C38       1.0  0.08619  0.59421  0.59857  1.0000 0.1611501006
C   C39       1.0  0.19733  0.70087  0.54256  1.0000 0.0162228345
C   C40       1.0  0.32660  0.74160  0.53933  1.0000 -0.2280629399
C   C41       1.0  0.13929  0.73811  0.49728  1.0000 0.0100637306
C   C42       1.0  0.99532  0.65028  0.52861  1.0000 0.1095579909
C   C43       1.0  0.90017  0.65063  0.49741  1.0000 0.187399338
C   C44       1.0  0.95331  0.74229  0.43405  1.0000 -0.1851913305
C   C45       1.0  0.09573  0.83047  0.40254  1.0000 -0.0787364292
C   C46       1.0  0.19022  0.82998  0.43318  1.0000 -0.1396589289
C   C47       1.0  0.75815  0.58945  0.58826  1.0000 0.401673722
C   C48       1.0  0.58612  0.47388  0.61320  1.0000 0.4799912748
C   C49       1.0  0.78194  0.68706  0.86934  1.0000 0.4799912748
C   C50       1.0  0.76290  0.56730  0.85812  1.0000 0.3769269166
C   C51       1.0  0.67541  0.34059  0.90808  1.0000 0.2522842166
C   C52       1.0  0.57057  0.22903  0.85257  1.0000 -0.1600790592
C   C53       1.0  0.52872  0.10108  0.84856  1.0000 -0.1396589289
C   C54       1.0  0.59421  0.08619  0.90143  1.0000 0.1611501006
C   C55       1.0  0.70087  0.19733  0.95744  1.0000 0.0162228345
C   C56       1.0  0.74160  0.32660  0.96067  1.0000 -0.2280629399
C   C57       1.0  0.73811  0.13929  0.00272  1.0000 0.0100637306
C   C58       1.0  0.65028  0.99532  0.97139  1.0000 0.1095579909
C   C59       1.0  0.65063  0.90017  0.00259  1.0000 0.187399338
C   C60       1.0  0.74229  0.95331  0.06595  1.0000 -0.1846604618
C   C61       1.0  0.83047  0.09573  0.09746  1.0000 -0.0787364292
C   C62       1.0  0.82998  0.19022  0.06682  1.0000 -0.1396589289
C   C63       1.0  0.58945  0.75815  0.91174  1.0000 0.401673722
C   C64       1.0  0.47388  0.58612  0.88680  1.0000 0.4799912748
N   N1        1.0  0.53644  0.29516  0.41226  1.0000 -0.4504129213
N   N2        1.0  0.03456  0.43424  0.41022  1.0000 -0.3711805167
N   N3        1.0  0.25150  0.44910  0.47274  1.0000 -0.4301746311
N   N4        1.0  0.29516  0.53644  0.08774  1.0000 -0.4504129213
N   N5        1.0  0.43424  0.03456  0.08978  1.0000 -0.3711805167
N   N6        1.0  0.44910  0.25150  0.02726  1.0000 -0.4301746311
N   N7        1.0  0.46356  0.70484  0.58774  1.0000 -0.4504129213
N   N8        1.0  0.96544  0.56576  0.58978  1.0000 -0.3711805167
N   N9        1.0  0.74850  0.55090  0.52726  1.0000 -0.4301746311
N   N10       1.0  0.70484  0.46356  0.91226  1.0000 -0.4504129213
N   N11       1.0  0.56576  0.96544  0.91022  1.0000 -0.3711805167
N   N12       1.0  0.55090  0.74850  0.97274  1.0000 -0.4301746311
O   O1        1.0  0.31789  0.25011  0.42792  1.0000 -0.4301746311
O   O2        1.0  0.21786  0.17214  0.31646  1.0000 -0.5251888158
O   O3        1.0  0.41895  0.19485  0.29946  1.0000 -0.4694325487
O   O4        1.0  0.10975  0.29045  0.37377  1.0000 -0.4504129213
O   O5        1.0  0.41660  0.50500  0.32676  1.0000 -0.4694325487
O   O6        1.0  0.54144  0.63356  0.42939  1.0000 -0.4504129213
O   O7        1.0  0.25011  0.31789  0.07208  1.0000 -0.4301746311
O   O8        1.0  0.17214  0.21786  0.18354  1.0000 -0.5251888158
O   O9        1.0  0.19485  0.41895  0.20054  1.0000 -0.4694325487
O   O10       1.0  0.29045  0.10975  0.12623  1.0000 -0.4504129213
O   O11       1.0  0.50500  0.41660  0.17324  1.0000 -0.4694325487
O   O12       1.0  0.63356  0.54144  0.07061  1.0000 -0.4504129213
O   O13       1.0  0.68211  0.74989  0.57208  1.0000 -0.4301746311
O   O14       1.0  0.78214  0.82786  0.68354  1.0000 -0.5246015313
O   O15       1.0  0.58105  0.80515  0.70054  1.0000 -0.4694325487
O   O16       1.0  0.89025  0.70955  0.62623  1.0000 -0.4504129213
O   O17       1.0  0.58340  0.49500  0.67324  1.0000 -0.4694325487
O   O18       1.0  0.45856  0.36644  0.57061  1.0000 -0.4504129213
O   O19       1.0  0.74989  0.68211  0.92792  1.0000 -0.4301746311
O   O20       1.0  0.82786  0.78214  0.81646  1.0000 -0.5246015313
O   O21       1.0  0.80515  0.58105  0.79946  1.0000 -0.4694325487
O   O22       1.0  0.70955  0.89025  0.87377  1.0000 -0.4504129213
O   O23       1.0  0.49500  0.58340  0.82676  1.0000 -0.4694325487
O   O24       1.0  0.36644  0.45856  0.92939  1.0000 -0.4504129213
