# DDEC6 charges by PACMAN v1.1 (https://github.com/mtap-research/PACMAN-charge/)
data_2022[Tb][sql]2[ASR]1
_chemical_formula_sum              "Tb4 H72 C80 N8 Cl4 O16"
_cell_length_a       13.2461
_cell_length_b       13.3858
_cell_length_c       16.7218
_cell_angle_alpha    90
_cell_angle_beta     118.756
_cell_angle_gamma    90

_symmetry_space_group_name_H-M    "P 1"
_symmetry_Int_Tables_number       1

loop_
  _symmetry_equiv_pos_as_xyz
  'x, y, z'

loop_
  _atom_site_type_symbol
  _atom_site_label
  _atom_site_symmetry_multiplicity
  _atom_site_fract_x
  _atom_site_fract_y
  _atom_site_fract_z
  _atom_site_occupancy
  _atom_site_charge
Tb  Tb1       1.0  0.83721  0.53177  0.43367  1.0000 1.9157762548
Tb  Tb2       1.0  0.16279  0.03177  0.06633  1.0000 1.9157762548
Tb  Tb3       1.0  0.16279  0.46823  0.56633  1.0000 1.9157762548
Tb  Tb4       1.0  0.83721  0.96823  0.93367  1.0000 1.9157762548
H   H1        1.0  0.87171  0.23035  0.30111  1.0000 0.1013925319
H   H2        1.0  0.10401  0.23516  0.33333  1.0000 0.1013925319
H   H3        1.0  0.05596  0.15949  0.38151  1.0000 0.1013925319
H   H4        1.0  0.93138  0.08233  0.23850  1.0000 0.1013925319
H   H5        1.0  0.05940  0.08075  0.25140  1.0000 0.120072412
H   H6        1.0  0.02228  0.21789  0.16022  1.0000 0.120072412
H   H7        1.0  0.84059  0.29524  0.08589  1.0000 0.1013925319
H   H8        1.0  0.79050  0.22017  0.13299  1.0000 0.0874869135
H   H9        1.0  0.83935  0.37304  0.21636  1.0000 0.109172879
H   H10       1.0  0.96752  0.36819  0.22975  1.0000 0.109172879
H   H11       1.0  0.75227  0.71893  0.52685  1.0000 0.109172879
H   H12       1.0  0.60032  0.77969  0.54995  1.0000 0.1366819561
H   H13       1.0  0.42828  0.69838  0.48390  1.0000 0.1297019005
H   H14       1.0  0.30337  0.55708  0.38567  1.0000 0.1366819561
H   H15       1.0  0.28007  0.42824  0.29467  1.0000 0.1297019005
H   H16       1.0  0.36445  0.30843  0.22713  1.0000 0.1366819561
H   H17       1.0  0.51808  0.25596  0.20930  1.0000 0.1297019005
H   H18       1.0  0.69387  0.34115  0.28545  1.0000 0.109172879
H   H19       1.0  0.12829  0.73035  0.19889  1.0000 0.1013925319
H   H20       1.0  0.89599  0.73516  0.16667  1.0000 0.1013925319
H   H21       1.0  0.94404  0.65949  0.11849  1.0000 0.1013925319
H   H22       1.0  0.06862  0.58233  0.26150  1.0000 0.1013925319
H   H23       1.0  0.94060  0.58075  0.24860  1.0000 0.120072412
H   H24       1.0  0.97772  0.71789  0.33978  1.0000 0.120072412
H   H25       1.0  0.15941  0.79524  0.41411  1.0000 0.1013925319
H   H26       1.0  0.20950  0.72017  0.36701  1.0000 0.0874869135
H   H27       1.0  0.16065  0.87304  0.28364  1.0000 0.109172879
H   H28       1.0  0.03248  0.86819  0.27025  1.0000 0.109172879
H   H29       1.0  0.24773  0.21893  0.97315  1.0000 0.109172879
H   H30       1.0  0.39968  0.27969  0.95005  1.0000 0.1366819561
H   H31       1.0  0.57172  0.19838  0.01610  1.0000 0.1297019005
H   H32       1.0  0.69663  0.05708  0.11433  1.0000 0.1366819561
H   H33       1.0  0.71993  0.92824  0.20533  1.0000 0.1297019005
H   H34       1.0  0.63555  0.80843  0.27287  1.0000 0.1366819561
H   H35       1.0  0.48192  0.75596  0.29070  1.0000 0.1297019005
H   H36       1.0  0.30613  0.84115  0.21455  1.0000 0.109172879
H   H37       1.0  0.12829  0.76965  0.69889  1.0000 0.1013925319
H   H38       1.0  0.89599  0.76484  0.66667  1.0000 0.1013925319
H   H39       1.0  0.94404  0.84051  0.61849  1.0000 0.1013925319
H   H40       1.0  0.06862  0.91767  0.76150  1.0000 0.1013925319
H   H41       1.0  0.94060  0.91925  0.74860  1.0000 0.120072412
H   H42       1.0  0.97772  0.78211  0.83978  1.0000 0.120072412
H   H43       1.0  0.15941  0.70476  0.91411  1.0000 0.1013925319
H   H44       1.0  0.20950  0.77983  0.86701  1.0000 0.0874869135
H   H45       1.0  0.16065  0.62696  0.78364  1.0000 0.109172879
H   H46       1.0  0.03248  0.63181  0.77025  1.0000 0.109172879
H   H47       1.0  0.24773  0.28107  0.47315  1.0000 0.109172879
H   H48       1.0  0.39968  0.22031  0.45005  1.0000 0.1366819561
H   H49       1.0  0.57172  0.30162  0.51610  1.0000 0.1297019005
H   H50       1.0  0.69663  0.44292  0.61433  1.0000 0.1366819561
H   H51       1.0  0.71993  0.57176  0.70533  1.0000 0.1297019005
H   H52       1.0  0.63555  0.69157  0.77287  1.0000 0.1366819561
H   H53       1.0  0.48192  0.74404  0.79070  1.0000 0.1297019005
H   H54       1.0  0.30613  0.65885  0.71455  1.0000 0.109172879
H   H55       1.0  0.87171  0.26965  0.80111  1.0000 0.1013925319
H   H56       1.0  0.10401  0.26484  0.83333  1.0000 0.1013925319
H   H57       1.0  0.05596  0.34051  0.88151  1.0000 0.1013925319
H   H58       1.0  0.93138  0.41767  0.73850  1.0000 0.1013925319
H   H59       1.0  0.05940  0.41925  0.75140  1.0000 0.120072412
H   H60       1.0  0.02228  0.28211  0.66022  1.0000 0.120072412
H   H61       1.0  0.84059  0.20476  0.58589  1.0000 0.1013925319
H   H62       1.0  0.79050  0.27983  0.63299  1.0000 0.0874869135
H   H63       1.0  0.83935  0.12696  0.71636  1.0000 0.109172879
H   H64       1.0  0.96752  0.13181  0.72975  1.0000 0.109172879
H   H65       1.0  0.75227  0.78107  0.02685  1.0000 0.109172879
H   H66       1.0  0.60032  0.72031  0.04995  1.0000 0.1366819561
H   H67       1.0  0.42828  0.80162  0.98390  1.0000 0.1297019005
H   H68       1.0  0.30337  0.94292  0.88567  1.0000 0.1366819561
H   H69       1.0  0.28007  0.07176  0.79467  1.0000 0.1297019005
H   H70       1.0  0.36445  0.19157  0.72713  1.0000 0.1366819561
H   H71       1.0  0.51808  0.24404  0.70930  1.0000 0.1297019005
H   H72       1.0  0.69387  0.15885  0.78545  1.0000 0.109172879
C   C1        1.0  0.96810  0.34630  0.38380  1.0000 0.6612075588
C   C2        1.0  0.93920  0.27020  0.30790  1.0000 -0.1289361503
C   C3        1.0  0.03510  0.19790  0.32510  1.0000 -0.1724098714
C   C4        1.0  0.99480  0.12480  0.24240  1.0000 -0.1773807144
C   C5        1.0  0.95530  0.18090  0.15790  1.0000 -0.1289361503
C   C6        1.0  0.86040  0.25610  0.14170  1.0000 -0.1724098714
C   C7        1.0  0.90250  0.32730  0.22490  1.0000 -0.1773807144
C   C8        1.0  0.91540  0.10430  0.08320  1.0000 0.6351883581
C   C9        1.0  0.68030  0.68510  0.49880  1.0000 0.120072412
C   C10       1.0  0.58930  0.72230  0.51320  1.0000 -0.1289361503
C   C11       1.0  0.48930  0.67520  0.47420  1.0000 -0.0942964236
C   C12       1.0  0.47230  0.59270  0.41950  1.0000 0.0372671002
C   C13       1.0  0.56630  0.55860  0.40850  1.0000 0.1297019005
C   C14       1.0  0.36560  0.53720  0.37610  1.0000 -0.1420659291
C   C15       1.0  0.35270  0.46080  0.32420  1.0000 -0.1215126457
C   C16       1.0  0.44500  0.42350  0.30990  1.0000 0.0372671002
C   C17       1.0  0.55140  0.47380  0.35270  1.0000 0.120072412
C   C18       1.0  0.43560  0.34330  0.25720  1.0000 -0.076962618
C   C19       1.0  0.52560  0.31190  0.24670  1.0000 -0.1470657567
C   C20       1.0  0.63030  0.36370  0.29210  1.0000 0.109172879
C   C21       1.0  0.03190  0.84630  0.11620  1.0000 0.6612075588
C   C22       1.0  0.06080  0.77020  0.19210  1.0000 -0.1289361503
C   C23       1.0  0.96490  0.69790  0.17490  1.0000 -0.1724098714
C   C24       1.0  0.00520  0.62480  0.25760  1.0000 -0.1773807144
C   C25       1.0  0.04470  0.68090  0.34210  1.0000 -0.1289361503
C   C26       1.0  0.13960  0.75610  0.35830  1.0000 -0.1724098714
C   C27       1.0  0.09750  0.82730  0.27510  1.0000 -0.1773807144
C   C28       1.0  0.08460  0.60430  0.41680  1.0000 0.6351883581
C   C29       1.0  0.31970  0.18510  0.00120  1.0000 0.120072412
C   C30       1.0  0.41070  0.22230  0.98680  1.0000 -0.1289361503
C   C31       1.0  0.51070  0.17520  0.02580  1.0000 -0.0942964236
C   C32       1.0  0.52770  0.09270  0.08050  1.0000 0.0372671002
C   C33       1.0  0.43370  0.05860  0.09150  1.0000 0.1297019005
C   C34       1.0  0.63440  0.03720  0.12390  1.0000 -0.1420659291
C   C35       1.0  0.64730  0.96080  0.17580  1.0000 -0.1215126457
C   C36       1.0  0.55500  0.92350  0.19010  1.0000 0.0372671002
C   C37       1.0  0.44860  0.97380  0.14730  1.0000 0.120072412
C   C38       1.0  0.56440  0.84330  0.24280  1.0000 -0.076962618
C   C39       1.0  0.47440  0.81190  0.25330  1.0000 -0.1470657567
C   C40       1.0  0.36970  0.86370  0.20790  1.0000 0.109172879
C   C41       1.0  0.03190  0.65370  0.61620  1.0000 0.6612075588
C   C42       1.0  0.06080  0.72980  0.69210  1.0000 -0.1289361503
C   C43       1.0  0.96490  0.80210  0.67490  1.0000 -0.1724098714
C   C44       1.0  0.00520  0.87520  0.75760  1.0000 -0.1773807144
C   C45       1.0  0.04470  0.81910  0.84210  1.0000 -0.1289361503
C   C46       1.0  0.13960  0.74390  0.85830  1.0000 -0.1724098714
C   C47       1.0  0.09750  0.67270  0.77510  1.0000 -0.1773807144
C   C48       1.0  0.08460  0.89570  0.91680  1.0000 0.6351883581
C   C49       1.0  0.31970  0.31490  0.50120  1.0000 0.120072412
C   C50       1.0  0.41070  0.27770  0.48680  1.0000 -0.1289361503
C   C51       1.0  0.51070  0.32480  0.52580  1.0000 -0.0942964236
C   C52       1.0  0.52770  0.40730  0.58050  1.0000 0.0372671002
C   C53       1.0  0.43370  0.44140  0.59150  1.0000 0.1297019005
C   C54       1.0  0.63440  0.46280  0.62390  1.0000 -0.1420659291
C   C55       1.0  0.64730  0.53920  0.67580  1.0000 -0.1215126457
C   C56       1.0  0.55500  0.57650  0.69010  1.0000 0.0372671002
C   C57       1.0  0.44860  0.52620  0.64730  1.0000 0.120072412
C   C58       1.0  0.56440  0.65670  0.74280  1.0000 -0.076962618
C   C59       1.0  0.47440  0.68810  0.75330  1.0000 -0.1470657567
C   C60       1.0  0.36970  0.63630  0.70790  1.0000 0.109172879
C   C61       1.0  0.96810  0.15370  0.88380  1.0000 0.6612075588
C   C62       1.0  0.93920  0.22980  0.80790  1.0000 -0.1289361503
C   C63       1.0  0.03510  0.30210  0.82510  1.0000 -0.1724098714
C   C64       1.0  0.99480  0.37520  0.74240  1.0000 -0.1773807144
C   C65       1.0  0.95530  0.31910  0.65790  1.0000 -0.1289361503
C   C66       1.0  0.86040  0.24390  0.64170  1.0000 -0.1724098714
C   C67       1.0  0.90250  0.17270  0.72490  1.0000 -0.1773807144
C   C68       1.0  0.91540  0.39570  0.58320  1.0000 0.6351883581
C   C69       1.0  0.68030  0.81490  0.99880  1.0000 0.120072412
C   C70       1.0  0.58930  0.77770  0.01320  1.0000 -0.1289361503
C   C71       1.0  0.48930  0.82480  0.97420  1.0000 -0.0942964236
C   C72       1.0  0.47230  0.90730  0.91950  1.0000 0.0372671002
C   C73       1.0  0.56630  0.94140  0.90850  1.0000 0.1297019005
C   C74       1.0  0.36560  0.96280  0.87610  1.0000 -0.1420659291
C   C75       1.0  0.35270  0.03920  0.82420  1.0000 -0.1215126457
C   C76       1.0  0.44500  0.07650  0.80990  1.0000 0.0372671002
C   C77       1.0  0.55140  0.02620  0.85270  1.0000 0.120072412
C   C78       1.0  0.43560  0.15670  0.75720  1.0000 -0.076962618
C   C79       1.0  0.52560  0.18810  0.74670  1.0000 -0.1470657567
C   C80       1.0  0.63030  0.13630  0.79210  1.0000 0.109172879
N   N1        1.0  0.66900  0.60670  0.44900  1.0000 -0.3521974067
N   N2        1.0  0.64390  0.44310  0.34410  1.0000 -0.360727636
N   N3        1.0  0.33100  0.10670  0.05100  1.0000 -0.3521974067
N   N4        1.0  0.35610  0.94310  0.15590  1.0000 -0.360727636
N   N5        1.0  0.33100  0.39330  0.55100  1.0000 -0.3521974067
N   N6        1.0  0.35610  0.55690  0.65590  1.0000 -0.360727636
N   N7        1.0  0.66900  0.89330  0.94900  1.0000 -0.3521974067
N   N8        1.0  0.64390  0.05690  0.84410  1.0000 -0.360727636
Cl  Cl1       1.0  0.74430  0.63530  0.27987  1.0000 -0.7483656088
Cl  Cl2       1.0  0.25570  0.13530  0.22013  1.0000 -0.7483656088
Cl  Cl3       1.0  0.25570  0.36470  0.72013  1.0000 -0.7483656088
Cl  Cl4       1.0  0.74430  0.86470  0.77987  1.0000 -0.7483656088
O   O1        1.0  0.88090  0.39240  0.37940  1.0000 -0.6939852366
O   O2        1.0  0.07060  0.35860  0.44530  1.0000 -0.6555922905
O   O3        1.0  0.99020  0.06480  0.06350  1.0000 -0.7483656088
O   O4        1.0  0.81230  0.07860  0.03790  1.0000 -0.6088582257
O   O5        1.0  0.11910  0.89240  0.12060  1.0000 -0.6939852366
O   O6        1.0  0.92940  0.85860  0.05470  1.0000 -0.6555922905
O   O7        1.0  0.00980  0.56480  0.43650  1.0000 -0.7483656088
O   O8        1.0  0.18770  0.57860  0.46210  1.0000 -0.6088582257
O   O9        1.0  0.11910  0.60760  0.62060  1.0000 -0.6939852366
O   O10       1.0  0.92940  0.64140  0.55470  1.0000 -0.6555922905
O   O11       1.0  0.00980  0.93520  0.93650  1.0000 -0.7483656088
O   O12       1.0  0.18770  0.92140  0.96210  1.0000 -0.6088582257
O   O13       1.0  0.88090  0.10760  0.87940  1.0000 -0.6939852366
O   O14       1.0  0.07060  0.14140  0.94530  1.0000 -0.6547060887
O   O15       1.0  0.99020  0.43520  0.56350  1.0000 -0.7483656088
O   O16       1.0  0.81230  0.42140  0.53790  1.0000 -0.6088582257
