# DDEC6 charges by PACMAN v1.1 (https://github.com/mtap-research/PACMAN-charge/)
data_2022[Eu][hcb]2[ASR]3
_chemical_formula_sum              "Eu4 H64 C144 N16 Cl24 O24"
_cell_length_a       8.579
_cell_length_b       33.629
_cell_length_c       15.2808
_cell_angle_alpha    90
_cell_angle_beta     118.994
_cell_angle_gamma    90

_symmetry_space_group_name_H-M    "P 1"
_symmetry_Int_Tables_number       1

loop_
  _symmetry_equiv_pos_as_xyz
  'x, y, z'

loop_
  _atom_site_type_symbol
  _atom_site_label
  _atom_site_symmetry_multiplicity
  _atom_site_fract_x
  _atom_site_fract_y
  _atom_site_fract_z
  _atom_site_occupancy
  _atom_site_charge
Eu  Eu1       1.0  0.73797  0.36901  0.28188  1.0000 1.8555358022
Eu  Eu2       1.0  0.26203  0.86901  0.21812  1.0000 1.8555358022
Eu  Eu3       1.0  0.26203  0.63099  0.71812  1.0000 1.8555358022
Eu  Eu4       1.0  0.73797  0.13099  0.78188  1.0000 1.8555358022
H   H1        1.0  0.53989  0.41156  0.41241  1.0000 0.1025582453
H   H2        1.0  0.17506  0.34462  0.36027  1.0000 0.1094696869
H   H3        1.0  0.41348  0.39704  0.75338  1.0000 0.120791188
H   H4        1.0  0.52127  0.36417  0.64499  1.0000 0.120791188
H   H5        1.0  0.18636  0.42279  0.77076  1.0000 0.1283254958
H   H6        1.0  0.86129  0.44067  0.69538  1.0000 0.1283254958
H   H7        1.0  0.58423  0.44066  0.55890  1.0000 0.1094696869
H   H8        1.0  0.73125  0.27160  0.21182  1.0000 0.1025582453
H   H9        1.0  0.45971  0.34030  0.49123  1.0000 0.1391735941
H   H10       1.0  0.48940  0.45016  0.14140  1.0000 0.1094696869
H   H11       1.0  0.56718  0.22228  0.10001  1.0000 0.1283254958
H   H12       1.0  0.97870  0.35237  0.84201  1.0000 0.120791188
H   H13       1.0  0.30089  0.23732  0.96432  1.0000 0.120791188
H   H14       1.0  0.22205  0.46992  0.00911  1.0000 0.1475013464
H   H15       1.0  0.03583  0.42364  0.89789  1.0000 0.1283254958
H   H16       1.0  0.06969  0.28870  0.86394  1.0000 0.120791188
H   H17       1.0  0.46011  0.91156  0.08759  1.0000 0.1025582453
H   H18       1.0  0.82494  0.84462  0.13973  1.0000 0.1094696869
H   H19       1.0  0.58652  0.89704  0.74662  1.0000 0.120791188
H   H20       1.0  0.47873  0.86417  0.85501  1.0000 0.120791188
H   H21       1.0  0.81364  0.92279  0.72924  1.0000 0.1283254958
H   H22       1.0  0.13871  0.94067  0.80462  1.0000 0.1283254958
H   H23       1.0  0.41577  0.94066  0.94110  1.0000 0.1094696869
H   H24       1.0  0.26875  0.77160  0.28818  1.0000 0.1025582453
H   H25       1.0  0.54029  0.84030  0.00877  1.0000 0.1391735941
H   H26       1.0  0.51060  0.95016  0.35860  1.0000 0.1094696869
H   H27       1.0  0.43282  0.72228  0.39999  1.0000 0.1283254958
H   H28       1.0  0.02130  0.85237  0.65799  1.0000 0.120791188
H   H29       1.0  0.69911  0.73732  0.53568  1.0000 0.120791188
H   H30       1.0  0.77795  0.96992  0.49089  1.0000 0.1475013464
H   H31       1.0  0.96417  0.92364  0.60211  1.0000 0.1283254958
H   H32       1.0  0.93031  0.78870  0.63606  1.0000 0.120791188
H   H33       1.0  0.46011  0.58844  0.58759  1.0000 0.1025582453
H   H34       1.0  0.82494  0.65538  0.63973  1.0000 0.1094696869
H   H35       1.0  0.58652  0.60296  0.24662  1.0000 0.120791188
H   H36       1.0  0.47873  0.63583  0.35501  1.0000 0.120791188
H   H37       1.0  0.81364  0.57721  0.22924  1.0000 0.1283254958
H   H38       1.0  0.13871  0.55933  0.30462  1.0000 0.1283254958
H   H39       1.0  0.41577  0.55934  0.44110  1.0000 0.1094696869
H   H40       1.0  0.26875  0.72840  0.78818  1.0000 0.1025582453
H   H41       1.0  0.54029  0.65970  0.50877  1.0000 0.1391735941
H   H42       1.0  0.51060  0.54984  0.85860  1.0000 0.1094696869
H   H43       1.0  0.43282  0.77772  0.89999  1.0000 0.1283254958
H   H44       1.0  0.02130  0.64763  0.15799  1.0000 0.120791188
H   H45       1.0  0.69911  0.76268  0.03568  1.0000 0.120791188
H   H46       1.0  0.77795  0.53008  0.99089  1.0000 0.1475013464
H   H47       1.0  0.96417  0.57636  0.10211  1.0000 0.1283254958
H   H48       1.0  0.93031  0.71130  0.13606  1.0000 0.120791188
H   H49       1.0  0.53989  0.08844  0.91241  1.0000 0.1025582453
H   H50       1.0  0.17506  0.15538  0.86027  1.0000 0.1094696869
H   H51       1.0  0.41348  0.10296  0.25338  1.0000 0.120791188
H   H52       1.0  0.52127  0.13583  0.14499  1.0000 0.120791188
H   H53       1.0  0.18636  0.07721  0.27076  1.0000 0.1283254958
H   H54       1.0  0.86129  0.05933  0.19538  1.0000 0.1283254958
H   H55       1.0  0.58423  0.05934  0.05890  1.0000 0.1094696869
H   H56       1.0  0.73125  0.22840  0.71182  1.0000 0.1025582453
H   H57       1.0  0.45971  0.15970  0.99123  1.0000 0.1391735941
H   H58       1.0  0.48940  0.04984  0.64140  1.0000 0.1094696869
H   H59       1.0  0.56718  0.27772  0.60001  1.0000 0.1283254958
H   H60       1.0  0.97870  0.14763  0.34201  1.0000 0.120791188
H   H61       1.0  0.30089  0.26268  0.46432  1.0000 0.1283254958
H   H62       1.0  0.22205  0.03008  0.50911  1.0000 0.1475013464
H   H63       1.0  0.03583  0.07636  0.39789  1.0000 0.1283254958
H   H64       1.0  0.06969  0.21130  0.36394  1.0000 0.120791188
C   C1        1.0  0.09720  0.38230  0.52260  1.0000 0.120791188
C   C2        1.0  0.10380  0.48383  0.46310  1.0000 0.0433051633
C   C3        1.0  0.92120  0.48601  0.40150  1.0000 -0.1181079068
C   C4        1.0  0.98150  0.35373  0.15220  1.0000 0.6218420386
C   C5        1.0  0.98820  0.41328  0.62810  1.0000 0.0505558518
C   C6        1.0  0.95150  0.39723  0.53450  1.0000 0.1283254958
C   C7        1.0  0.91710  0.31732  0.08530  1.0000 -0.1181079068
C   C8        1.0  0.77690  0.31956  0.98870  1.0000 0.0505558518
C   C9        1.0  0.26870  0.38153  0.60550  1.0000 0.0433051633
C   C10       1.0  0.83570  0.47098  0.29390  1.0000 0.6218420386
C   C11       1.0  0.99730  0.28051  0.12090  1.0000 0.0433051633
C   C12       1.0  0.81680  0.50259  0.43870  1.0000 0.0553793057
C   C13       1.0  0.71350  0.28579  0.93090  1.0000 0.0505558518
C   C14       1.0  0.65470  0.41208  0.46650  1.0000 0.0905299082
C   C15       1.0  0.19740  0.35390  0.42260  1.0000 0.1094696869
C   C16       1.0  0.29900  0.39729  0.69890  1.0000 -0.1477248513
C   C17       1.0  0.40570  0.36533  0.59170  1.0000 -0.0952440307
C   C18       1.0  0.93030  0.24665  0.06200  1.0000 0.0505558518
C   C19       1.0  0.78810  0.24880  0.96660  1.0000 -0.1087000624
C   C20       1.0  0.70430  0.21086  0.90760  1.0000 0.6057972878
C   C21       1.0  0.16380  0.41254  0.70920  1.0000 -0.1284151657
C   C22       1.0  0.84350  0.42969  0.63540  1.0000 -0.0829588951
C   C23       1.0  0.35940  0.36580  0.04690  1.0000 0.1283254958
C   C24       1.0  0.41310  0.32506  0.06270  1.0000 0.1283254958
C   C25       1.0  0.67990  0.42940  0.55520  1.0000 -0.1420653586
C   C26       1.0  0.62280  0.27820  0.15670  1.0000 0.1025582453
C   C27       1.0  0.36990  0.35139  0.50090  1.0000 -0.1284151657
C   C28       1.0  0.41530  0.43093  0.09700  1.0000 0.120791188
C   C29       1.0  0.19510  0.37617  0.96310  1.0000 0.0505558518
C   C30       1.0  0.52450  0.24825  0.08940  1.0000 -0.1284151657
C   C31       1.0  0.30600  0.29608  0.99350  1.0000 0.0505558518
C   C32       1.0  0.08810  0.34573  0.89630  1.0000 -0.1420653586
C   C33       1.0  0.36790  0.25717  0.00930  1.0000 -0.0731757109
C   C34       1.0  0.25400  0.44320  0.01700  1.0000 -0.1181079068
C   C35       1.0  0.14460  0.41588  0.95110  1.0000 -0.0829588951
C   C36       1.0  0.14140  0.30780  0.90990  1.0000 -0.1284151657
C   C37       1.0  0.90280  0.88230  0.97740  1.0000 0.120791188
C   C38       1.0  0.89620  0.98383  0.03690  1.0000 0.0433051633
C   C39       1.0  0.07880  0.98601  0.09850  1.0000 -0.1181079068
C   C40       1.0  0.01850  0.85373  0.34780  1.0000 0.6218420386
C   C41       1.0  0.01180  0.91328  0.87190  1.0000 0.0505558518
C   C42       1.0  0.04850  0.89723  0.96550  1.0000 0.1283254958
C   C43       1.0  0.08290  0.81732  0.41470  1.0000 -0.1181079068
C   C44       1.0  0.22310  0.81956  0.51130  1.0000 0.0505558518
C   C45       1.0  0.73130  0.88153  0.89450  1.0000 0.0433051633
C   C46       1.0  0.16430  0.97098  0.20610  1.0000 0.6218420386
C   C47       1.0  0.00270  0.78051  0.37910  1.0000 0.0433051633
C   C48       1.0  0.18320  0.00259  0.06130  1.0000 0.0553793057
C   C49       1.0  0.28650  0.78579  0.56910  1.0000 0.0505558518
C   C50       1.0  0.34530  0.91208  0.03350  1.0000 0.0905299082
C   C51       1.0  0.80260  0.85390  0.07740  1.0000 0.1094696869
C   C52       1.0  0.70100  0.89729  0.80110  1.0000 -0.1477248513
C   C53       1.0  0.59430  0.86533  0.90830  1.0000 -0.0946897373
C   C54       1.0  0.06970  0.74665  0.43800  1.0000 0.0505558518
C   C55       1.0  0.21190  0.74880  0.53340  1.0000 -0.1087000624
C   C56       1.0  0.29570  0.71086  0.59240  1.0000 0.6057972878
C   C57       1.0  0.83620  0.91254  0.79080  1.0000 -0.1284151657
C   C58       1.0  0.15650  0.92969  0.86460  1.0000 -0.0829588951
C   C59       1.0  0.64060  0.86580  0.45310  1.0000 0.1283254958
C   C60       1.0  0.58690  0.82506  0.43730  1.0000 0.1283254958
C   C61       1.0  0.32010  0.92940  0.94480  1.0000 -0.1420653586
C   C62       1.0  0.37720  0.77820  0.34330  1.0000 0.1025582453
C   C63       1.0  0.63010  0.85139  0.99910  1.0000 -0.1284151657
C   C64       1.0  0.58470  0.93093  0.40300  1.0000 0.120791188
C   C65       1.0  0.80490  0.87617  0.53690  1.0000 0.0505558518
C   C66       1.0  0.47550  0.74825  0.41060  1.0000 -0.1284151657
C   C67       1.0  0.69400  0.79608  0.50650  1.0000 0.0505558518
C   C68       1.0  0.91190  0.84573  0.60370  1.0000 -0.1420653586
C   C69       1.0  0.63210  0.75717  0.49070  1.0000 -0.0731757109
C   C70       1.0  0.74600  0.94320  0.48300  1.0000 -0.1181079068
C   C71       1.0  0.85540  0.91588  0.54890  1.0000 -0.0829588951
C   C72       1.0  0.85860  0.80780  0.59010  1.0000 -0.1284151657
C   C73       1.0  0.90280  0.61770  0.47740  1.0000 0.120791188
C   C74       1.0  0.89620  0.51617  0.53690  1.0000 0.0433051633
C   C75       1.0  0.07880  0.51399  0.59850  1.0000 -0.1181079068
C   C76       1.0  0.01850  0.64627  0.84780  1.0000 0.6218420386
C   C77       1.0  0.01180  0.58672  0.37190  1.0000 0.0505558518
C   C78       1.0  0.04850  0.60277  0.46550  1.0000 0.1283254958
C   C79       1.0  0.08290  0.68268  0.91470  1.0000 -0.1181079068
C   C80       1.0  0.22310  0.68044  0.01130  1.0000 0.0505558518
C   C81       1.0  0.73130  0.61847  0.39450  1.0000 0.0433051633
C   C82       1.0  0.16430  0.52902  0.70610  1.0000 0.6218420386
C   C83       1.0  0.00270  0.71949  0.87910  1.0000 0.0433051633
C   C84       1.0  0.18320  0.49741  0.56130  1.0000 0.0553793057
C   C85       1.0  0.28650  0.71421  0.06910  1.0000 0.0505558518
C   C86       1.0  0.34530  0.58792  0.53350  1.0000 0.0905299082
C   C87       1.0  0.80260  0.64610  0.57740  1.0000 0.1094696869
C   C88       1.0  0.70100  0.60271  0.30110  1.0000 -0.1477248513
C   C89       1.0  0.59430  0.63467  0.40830  1.0000 -0.0952440307
C   C90       1.0  0.06970  0.75335  0.93800  1.0000 0.0505558518
C   C91       1.0  0.21190  0.75120  0.03340  1.0000 -0.1087000624
C   C92       1.0  0.29570  0.78914  0.09240  1.0000 0.6057972878
C   C93       1.0  0.83620  0.58746  0.29080  1.0000 -0.1284151657
C   C94       1.0  0.15650  0.57031  0.36460  1.0000 -0.0829588951
C   C95       1.0  0.64060  0.63420  0.95310  1.0000 0.1283254958
C   C96       1.0  0.58690  0.67494  0.93730  1.0000 0.1283254958
C   C97       1.0  0.32010  0.57060  0.44480  1.0000 -0.1420653586
C   C98       1.0  0.37720  0.72180  0.84330  1.0000 0.1025582453
C   C99       1.0  0.63010  0.64861  0.49910  1.0000 -0.1284151657
C   C100      1.0  0.58470  0.56907  0.90300  1.0000 0.120791188
C   C101      1.0  0.80490  0.62383  0.03690  1.0000 0.0505558518
C   C102      1.0  0.47550  0.75175  0.91060  1.0000 -0.1284151657
C   C103      1.0  0.69400  0.70392  0.00650  1.0000 0.0505558518
C   C104      1.0  0.91190  0.65427  0.10370  1.0000 -0.1420653586
C   C105      1.0  0.63210  0.74283  0.99070  1.0000 -0.0731757109
C   C106      1.0  0.74600  0.55680  0.98300  1.0000 -0.1181079068
C   C107      1.0  0.85540  0.58412  0.04890  1.0000 -0.0829588951
C   C108      1.0  0.85860  0.69220  0.09010  1.0000 -0.1284151657
C   C109      1.0  0.09720  0.11770  0.02260  1.0000 0.120791188
C   C110      1.0  0.10380  0.01617  0.96310  1.0000 0.0433051633
C   C111      1.0  0.92120  0.01399  0.90150  1.0000 -0.1181079068
C   C112      1.0  0.98150  0.14627  0.65220  1.0000 0.6218420386
C   C113      1.0  0.98820  0.08672  0.12810  1.0000 0.0505558518
C   C114      1.0  0.95150  0.10277  0.03450  1.0000 0.1283254958
C   C115      1.0  0.91710  0.18268  0.58530  1.0000 -0.1181079068
C   C116      1.0  0.77690  0.18044  0.48870  1.0000 0.0505558518
C   C117      1.0  0.26870  0.11847  0.10550  1.0000 0.0433051633
C   C118      1.0  0.83570  0.02902  0.79390  1.0000 0.6218420386
C   C119      1.0  0.99730  0.21949  0.62090  1.0000 0.0433051633
C   C120      1.0  0.81680  0.99741  0.93870  1.0000 0.0553793057
C   C121      1.0  0.71350  0.21421  0.43090  1.0000 0.0505558518
C   C122      1.0  0.65470  0.08792  0.96650  1.0000 0.0905299082
C   C123      1.0  0.19740  0.14610  0.92260  1.0000 0.1094696869
C   C124      1.0  0.29900  0.10271  0.19890  1.0000 -0.1477248513
C   C125      1.0  0.40570  0.13467  0.09170  1.0000 -0.0952440307
C   C126      1.0  0.93030  0.25335  0.56200  1.0000 0.0505558518
C   C127      1.0  0.78810  0.25120  0.46660  1.0000 -0.1087000624
C   C128      1.0  0.70430  0.28914  0.40760  1.0000 0.6057972878
C   C129      1.0  0.16380  0.08746  0.20920  1.0000 -0.1284151657
C   C130      1.0  0.84350  0.07031  0.13540  1.0000 -0.0829588951
C   C131      1.0  0.35940  0.13420  0.54690  1.0000 0.1283254958
C   C132      1.0  0.41310  0.17494  0.56270  1.0000 0.1283254958
C   C133      1.0  0.67990  0.07060  0.05520  1.0000 -0.1420653586
C   C134      1.0  0.62280  0.22180  0.65670  1.0000 0.1025582453
C   C135      1.0  0.36990  0.14861  0.00090  1.0000 -0.1284151657
C   C136      1.0  0.41530  0.06907  0.59700  1.0000 0.120791188
C   C137      1.0  0.19510  0.12383  0.46310  1.0000 0.0505558518
C   C138      1.0  0.52450  0.25175  0.58940  1.0000 -0.1284151657
C   C139      1.0  0.30600  0.20392  0.49350  1.0000 0.0505558518
C   C140      1.0  0.08810  0.15427  0.39630  1.0000 -0.1420653586
C   C141      1.0  0.36790  0.24283  0.50930  1.0000 -0.0731757109
C   C142      1.0  0.25400  0.05680  0.51700  1.0000 -0.1181079068
C   C143      1.0  0.14460  0.08412  0.45110  1.0000 -0.0829588951
C   C144      1.0  0.14140  0.19220  0.40990  1.0000 -0.1284151657
N   N1        1.0  0.06190  0.36871  0.43090  1.0000 -0.350404206
N   N2        1.0  0.78490  0.39628  0.45460  1.0000 -0.359477836
N   N3        1.0  0.56840  0.31571  0.14560  1.0000 -0.359477836
N   N4        1.0  0.46940  0.39341  0.11350  1.0000 -0.3691369028
N   N5        1.0  0.93810  0.86871  0.06910  1.0000 -0.350404206
N   N6        1.0  0.21510  0.89628  0.04540  1.0000 -0.359477836
N   N7        1.0  0.43160  0.81571  0.35440  1.0000 -0.359477836
N   N8        1.0  0.53060  0.89341  0.38650  1.0000 -0.3691369028
N   N9        1.0  0.93810  0.63129  0.56910  1.0000 -0.350404206
N   N10       1.0  0.21510  0.60372  0.54540  1.0000 -0.359477836
N   N11       1.0  0.43160  0.68429  0.85440  1.0000 -0.359477836
N   N12       1.0  0.53060  0.60659  0.88650  1.0000 -0.3691369028
N   N13       1.0  0.06190  0.13129  0.93090  1.0000 -0.350404206
N   N14       1.0  0.78490  0.10372  0.95460  1.0000 -0.359477836
N   N15       1.0  0.56840  0.18429  0.64560  1.0000 -0.359477836
N   N16       1.0  0.46940  0.10659  0.61350  1.0000 -0.3691369028
Cl  Cl1       1.0  0.59012  0.50593  0.36204  1.0000 -0.0586741262
Cl  Cl2       1.0  0.23094  0.46362  0.41441  1.0000 -0.0401895608
Cl  Cl3       1.0  0.68239  0.36561  0.94482  1.0000 -0.0586741262
Cl  Cl4       1.0  0.17827  0.27766  0.23865  1.0000 -0.0234996744
Cl  Cl5       1.0  0.53609  0.28953  0.81057  1.0000 -0.0586741262
Cl  Cl6       1.0  0.02382  0.20106  0.11145  1.0000 -0.0401895608
Cl  Cl7       1.0  0.40988  0.00593  0.13796  1.0000 -0.0586741262
Cl  Cl8       1.0  0.76906  0.96362  0.08559  1.0000 -0.0401895608
Cl  Cl9       1.0  0.31761  0.86561  0.55518  1.0000 -0.0586741262
Cl  Cl10      1.0  0.82173  0.77766  0.26135  1.0000 -0.0234996744
Cl  Cl11      1.0  0.46391  0.78953  0.68943  1.0000 -0.0544658632
Cl  Cl12      1.0  0.97618  0.70106  0.38855  1.0000 -0.0401895608
Cl  Cl13      1.0  0.40988  0.49407  0.63796  1.0000 -0.0586741262
Cl  Cl14      1.0  0.76906  0.53638  0.58559  1.0000 -0.0401895608
Cl  Cl15      1.0  0.31761  0.63439  0.05518  1.0000 -0.0586741262
Cl  Cl16      1.0  0.82173  0.72234  0.76135  1.0000 -0.0234996744
Cl  Cl17      1.0  0.46391  0.71047  0.18943  1.0000 -0.0586741262
Cl  Cl18      1.0  0.97618  0.79894  0.88855  1.0000 -0.0401895608
Cl  Cl19      1.0  0.59012  0.99407  0.86204  1.0000 -0.0586741262
Cl  Cl20      1.0  0.23094  0.03638  0.91441  1.0000 -0.0401895608
Cl  Cl21      1.0  0.68239  0.13439  0.44482  1.0000 -0.0586741262
Cl  Cl22      1.0  0.17827  0.22234  0.73865  1.0000 -0.0234996744
Cl  Cl23      1.0  0.53609  0.21047  0.31057  1.0000 -0.0586741262
Cl  Cl24      1.0  0.02382  0.29894  0.61145  1.0000 -0.0401895608
O   O1        1.0  0.78551  0.19290  0.86921  1.0000 -0.668876353
O   O2        1.0  0.79070  0.43506  0.28140  1.0000 -0.6902364225
O   O3        1.0  0.10168  0.37424  0.15308  1.0000 -0.5114449293
O   O4        1.0  0.90429  0.35981  0.20309  1.0000 -0.6787954302
O   O5        1.0  0.56140  0.20056  0.90270  1.0000 -0.5412228436
O   O6        1.0  0.81970  0.49432  0.22880  1.0000 -0.5114449293
O   O7        1.0  0.21449  0.69290  0.63079  1.0000 -0.668876353
O   O8        1.0  0.20930  0.93506  0.21860  1.0000 -0.6902364225
O   O9        1.0  0.89832  0.87424  0.34692  1.0000 -0.5114449293
O   O10       1.0  0.09571  0.85981  0.29691  1.0000 -0.6787954302
O   O11       1.0  0.43860  0.70056  0.59730  1.0000 -0.5412228436
O   O12       1.0  0.18030  0.99432  0.27120  1.0000 -0.5114449293
O   O13       1.0  0.21449  0.80710  0.13079  1.0000 -0.668876353
O   O14       1.0  0.20930  0.56494  0.71860  1.0000 -0.6902364225
O   O15       1.0  0.89832  0.62576  0.84692  1.0000 -0.5114449293
O   O16       1.0  0.09571  0.64019  0.79691  1.0000 -0.6787954302
O   O17       1.0  0.43860  0.79944  0.09730  1.0000 -0.5412228436
O   O18       1.0  0.18030  0.50568  0.77120  1.0000 -0.5114449293
O   O19       1.0  0.78551  0.30710  0.36921  1.0000 -0.668876353
O   O20       1.0  0.79070  0.06494  0.78140  1.0000 -0.6902364225
O   O21       1.0  0.10168  0.12576  0.65308  1.0000 -0.5114449293
O   O22       1.0  0.90429  0.14019  0.70309  1.0000 -0.6787954302
O   O23       1.0  0.56140  0.29944  0.40270  1.0000 -0.5412228436
O   O24       1.0  0.81970  0.00568  0.72880  1.0000 -0.5114449293
