# DDEC6 charges by PACMAN v1.1 (https://github.com/mtap-research/PACMAN-charge/)
data_2022[Zn][sab]3[ASR]1
_chemical_formula_sum              "Zn12 H24 C72 O52"
_cell_length_a       16.9492
_cell_length_b       16.9492
_cell_length_c       16.9492
_cell_angle_alpha    106.111
_cell_angle_beta     106.111
_cell_angle_gamma    116.424

_symmetry_space_group_name_H-M    "P 1"
_symmetry_Int_Tables_number       1

loop_
  _symmetry_equiv_pos_as_xyz
  'x, y, z'

loop_
  _atom_site_type_symbol
  _atom_site_label
  _atom_site_symmetry_multiplicity
  _atom_site_fract_x
  _atom_site_fract_y
  _atom_site_fract_z
  _atom_site_occupancy
  _atom_site_charge
Zn  Zn1       1.0  0.69003  0.06698  0.13927  1.0000 1.027080654
Zn  Zn2       1.0  0.92771  0.55076  0.86073  1.0000 1.0240865594
Zn  Zn3       1.0  0.06698  0.92771  0.37695  1.0000 1.027080654
Zn  Zn4       1.0  0.55076  0.69003  0.62305  1.0000 1.027080654
Zn  Zn5       1.0  0.19003  0.05076  0.62305  1.0000 1.027080654
Zn  Zn6       1.0  0.42771  0.56698  0.37695  1.0000 1.027080654
Zn  Zn7       1.0  0.56698  0.19003  0.13927  1.0000 1.027080654
Zn  Zn8       1.0  0.05076  0.42771  0.86073  1.0000 1.027080654
Zn  Zn9       1.0  0.79990  0.29990  0.19056  1.0000 1.0105756169
Zn  Zn10      1.0  0.10934  0.60934  0.80944  1.0000 1.0105756169
Zn  Zn11      1.0  0.29990  0.10934  0.50000  1.0000 1.0105756169
Zn  Zn12      1.0  0.60934  0.79990  0.50000  1.0000 1.0105756169
H   H1        1.0  0.39800  0.77820  0.02600  1.0000 0.1417255856
H   H2        1.0  0.55250  0.87670  0.30200  1.0000 0.1346447286
H   H3        1.0  0.29000  0.60610  0.13930  1.0000 0.1417255856
H   H4        1.0  0.75220  0.37200  0.97400  1.0000 0.1417255856
H   H5        1.0  0.57470  0.25050  0.69800  1.0000 0.1346447286
H   H6        1.0  0.46680  0.15070  0.86070  1.0000 0.1417255856
H   H7        1.0  0.77820  0.75220  0.38020  1.0000 0.1417255856
H   H8        1.0  0.87670  0.57470  0.32420  1.0000 0.1346447286
H   H9        1.0  0.60610  0.46680  0.31610  1.0000 0.1417255856
H   H10       1.0  0.37200  0.39800  0.61980  1.0000 0.1417255856
H   H11       1.0  0.25050  0.55250  0.67580  1.0000 0.1346447286
H   H12       1.0  0.15070  0.29000  0.68390  1.0000 0.1417255856
H   H13       1.0  0.89800  0.87200  0.61980  1.0000 0.1417255856
H   H14       1.0  0.05250  0.75050  0.67580  1.0000 0.1346447286
H   H15       1.0  0.79000  0.65070  0.68390  1.0000 0.1417255856
H   H16       1.0  0.25220  0.27820  0.38020  1.0000 0.1417255856
H   H17       1.0  0.07470  0.37670  0.32420  1.0000 0.1346447286
H   H18       1.0  0.96680  0.10610  0.31610  1.0000 0.1417255856
H   H19       1.0  0.27820  0.89800  0.02600  1.0000 0.1417255856
H   H20       1.0  0.37670  0.05250  0.30200  1.0000 0.1417255856
H   H21       1.0  0.10610  0.79000  0.13930  1.0000 0.1417255856
H   H22       1.0  0.87200  0.25220  0.97400  1.0000 0.1417255856
H   H23       1.0  0.75050  0.07470  0.69800  1.0000 0.1346447286
H   H24       1.0  0.65070  0.96680  0.86070  1.0000 0.1417255856
C   C1        1.0  0.57070  0.93610  0.17880  1.0000 0.5492813533
C   C2        1.0  0.42170  0.73360  0.23430  1.0000 -0.031875802
C   C3        1.0  0.23520  0.61250  0.98010  1.0000 0.5956473669
C   C4        1.0  0.40190  0.76940  0.07850  1.0000 -0.0762560645
C   C5        1.0  0.49770  0.82770  0.24440  1.0000 -0.0726163818
C   C6        1.0  0.48700  0.84380  0.16580  1.0000 -0.0141767187
C   C7        1.0  0.33920  0.66667  0.14720  1.0000 -0.0726163818
C   C8        1.0  0.43830  0.71250  0.31280  1.0000 0.5917843154
C   C9        1.0  0.32580  0.68520  0.07000  1.0000 -0.031875802
C   C10       1.0  0.75730  0.39190  0.82120  1.0000 0.5492813533
C   C11       1.0  0.49930  0.18740  0.76570  1.0000 -0.031875802
C   C12       1.0  0.63240  0.25510  0.01990  1.0000 0.5956473669
C   C13       1.0  0.69090  0.32340  0.92150  1.0000 -0.0762560645
C   C14       1.0  0.58330  0.25330  0.75560  1.0000 -0.0726163818
C   C15       1.0  0.67800  0.32120  0.83420  1.0000 -0.0141767187
C   C16       1.0  0.51940  0.19200  0.85280  1.0000 -0.0726163818
C   C17       1.0  0.39970  0.12550  0.68720  1.0000 0.5917843154
C   C18       1.0  0.61520  0.25580  0.93000  1.0000 -0.031875802
C   C19       1.0  0.93610  0.75730  0.36540  1.0000 0.5492813533
C   C20       1.0  0.73360  0.49930  0.31190  1.0000 -0.0354424918
C   C21       1.0  0.61250  0.63240  0.37730  1.0000 0.5956473669
C   C22       1.0  0.76940  0.69090  0.36750  1.0000 -0.0762560645
C   C23       1.0  0.82770  0.58330  0.33000  1.0000 -0.0726163818
C   C24       1.0  0.84380  0.67800  0.35680  1.0000 -0.0141767187
C   C25       1.0  0.66667  0.51940  0.32740  1.0000 -0.0726163818
C   C26       1.0  0.71250  0.39970  0.27420  1.0000 0.5917843154
C   C27       1.0  0.68520  0.61520  0.35940  1.0000 -0.031875802
C   C28       1.0  0.39190  0.57070  0.63460  1.0000 0.5492813533
C   C29       1.0  0.18740  0.42170  0.68810  1.0000 -0.031875802
C   C30       1.0  0.25510  0.23520  0.62270  1.0000 0.5956473669
C   C31       1.0  0.32340  0.40190  0.63250  1.0000 -0.0762560645
C   C32       1.0  0.25330  0.49770  0.67000  1.0000 -0.0726163818
C   C33       1.0  0.32120  0.48700  0.64320  1.0000 -0.0141767187
C   C34       1.0  0.19200  0.33920  0.67260  1.0000 -0.0726163818
C   C35       1.0  0.12550  0.43830  0.72580  1.0000 0.5917843154
C   C36       1.0  0.25580  0.32580  0.64060  1.0000 -0.031875802
C   C37       1.0  0.07070  0.89190  0.63460  1.0000 0.5492813533
C   C38       1.0  0.92170  0.68740  0.68810  1.0000 -0.031875802
C   C39       1.0  0.73520  0.75510  0.62270  1.0000 0.5956473669
C   C40       1.0  0.90190  0.82340  0.63250  1.0000 -0.0762560645
C   C41       1.0  0.99770  0.75330  0.67000  1.0000 -0.0726163818
C   C42       1.0  0.98700  0.82120  0.64320  1.0000 -0.0141767187
C   C43       1.0  0.83920  0.69200  0.67260  1.0000 -0.0726163818
C   C44       1.0  0.93830  0.62550  0.72580  1.0000 0.5917843154
C   C45       1.0  0.82580  0.75580  0.64060  1.0000 -0.031875802
C   C46       1.0  0.25730  0.43610  0.36540  1.0000 0.5492813533
C   C47       1.0  0.99930  0.23360  0.31190  1.0000 -0.031875802
C   C48       1.0  0.13240  0.11250  0.37730  1.0000 0.5956473669
C   C49       1.0  0.19090  0.26940  0.36750  1.0000 -0.0762560645
C   C50       1.0  0.08330  0.32770  0.33000  1.0000 -0.0726163818
C   C51       1.0  0.17800  0.34380  0.35680  1.0000 -0.0141767187
C   C52       1.0  0.01940  0.16660  0.32740  1.0000 -0.0726163818
C   C53       1.0  0.89970  0.21250  0.27420  1.0000 0.5917843154
C   C54       1.0  0.11520  0.18520  0.35940  1.0000 -0.031875802
C   C55       1.0  0.43610  0.07070  0.17880  1.0000 0.5492813533
C   C56       1.0  0.23360  0.92170  0.23430  1.0000 -0.031875802
C   C57       1.0  0.11250  0.73520  0.98010  1.0000 0.5956473669
C   C58       1.0  0.26940  0.90190  0.07850  1.0000 -0.0762560645
C   C59       1.0  0.32770  0.99770  0.24440  1.0000 -0.0726163818
C   C60       1.0  0.34380  0.98700  0.16580  1.0000 -0.0141767187
C   C61       1.0  0.16660  0.83920  0.14720  1.0000 -0.0726163818
C   C62       1.0  0.21250  0.93830  0.31280  1.0000 0.5917843154
C   C63       1.0  0.18520  0.82580  0.07000  1.0000 -0.031875802
C   C64       1.0  0.89190  0.25730  0.82120  1.0000 0.5492813533
C   C65       1.0  0.68740  0.99930  0.76570  1.0000 -0.031875802
C   C66       1.0  0.75510  0.13240  0.01990  1.0000 0.5956473669
C   C67       1.0  0.82340  0.19090  0.92150  1.0000 -0.0762560645
C   C68       1.0  0.75330  0.08330  0.75560  1.0000 -0.0726163818
C   C69       1.0  0.82120  0.17800  0.83420  1.0000 -0.0141767187
C   C70       1.0  0.69200  0.01940  0.85280  1.0000 -0.0726163818
C   C71       1.0  0.62550  0.89970  0.68720  1.0000 0.5917843154
C   C72       1.0  0.75580  0.11520  0.93000  1.0000 -0.031875802
O   O1        1.0  0.49770  0.78590  0.39460  1.0000 -0.4924811142
O   O2        1.0  0.22890  0.63020  0.91510  1.0000 -0.4788134487
O   O3        1.0  0.57510  0.93910  0.10560  1.0000 -0.4924811142
O   O4        1.0  0.16970  0.53450  0.98120  1.0000 -0.5117178464
O   O5        1.0  0.63540  0.00140  0.25600  1.0000 -0.4122909759
O   O6        1.0  0.39440  0.61560  0.29160  1.0000 -0.5654638091
O   O7        1.0  0.39130  0.10310  0.60540  1.0000 -0.4924811142
O   O8        1.0  0.71510  0.31380  0.08490  1.0000 -0.4788134487
O   O9        1.0  0.83350  0.46950  0.89440  1.0000 -0.4924811142
O   O10       1.0  0.55330  0.18850  0.01880  1.0000 -0.5117178464
O   O11       1.0  0.74540  0.37940  0.74400  1.0000 -0.4169519419
O   O12       1.0  0.32400  0.10280  0.70840  1.0000 -0.5654638091
O   O13       1.0  0.78590  0.39130  0.28820  1.0000 -0.4924811142
O   O14       1.0  0.63020  0.71510  0.40130  1.0000 -0.4788134487
O   O15       1.0  0.93910  0.83350  0.36400  1.0000 -0.4924811142
O   O16       1.0  0.53450  0.55330  0.36480  1.0000 -0.5117178464
O   O17       1.0  0.00140  0.74540  0.36600  1.0000 -0.4169519419
O   O18       1.0  0.61560  0.32400  0.22120  1.0000 -0.5654638091
O   O19       1.0  0.10310  0.49770  0.71180  1.0000 -0.4924811142
O   O20       1.0  0.31380  0.22890  0.59870  1.0000 -0.4788134487
O   O21       1.0  0.46950  0.57510  0.63600  1.0000 -0.4924811142
O   O22       1.0  0.18850  0.16970  0.63520  1.0000 -0.5117178464
O   O23       1.0  0.37940  0.63540  0.63400  1.0000 -0.4169519419
O   O24       1.0  0.10280  0.39440  0.77880  1.0000 -0.5654638091
O   O25       1.0  0.99770  0.60310  0.71180  1.0000 -0.4924811142
O   O26       1.0  0.72890  0.81380  0.59870  1.0000 -0.4788134487
O   O27       1.0  0.07510  0.96950  0.63600  1.0000 -0.4924811142
O   O28       1.0  0.66970  0.68850  0.63520  1.0000 -0.5117178464
O   O29       1.0  0.13540  0.87940  0.63400  1.0000 -0.4169519419
O   O30       1.0  0.89440  0.60280  0.77880  1.0000 -0.5654638091
O   O31       1.0  0.89130  0.28590  0.28820  1.0000 -0.4924811142
O   O32       1.0  0.21510  0.13020  0.40130  1.0000 -0.4788134487
O   O33       1.0  0.33350  0.43910  0.36400  1.0000 -0.4924811142
O   O34       1.0  0.05330  0.03450  0.36480  1.0000 -0.5117178464
O   O35       1.0  0.24540  0.50140  0.36600  1.0000 -0.4122909759
O   O36       1.0  0.82400  0.11560  0.22120  1.0000 -0.5654638091
O   O37       1.0  0.28590  0.99770  0.39460  1.0000 -0.4924811142
O   O38       1.0  0.13020  0.72890  0.91510  1.0000 -0.4788134487
O   O39       1.0  0.43910  0.07510  0.10560  1.0000 -0.4924811142
O   O40       1.0  0.03450  0.66970  0.98120  1.0000 -0.5117178464
O   O41       1.0  0.50140  0.13540  0.25600  1.0000 -0.4122909759
O   O42       1.0  0.11560  0.89440  0.29160  1.0000 -0.5654638091
O   O43       1.0  0.60310  0.89130  0.60540  1.0000 -0.4924811142
O   O44       1.0  0.81380  0.21510  0.08490  1.0000 -0.4788134487
O   O45       1.0  0.96950  0.33350  0.89440  1.0000 -0.4924811142
O   O46       1.0  0.68850  0.05330  0.01880  1.0000 -0.5117178464
O   O47       1.0  0.87940  0.24540  0.74400  1.0000 -0.4169519419
O   O48       1.0  0.60280  0.82400  0.70840  1.0000 -0.5654638091
O   O49       1.0  0.67740  0.17740  0.17920  1.0000 -0.8633276874
O   O50       1.0  0.99820  0.49820  0.82080  1.0000 -0.8633276874
O   O51       1.0  0.17740  0.99820  0.50000  1.0000 -0.8633276874
O   O52       1.0  0.49820  0.67740  0.50000  1.0000 -0.8633276874
