# DDEC6 charges by PACMAN v1.1 (https://github.com/mtap-research/PACMAN-charge/)
data_2022[Mn][kgd]2[ASR]1
_chemical_formula_sum              "Mn3 H24 C42 N2 O12"
_cell_length_a       13.342
_cell_length_b       13.501
_cell_length_c       14.1571
_cell_angle_alpha    94.5786
_cell_angle_beta     116.713
_cell_angle_gamma    118.409

_symmetry_space_group_name_H-M    "P 1"
_symmetry_Int_Tables_number       1

loop_
  _symmetry_equiv_pos_as_xyz
  'x, y, z'

loop_
  _atom_site_type_symbol
  _atom_site_label
  _atom_site_symmetry_multiplicity
  _atom_site_fract_x
  _atom_site_fract_y
  _atom_site_fract_z
  _atom_site_occupancy
  _atom_site_charge
Mn  Mn1       1.0  0.27958  0.10046  0.45273  1.0000 1.0111724355
Mn  Mn2       1.0  0.72042  0.89954  0.54727  1.0000 1.0111724355
Mn  Mn3       1.0  0.50000  0.00000  0.50000  1.0000 1.0727356889
H   H1        1.0  0.74850  0.51530  0.25530  1.0000 0.1268482318
H   H2        1.0  0.92690  0.71810  0.33830  1.0000 0.119859042
H   H3        1.0  0.16000  0.63160  0.30460  1.0000 0.1268482318
H   H4        1.0  0.98190  0.42860  0.22120  1.0000 0.1268482318
H   H5        1.0  0.80120  0.33610  0.37370  1.0000 0.1268482318
H   H6        1.0  0.66510  0.25020  0.44170  1.0000 0.119859042
H   H7        1.0  0.33150  0.13030  0.13360  1.0000 0.119859042
H   H8        1.0  0.46530  0.20320  0.06120  1.0000 0.1268482318
H   H9        1.0  0.63690  0.10940  0.04430  1.0000 0.1268482318
H   H10       1.0  0.53560  0.02620  0.85130  1.0000 0.119859042
H   H11       1.0  0.58300  0.33430  0.82040  1.0000 0.119859042
H   H12       1.0  0.69550  0.42240  0.01480  1.0000 0.1268482318
H   H13       1.0  0.25150  0.48470  0.74470  1.0000 0.1268482318
H   H14       1.0  0.07310  0.28190  0.66170  1.0000 0.119859042
H   H15       1.0  0.84000  0.36840  0.69540  1.0000 0.1268482318
H   H16       1.0  0.01810  0.57140  0.77880  1.0000 0.1268482318
H   H17       1.0  0.19880  0.66390  0.62630  1.0000 0.1268482318
H   H18       1.0  0.33490  0.74980  0.55830  1.0000 0.119859042
H   H19       1.0  0.66850  0.86970  0.86640  1.0000 0.119859042
H   H20       1.0  0.53470  0.79680  0.93880  1.0000 0.1268482318
H   H21       1.0  0.36310  0.89060  0.95570  1.0000 0.1268482318
H   H22       1.0  0.46440  0.97380  0.14870  1.0000 0.119859042
H   H23       1.0  0.41700  0.66570  0.17960  1.0000 0.119859042
H   H24       1.0  0.30450  0.57760  0.98520  1.0000 0.1268482318
C   C1        1.0  0.84602  0.45154  0.22783  1.0000 0.1681260348
C   C2        1.0  0.83102  0.53850  0.26430  1.0000 -0.1906953238
C   C3        1.0  0.93840  0.66030  0.31430  1.0000 -0.0875762205
C   C4        1.0  0.06237  0.69738  0.32908  1.0000 -0.0492814619
C   C5        1.0  0.07690  0.60860  0.29410  1.0000 -0.0875762205
C   C6        1.0  0.97020  0.48680  0.24400  1.0000 -0.1819595791
C   C7        1.0  0.17834  0.82915  0.37945  1.0000 0.5881090381
C   C8        1.0  0.64786  0.27746  0.21006  1.0000 0.1798823096
C   C9        1.0  0.70642  0.29234  0.32454  1.0000 -0.1819595791
C   C10       1.0  0.62497  0.24245  0.36575  1.0000 -0.0776076697
C   C11       1.0  0.48359  0.18102  0.29462  1.0000 -0.0279763115
C   C12       1.0  0.42581  0.16931  0.18141  1.0000 -0.0875762205
C   C13       1.0  0.50600  0.21463  0.13803  1.0000 -0.199619197
C   C14       1.0  0.39682  0.13378  0.34098  1.0000 0.5799521424
C   C15       1.0  0.67424  0.27458  0.04978  1.0000 0.1681260348
C   C16       1.0  0.62691  0.15531  0.99971  1.0000 -0.1819595791
C   C17       1.0  0.56513  0.10523  0.88383  1.0000 -0.0978903256
C   C18       1.0  0.54649  0.17079  0.81519  1.0000 -0.0279763115
C   C19       1.0  0.59475  0.28915  0.86545  1.0000 -0.0875762205
C   C20       1.0  0.66039  0.34159  0.98189  1.0000 -0.1819595791
C   C21       1.0  0.47236  0.11510  0.68730  1.0000 0.5881090381
C   C22       1.0  0.15398  0.54846  0.77217  1.0000 0.1681260348
C   C23       1.0  0.16898  0.46150  0.73570  1.0000 -0.1906953238
C   C24       1.0  0.06160  0.33970  0.68570  1.0000 -0.0875762205
C   C25       1.0  0.93763  0.30262  0.67092  1.0000 -0.0492814619
C   C26       1.0  0.92310  0.39140  0.70590  1.0000 -0.0875762205
C   C27       1.0  0.02980  0.51320  0.75600  1.0000 -0.1819595791
C   C28       1.0  0.82166  0.17085  0.62055  1.0000 0.5881090381
C   C29       1.0  0.35214  0.72254  0.78994  1.0000 0.1798823096
C   C30       1.0  0.29358  0.70766  0.67546  1.0000 -0.1819595791
C   C31       1.0  0.37503  0.75755  0.63425  1.0000 -0.0776076697
C   C32       1.0  0.51641  0.81898  0.70538  1.0000 -0.0279763115
C   C33       1.0  0.57419  0.83069  0.81859  1.0000 -0.0875762205
C   C34       1.0  0.49400  0.78537  0.86197  1.0000 -0.199619197
C   C35       1.0  0.60318  0.86622  0.65902  1.0000 0.5799521424
C   C36       1.0  0.32576  0.72542  0.95022  1.0000 0.1681260348
C   C37       1.0  0.37309  0.84469  0.00029  1.0000 -0.1819595791
C   C38       1.0  0.43487  0.89477  0.11617  1.0000 -0.0978903256
C   C39       1.0  0.45351  0.82921  0.18481  1.0000 -0.0279763115
C   C40       1.0  0.40525  0.71085  0.13455  1.0000 -0.0875762205
C   C41       1.0  0.33961  0.65841  0.01811  1.0000 -0.1819595791
C   C42       1.0  0.52764  0.88490  0.31270  1.0000 0.5881090381
N   N1        1.0  0.73384  0.32536  0.16941  1.0000 -0.1819595791
N   N2        1.0  0.26616  0.67464  0.83059  1.0000 -0.1819595791
O   O1        1.0  0.29072  0.85208  0.40132  1.0000 -0.5617317341
O   O2        1.0  0.15489  0.90676  0.39507  1.0000 -0.5699640296
O   O3        1.0  0.44916  0.12553  0.43841  1.0000 -0.5889489434
O   O4        1.0  0.27822  0.10815  0.28847  1.0000 -0.5294833861
O   O5        1.0  0.39249  0.14354  0.63030  1.0000 -0.5772593401
O   O6        1.0  0.49340  0.04684  0.64802  1.0000 -0.5485408984
O   O7        1.0  0.70928  0.14792  0.59868  1.0000 -0.5617317341
O   O8        1.0  0.84511  0.09324  0.60493  1.0000 -0.5699640296
O   O9        1.0  0.55084  0.87447  0.56159  1.0000 -0.5889489434
O   O10       1.0  0.72178  0.89185  0.71153  1.0000 -0.5294833861
O   O11       1.0  0.60751  0.85646  0.36970  1.0000 -0.5772593401
O   O12       1.0  0.50660  0.95316  0.35198  1.0000 -0.5485408984
