# DDEC6 charges by PACMAN v1.1 (https://github.com/mtap-research/PACMAN-charge/)
data_2022[Cd][nan]3[ASR]3
_chemical_formula_sum              "Cd8 H88 C144 N24 O48"
_cell_length_a       12.4848
_cell_length_b       15.4204
_cell_length_c       24.706
_cell_angle_alpha    90
_cell_angle_beta     90
_cell_angle_gamma    90

_symmetry_space_group_name_H-M    "P 1"
_symmetry_Int_Tables_number       1

loop_
  _symmetry_equiv_pos_as_xyz
  'x, y, z'

loop_
  _atom_site_type_symbol
  _atom_site_label
  _atom_site_symmetry_multiplicity
  _atom_site_fract_x
  _atom_site_fract_y
  _atom_site_fract_z
  _atom_site_occupancy
  _atom_site_charge
Cd  Cd1       1.0  0.18812  0.05499  0.73654  1.0000 0.8952373878
Cd  Cd2       1.0  0.31188  0.55499  0.76346  1.0000 0.8952373878
Cd  Cd3       1.0  0.18812  0.44501  0.26346  1.0000 0.8952373878
Cd  Cd4       1.0  0.31188  0.94501  0.23654  1.0000 0.8952373878
Cd  Cd5       1.0  0.81188  0.94501  0.26346  1.0000 0.8952373878
Cd  Cd6       1.0  0.68812  0.44501  0.23654  1.0000 0.8952373878
Cd  Cd7       1.0  0.81188  0.55499  0.73654  1.0000 0.8952373878
Cd  Cd8       1.0  0.68812  0.05499  0.76346  1.0000 0.8952373878
H   H1        1.0  0.26862  0.98019  0.84943  1.0000 0.1000722196
H   H2        1.0  0.00657  0.10861  0.82218  1.0000 0.1116778568
H   H3        1.0  0.22436  0.95621  0.93856  1.0000 0.1293945942
H   H4        1.0  0.95180  0.08623  0.91120  1.0000 0.1404524237
H   H5        1.0  0.40682  0.87880  0.61010  1.0000 0.1224921473
H   H6        1.0  0.10215  0.97435  0.01396  1.0000 0.1293945942
H   H7        1.0  0.55837  0.79719  0.59183  1.0000 0.1224921473
H   H8        1.0  0.66628  0.75486  0.66180  1.0000 0.1293945942
H   H9        1.0  0.52163  0.00526  0.87716  1.0000 0.1404524237
H   H10       1.0  0.39217  0.76977  0.90484  1.0000 0.1293945942
H   H11       1.0  0.46002  0.90131  0.93710  1.0000 0.1293945942
H   H12       1.0  0.23138  0.48019  0.65057  1.0000 0.1000722196
H   H13       1.0  0.49343  0.60861  0.67782  1.0000 0.1116778568
H   H14       1.0  0.27564  0.45621  0.56144  1.0000 0.1293945942
H   H15       1.0  0.54820  0.58623  0.58880  1.0000 0.1404524237
H   H16       1.0  0.09318  0.37880  0.88990  1.0000 0.1224921473
H   H17       1.0  0.39785  0.47435  0.48604  1.0000 0.1293945942
H   H18       1.0  0.94163  0.29719  0.90817  1.0000 0.1224921473
H   H19       1.0  0.83372  0.25486  0.83820  1.0000 0.1293945942
H   H20       1.0  0.97837  0.50526  0.62284  1.0000 0.1404524237
H   H21       1.0  0.10783  0.26977  0.59516  1.0000 0.1293945942
H   H22       1.0  0.03998  0.40131  0.56290  1.0000 0.1293945942
H   H23       1.0  0.26862  0.51981  0.15057  1.0000 0.1000722196
H   H24       1.0  0.00657  0.39139  0.17782  1.0000 0.1116778568
H   H25       1.0  0.22436  0.54379  0.06144  1.0000 0.1293945942
H   H26       1.0  0.95180  0.41377  0.08880  1.0000 0.1404524237
H   H27       1.0  0.40682  0.62120  0.38990  1.0000 0.1224921473
H   H28       1.0  0.10215  0.52565  0.98604  1.0000 0.1293945942
H   H29       1.0  0.55837  0.70281  0.40817  1.0000 0.1224921473
H   H30       1.0  0.66628  0.74514  0.33820  1.0000 0.1293945942
H   H31       1.0  0.52163  0.49474  0.12284  1.0000 0.1404524237
H   H32       1.0  0.39217  0.73023  0.09516  1.0000 0.1293945942
H   H33       1.0  0.46002  0.59869  0.06290  1.0000 0.1293945942
H   H34       1.0  0.23138  0.01981  0.34943  1.0000 0.1000722196
H   H35       1.0  0.49343  0.89139  0.32218  1.0000 0.1116778568
H   H36       1.0  0.27564  0.04379  0.43856  1.0000 0.1293945942
H   H37       1.0  0.54820  0.91377  0.41120  1.0000 0.1404524237
H   H38       1.0  0.09318  0.12120  0.11010  1.0000 0.1224921473
H   H39       1.0  0.39785  0.02565  0.51396  1.0000 0.1293945942
H   H40       1.0  0.94163  0.20281  0.09183  1.0000 0.1224921473
H   H41       1.0  0.83372  0.24514  0.16180  1.0000 0.1293945942
H   H42       1.0  0.97837  0.99474  0.37716  1.0000 0.1404524237
H   H43       1.0  0.10783  0.23023  0.40484  1.0000 0.1293945942
H   H44       1.0  0.03998  0.09869  0.43710  1.0000 0.1293945942
H   H45       1.0  0.73138  0.01981  0.15057  1.0000 0.1000722196
H   H46       1.0  0.99343  0.89139  0.17782  1.0000 0.1116778568
H   H47       1.0  0.77564  0.04379  0.06144  1.0000 0.1293945942
H   H48       1.0  0.04820  0.91377  0.08880  1.0000 0.1404524237
H   H49       1.0  0.59318  0.12120  0.38990  1.0000 0.1224921473
H   H50       1.0  0.89785  0.02565  0.98604  1.0000 0.1293945942
H   H51       1.0  0.44163  0.20281  0.40817  1.0000 0.1224921473
H   H52       1.0  0.33372  0.24514  0.33820  1.0000 0.1293945942
H   H53       1.0  0.47837  0.99474  0.12284  1.0000 0.1404524237
H   H54       1.0  0.60783  0.23023  0.09516  1.0000 0.1293945942
H   H55       1.0  0.53998  0.09869  0.06290  1.0000 0.1293945942
H   H56       1.0  0.76862  0.51981  0.34943  1.0000 0.1000722196
H   H57       1.0  0.50657  0.39139  0.32218  1.0000 0.1116778568
H   H58       1.0  0.72436  0.54379  0.43856  1.0000 0.1293945942
H   H59       1.0  0.45180  0.41377  0.41120  1.0000 0.1404524237
H   H60       1.0  0.90682  0.62120  0.11010  1.0000 0.1224921473
H   H61       1.0  0.60215  0.52565  0.51396  1.0000 0.1293945942
H   H62       1.0  0.05837  0.70281  0.09183  1.0000 0.1224921473
H   H63       1.0  0.16628  0.74514  0.16180  1.0000 0.1293945942
H   H64       1.0  0.02163  0.49474  0.37716  1.0000 0.1404524237
H   H65       1.0  0.89217  0.73023  0.40484  1.0000 0.1293945942
H   H66       1.0  0.96002  0.59869  0.43710  1.0000 0.1293945942
H   H67       1.0  0.73138  0.48019  0.84943  1.0000 0.1000722196
H   H68       1.0  0.99343  0.60861  0.82218  1.0000 0.1116778568
H   H69       1.0  0.77564  0.45621  0.93856  1.0000 0.1293945942
H   H70       1.0  0.04820  0.58623  0.91120  1.0000 0.1404524237
H   H71       1.0  0.59318  0.37880  0.61010  1.0000 0.1224921473
H   H72       1.0  0.89785  0.47435  0.01396  1.0000 0.1293945942
H   H73       1.0  0.44163  0.29719  0.59183  1.0000 0.1224921473
H   H74       1.0  0.33372  0.25486  0.66180  1.0000 0.1293945942
H   H75       1.0  0.47837  0.50526  0.87716  1.0000 0.1404524237
H   H76       1.0  0.60783  0.26977  0.90484  1.0000 0.1293945942
H   H77       1.0  0.53998  0.40131  0.93710  1.0000 0.1293945942
H   H78       1.0  0.76862  0.98019  0.65057  1.0000 0.1000722196
H   H79       1.0  0.50657  0.10861  0.67782  1.0000 0.1116778568
H   H80       1.0  0.72436  0.95621  0.56144  1.0000 0.1293945942
H   H81       1.0  0.45180  0.08623  0.58880  1.0000 0.1404524237
H   H82       1.0  0.90682  0.87880  0.88990  1.0000 0.1224921473
H   H83       1.0  0.60215  0.97435  0.48604  1.0000 0.1293945942
H   H84       1.0  0.05837  0.79719  0.90817  1.0000 0.1224921473
H   H85       1.0  0.16628  0.75486  0.83820  1.0000 0.1293945942
H   H86       1.0  0.02163  0.00526  0.62284  1.0000 0.1404524237
H   H87       1.0  0.89217  0.76977  0.59516  1.0000 0.1293945942
H   H88       1.0  0.96002  0.90131  0.56290  1.0000 0.1293945942
C   C1        1.0  0.20320  0.00080  0.86200  1.0000 0.0862534807
C   C2        1.0  0.04950  0.07610  0.84530  1.0000 0.1293945942
C   C3        1.0  0.32260  0.92580  0.70530  1.0000 0.5650539041
C   C4        1.0  0.17770  0.98590  0.91580  1.0000 -0.2051036119
C   C5        1.0  0.01650  0.06330  0.89930  1.0000 -0.1923530012
C   C6        1.0  0.41900  0.87390  0.69160  1.0000 -0.0692201055
C   C7        1.0  0.08040  0.01670  0.93440  1.0000 0.151682492
C   C8        1.0  0.48690  0.84420  0.73250  1.0000 0.0769845188
C   C9        1.0  0.44860  0.85780  0.63840  1.0000 -0.0892306551
C   C10       1.0  0.04970  0.99530  0.99060  1.0000 -0.1420737024
C   C11       1.0  0.46640  0.85610  0.79190  1.0000 0.1000722196
C   C12       1.0  0.54000  0.81070  0.62730  1.0000 -0.1420737024
C   C13       1.0  0.60290  0.78430  0.66930  1.0000 -0.0500051737
C   C14       1.0  0.42610  0.79360  0.82660  1.0000 -0.0692201055
C   C15       1.0  0.49750  0.95180  0.86480  1.0000 -0.0297981821
C   C16       1.0  0.38670  0.70710  0.80540  1.0000 0.5607784629
C   C17       1.0  0.42090  0.81040  0.88110  1.0000 -0.0774679029
C   C18       1.0  0.45980  0.89010  0.90010  1.0000 -0.153314751
C   C19       1.0  0.29680  0.50080  0.63800  1.0000 0.0862534807
C   C20       1.0  0.45050  0.57610  0.65470  1.0000 0.1293945942
C   C21       1.0  0.17740  0.42580  0.79470  1.0000 0.5650539041
C   C22       1.0  0.32230  0.48590  0.58420  1.0000 -0.2051036119
C   C23       1.0  0.48350  0.56330  0.60070  1.0000 -0.1923530012
C   C24       1.0  0.08100  0.37390  0.80840  1.0000 -0.0692201055
C   C25       1.0  0.41960  0.51670  0.56560  1.0000 0.151682492
C   C26       1.0  0.01310  0.34420  0.76750  1.0000 0.0769845188
C   C27       1.0  0.05140  0.35780  0.86160  1.0000 -0.0892306551
C   C28       1.0  0.45030  0.49530  0.50940  1.0000 -0.1420737024
C   C29       1.0  0.03360  0.35610  0.70810  1.0000 0.1000722196
C   C30       1.0  0.96000  0.31070  0.87270  1.0000 -0.1420737024
C   C31       1.0  0.89710  0.28430  0.83070  1.0000 -0.0500051737
C   C32       1.0  0.07390  0.29360  0.67340  1.0000 -0.0692201055
C   C33       1.0  0.00250  0.45180  0.63520  1.0000 -0.0297981821
C   C34       1.0  0.11330  0.20710  0.69460  1.0000 0.5607784629
C   C35       1.0  0.07910  0.31040  0.61890  1.0000 -0.0774679029
C   C36       1.0  0.04020  0.39010  0.59990  1.0000 -0.153314751
C   C37       1.0  0.20320  0.49920  0.13800  1.0000 0.0862534807
C   C38       1.0  0.04950  0.42390  0.15470  1.0000 0.1293945942
C   C39       1.0  0.32260  0.57420  0.29470  1.0000 0.5650539041
C   C40       1.0  0.17770  0.51410  0.08420  1.0000 -0.2039651125
C   C41       1.0  0.01650  0.43670  0.10070  1.0000 -0.1923530012
C   C42       1.0  0.41900  0.62610  0.30840  1.0000 -0.0692201055
C   C43       1.0  0.08040  0.48330  0.06560  1.0000 0.151682492
C   C44       1.0  0.48690  0.65580  0.26750  1.0000 0.0769845188
C   C45       1.0  0.44860  0.64220  0.36160  1.0000 -0.0892306551
C   C46       1.0  0.04970  0.50470  0.00940  1.0000 -0.1420737024
C   C47       1.0  0.46640  0.64390  0.20810  1.0000 0.1000722196
C   C48       1.0  0.54000  0.68930  0.37270  1.0000 -0.1420737024
C   C49       1.0  0.60290  0.71570  0.33070  1.0000 -0.0500051737
C   C50       1.0  0.42610  0.70640  0.17340  1.0000 -0.0692201055
C   C51       1.0  0.49750  0.54820  0.13520  1.0000 -0.0297981821
C   C52       1.0  0.38670  0.79290  0.19460  1.0000 0.5607784629
C   C53       1.0  0.42090  0.68960  0.11890  1.0000 -0.0774679029
C   C54       1.0  0.45980  0.60990  0.09990  1.0000 -0.153314751
C   C55       1.0  0.29680  0.99920  0.36200  1.0000 0.0862534807
C   C56       1.0  0.45050  0.92390  0.34530  1.0000 0.1293945942
C   C57       1.0  0.17740  0.07420  0.20530  1.0000 0.5650539041
C   C58       1.0  0.32230  0.01410  0.41580  1.0000 -0.2039651125
C   C59       1.0  0.48350  0.93670  0.39930  1.0000 -0.1923530012
C   C60       1.0  0.08100  0.12610  0.19160  1.0000 -0.0692201055
C   C61       1.0  0.41960  0.98330  0.43440  1.0000 0.151682492
C   C62       1.0  0.01310  0.15580  0.23250  1.0000 0.0769845188
C   C63       1.0  0.05140  0.14220  0.13840  1.0000 -0.0892306551
C   C64       1.0  0.45030  0.00470  0.49060  1.0000 -0.1420737024
C   C65       1.0  0.03360  0.14390  0.29190  1.0000 0.1000722196
C   C66       1.0  0.96000  0.18930  0.12730  1.0000 -0.1420737024
C   C67       1.0  0.89710  0.21570  0.16930  1.0000 -0.0500051737
C   C68       1.0  0.07390  0.20640  0.32660  1.0000 -0.0692201055
C   C69       1.0  0.00250  0.04820  0.36480  1.0000 -0.0297981821
C   C70       1.0  0.11330  0.29290  0.30540  1.0000 0.5607784629
C   C71       1.0  0.07910  0.18960  0.38110  1.0000 -0.0774679029
C   C72       1.0  0.04020  0.10990  0.40010  1.0000 -0.153314751
C   C73       1.0  0.79680  0.99920  0.13800  1.0000 0.0862534807
C   C74       1.0  0.95050  0.92390  0.15470  1.0000 0.1293945942
C   C75       1.0  0.67740  0.07420  0.29470  1.0000 0.5650539041
C   C76       1.0  0.82230  0.01410  0.08420  1.0000 -0.2039651125
C   C77       1.0  0.98350  0.93670  0.10070  1.0000 -0.1923530012
C   C78       1.0  0.58100  0.12610  0.30840  1.0000 -0.0692201055
C   C79       1.0  0.91960  0.98330  0.06560  1.0000 0.151682492
C   C80       1.0  0.51310  0.15580  0.26750  1.0000 0.0769845188
C   C81       1.0  0.55140  0.14220  0.36160  1.0000 -0.0892306551
C   C82       1.0  0.95030  0.00470  0.00940  1.0000 -0.1420737024
C   C83       1.0  0.53360  0.14390  0.20810  1.0000 0.1000722196
C   C84       1.0  0.46000  0.18930  0.37270  1.0000 -0.1420737024
C   C85       1.0  0.39710  0.21570  0.33070  1.0000 -0.0500051737
C   C86       1.0  0.57390  0.20640  0.17340  1.0000 -0.0692201055
C   C87       1.0  0.50250  0.04820  0.13520  1.0000 -0.0297981821
C   C88       1.0  0.61330  0.29290  0.19460  1.0000 0.5607784629
C   C89       1.0  0.57910  0.18960  0.11890  1.0000 -0.0774679029
C   C90       1.0  0.54020  0.10990  0.09990  1.0000 -0.153314751
C   C91       1.0  0.70320  0.49920  0.36200  1.0000 0.0862534807
C   C92       1.0  0.54950  0.42390  0.34530  1.0000 0.1293945942
C   C93       1.0  0.82260  0.57420  0.20530  1.0000 0.5650539041
C   C94       1.0  0.67770  0.51410  0.41580  1.0000 -0.2039651125
C   C95       1.0  0.51650  0.43670  0.39930  1.0000 -0.1923530012
C   C96       1.0  0.91900  0.62610  0.19160  1.0000 -0.0692201055
C   C97       1.0  0.58040  0.48330  0.43440  1.0000 0.151682492
C   C98       1.0  0.98690  0.65580  0.23250  1.0000 0.0769845188
C   C99       1.0  0.94860  0.64220  0.13840  1.0000 -0.0892306551
C   C100      1.0  0.54970  0.50470  0.49060  1.0000 -0.1420737024
C   C101      1.0  0.96640  0.64390  0.29190  1.0000 0.1000722196
C   C102      1.0  0.04000  0.68930  0.12730  1.0000 -0.1420737024
C   C103      1.0  0.10290  0.71570  0.16930  1.0000 -0.0500051737
C   C104      1.0  0.92610  0.70640  0.32660  1.0000 -0.0692201055
C   C105      1.0  0.99750  0.54820  0.36480  1.0000 -0.0297981821
C   C106      1.0  0.88670  0.79290  0.30540  1.0000 0.5607784629
C   C107      1.0  0.92090  0.68960  0.38110  1.0000 -0.0774679029
C   C108      1.0  0.95980  0.60990  0.40010  1.0000 -0.153314751
C   C109      1.0  0.79680  0.50080  0.86200  1.0000 0.0862534807
C   C110      1.0  0.95050  0.57610  0.84530  1.0000 0.1293945942
C   C111      1.0  0.67740  0.42580  0.70530  1.0000 0.5650539041
C   C112      1.0  0.82230  0.48590  0.91580  1.0000 -0.2051036119
C   C113      1.0  0.98350  0.56330  0.89930  1.0000 -0.1923530012
C   C114      1.0  0.58100  0.37390  0.69160  1.0000 -0.0692201055
C   C115      1.0  0.91960  0.51670  0.93440  1.0000 0.151682492
C   C116      1.0  0.51310  0.34420  0.73250  1.0000 0.0769845188
C   C117      1.0  0.55140  0.35780  0.63840  1.0000 -0.0892306551
C   C118      1.0  0.95030  0.49530  0.99060  1.0000 -0.1420737024
C   C119      1.0  0.53360  0.35610  0.79190  1.0000 0.1000722196
C   C120      1.0  0.46000  0.31070  0.62730  1.0000 -0.1420737024
C   C121      1.0  0.39710  0.28430  0.66930  1.0000 -0.0500051737
C   C122      1.0  0.57390  0.29360  0.82660  1.0000 -0.0692201055
C   C123      1.0  0.50250  0.45180  0.86480  1.0000 -0.0297981821
C   C124      1.0  0.61330  0.20710  0.80540  1.0000 0.5607784629
C   C125      1.0  0.57910  0.31040  0.88110  1.0000 -0.0774679029
C   C126      1.0  0.54020  0.39010  0.90010  1.0000 -0.153314751
C   C127      1.0  0.70320  0.00080  0.63800  1.0000 0.0862534807
C   C128      1.0  0.54950  0.07610  0.65470  1.0000 0.1293945942
C   C129      1.0  0.82260  0.92580  0.79470  1.0000 0.5650539041
C   C130      1.0  0.67770  0.98590  0.58420  1.0000 -0.2039651125
C   C131      1.0  0.51650  0.06330  0.60070  1.0000 -0.1923530012
C   C132      1.0  0.91900  0.87390  0.80840  1.0000 -0.0692201055
C   C133      1.0  0.58040  0.01670  0.56560  1.0000 0.151682492
C   C134      1.0  0.98690  0.84420  0.76750  1.0000 0.0769845188
C   C135      1.0  0.94860  0.85780  0.86160  1.0000 -0.0892306551
C   C136      1.0  0.54970  0.99530  0.50940  1.0000 -0.1420737024
C   C137      1.0  0.96640  0.85610  0.70810  1.0000 0.1000722196
C   C138      1.0  0.04000  0.81070  0.87270  1.0000 -0.1420737024
C   C139      1.0  0.10290  0.78430  0.83070  1.0000 -0.0500051737
C   C140      1.0  0.92610  0.79360  0.67340  1.0000 -0.0692201055
C   C141      1.0  0.99750  0.95180  0.63520  1.0000 -0.0297981821
C   C142      1.0  0.88670  0.70710  0.69460  1.0000 0.5607784629
C   C143      1.0  0.92090  0.81040  0.61890  1.0000 -0.0774679029
C   C144      1.0  0.95980  0.89010  0.59990  1.0000 -0.153314751
N   N1        1.0  0.14000  0.04300  0.82690  1.0000 -0.2219920628
N   N2        1.0  0.57650  0.79930  0.72080  1.0000 0.2884625323
N   N3        1.0  0.49830  0.93220  0.81190  1.0000 0.2731563464
N   N4        1.0  0.36000  0.54300  0.67310  1.0000 -0.2219920628
N   N5        1.0  0.92350  0.29930  0.77920  1.0000 0.2884625323
N   N6        1.0  0.00170  0.43220  0.68810  1.0000 0.2731563464
N   N7        1.0  0.14000  0.45700  0.17310  1.0000 -0.2219920628
N   N8        1.0  0.57650  0.70070  0.27920  1.0000 0.2884625323
N   N9        1.0  0.49830  0.56780  0.18810  1.0000 0.2731563464
N   N10       1.0  0.36000  0.95700  0.32690  1.0000 -0.2219920628
N   N11       1.0  0.92350  0.20070  0.22080  1.0000 0.2884625323
N   N12       1.0  0.00170  0.06780  0.31190  1.0000 0.2731563464
N   N13       1.0  0.86000  0.95700  0.17310  1.0000 -0.2219920628
N   N14       1.0  0.42350  0.20070  0.27920  1.0000 0.2884625323
N   N15       1.0  0.50170  0.06780  0.18810  1.0000 0.2731563464
N   N16       1.0  0.64000  0.45700  0.32690  1.0000 -0.2219920628
N   N17       1.0  0.07650  0.70070  0.22080  1.0000 0.2884625323
N   N18       1.0  0.99830  0.56780  0.31190  1.0000 0.2731563464
N   N19       1.0  0.86000  0.54300  0.82690  1.0000 -0.2219920628
N   N20       1.0  0.42350  0.29930  0.72080  1.0000 0.2884625323
N   N21       1.0  0.50170  0.43220  0.81190  1.0000 0.2731563464
N   N22       1.0  0.64000  0.04300  0.67310  1.0000 -0.2219920628
N   N23       1.0  0.07650  0.79930  0.77920  1.0000 0.2884625323
N   N24       1.0  0.99830  0.93220  0.68810  1.0000 0.2731563464
O   O1        1.0  0.16470  0.15950  0.66320  1.0000 -0.5477576017
O   O2        1.0  0.09310  0.18860  0.74290  1.0000 -0.519995293
O   O3        1.0  0.29600  0.93030  0.75370  1.0000 -0.519995293
O   O4        1.0  0.27290  0.96620  0.66800  1.0000 -0.5564847946
O   O5        1.0  0.02220  0.99690  0.72210  1.0000 -0.4926319778
O   O6        1.0  0.63900  0.78020  0.76210  1.0000 -0.4336817734
O   O7        1.0  0.33530  0.65950  0.83680  1.0000 -0.5477576017
O   O8        1.0  0.40690  0.68860  0.75710  1.0000 -0.519995293
O   O9        1.0  0.20400  0.43030  0.74630  1.0000 -0.519995293
O   O10       1.0  0.22710  0.46620  0.83200  1.0000 -0.5564847946
O   O11       1.0  0.47780  0.49690  0.77790  1.0000 -0.4926319778
O   O12       1.0  0.86100  0.28020  0.73790  1.0000 -0.4336817734
O   O13       1.0  0.16470  0.34050  0.33680  1.0000 -0.5477576017
O   O14       1.0  0.09310  0.31140  0.25710  1.0000 -0.519995293
O   O15       1.0  0.29600  0.56970  0.24630  1.0000 -0.519995293
O   O16       1.0  0.27290  0.53380  0.33200  1.0000 -0.5564847946
O   O17       1.0  0.02220  0.50310  0.27790  1.0000 -0.4926319778
O   O18       1.0  0.63900  0.71980  0.23790  1.0000 -0.4336817734
O   O19       1.0  0.33530  0.84050  0.16320  1.0000 -0.5477576017
O   O20       1.0  0.40690  0.81140  0.24290  1.0000 -0.519995293
O   O21       1.0  0.20400  0.06970  0.25370  1.0000 -0.519995293
O   O22       1.0  0.22710  0.03380  0.16800  1.0000 -0.5564847946
O   O23       1.0  0.47780  0.00310  0.22210  1.0000 -0.4926319778
O   O24       1.0  0.86100  0.21980  0.26210  1.0000 -0.4336817734
O   O25       1.0  0.83530  0.84050  0.33680  1.0000 -0.5477576017
O   O26       1.0  0.90690  0.81140  0.25710  1.0000 -0.519995293
O   O27       1.0  0.70400  0.06970  0.24630  1.0000 -0.519995293
O   O28       1.0  0.72710  0.03380  0.33200  1.0000 -0.5564847946
O   O29       1.0  0.97780  0.00310  0.27790  1.0000 -0.4926319778
O   O30       1.0  0.36100  0.21980  0.23790  1.0000 -0.4336817734
O   O31       1.0  0.66470  0.34050  0.16320  1.0000 -0.5477576017
O   O32       1.0  0.59310  0.31140  0.24290  1.0000 -0.519995293
O   O33       1.0  0.79600  0.56970  0.25370  1.0000 -0.519995293
O   O34       1.0  0.77290  0.53380  0.16800  1.0000 -0.5564847946
O   O35       1.0  0.52220  0.50310  0.22210  1.0000 -0.4926319778
O   O36       1.0  0.13900  0.71980  0.26210  1.0000 -0.4336817734
O   O37       1.0  0.83530  0.65950  0.66320  1.0000 -0.5477576017
O   O38       1.0  0.90690  0.68860  0.74290  1.0000 -0.519995293
O   O39       1.0  0.70400  0.43030  0.75370  1.0000 -0.519995293
O   O40       1.0  0.72710  0.46620  0.66800  1.0000 -0.5564847946
O   O41       1.0  0.97780  0.49690  0.72210  1.0000 -0.4926319778
O   O42       1.0  0.36100  0.28020  0.76210  1.0000 -0.4336817734
O   O43       1.0  0.66470  0.15950  0.83680  1.0000 -0.5477576017
O   O44       1.0  0.59310  0.18860  0.75710  1.0000 -0.519995293
O   O45       1.0  0.79600  0.93030  0.74630  1.0000 -0.519995293
O   O46       1.0  0.77290  0.96620  0.83200  1.0000 -0.5564847946
O   O47       1.0  0.52220  0.99690  0.77790  1.0000 -0.4926319778
O   O48       1.0  0.13900  0.78020  0.73790  1.0000 -0.4336817734
