# DDEC6 charges by PACMAN v1.1 (https://github.com/mtap-research/PACMAN-charge/)
data_2022[Cd][sdd]2[ASR]1
_chemical_formula_sum              "Cd4 H80 C100 N24 O16"
_cell_length_a       11.8035
_cell_length_b       12.275
_cell_length_c       19.7528
_cell_angle_alpha    90
_cell_angle_beta     103.559
_cell_angle_gamma    90

_symmetry_space_group_name_H-M    "P 1"
_symmetry_Int_Tables_number       1

loop_
  _symmetry_equiv_pos_as_xyz
  'x, y, z'

loop_
  _atom_site_type_symbol
  _atom_site_label
  _atom_site_symmetry_multiplicity
  _atom_site_fract_x
  _atom_site_fract_y
  _atom_site_fract_z
  _atom_site_occupancy
  _atom_site_charge
Cd  Cd1       1.0  0.79603  0.17094  0.70125  1.0000 0.8191347714
Cd  Cd2       1.0  0.79603  0.32906  0.20125  1.0000 0.8191347714
Cd  Cd3       1.0  0.20397  0.67094  0.79875  1.0000 0.8191347714
Cd  Cd4       1.0  0.20397  0.82906  0.29875  1.0000 0.8191347714
H   H1        1.0  0.79078  0.86804  0.83956  1.0000 0.1317707365
H   H2        1.0  0.65638  0.88802  0.82580  1.0000 0.1317707365
H   H3        1.0  0.57215  0.94305  0.91846  1.0000 0.1209312729
H   H4        1.0  0.58664  0.97092  0.03520  1.0000 0.1146723624
H   H5        1.0  0.93008  0.95266  0.07072  1.0000 0.1209312729
H   H6        1.0  0.91569  0.92047  0.95459  1.0000 0.1209312729
H   H7        1.0  0.69695  0.96520  0.15306  1.0000 0.1317707365
H   H8        1.0  0.83285  0.95414  0.16930  1.0000 0.1317707365
H   H9        1.0  0.49186  0.15791  0.65069  1.0000 0.1209312729
H   H10       1.0  0.50946  0.12733  0.45348  1.0000 0.1317707365
H   H11       1.0  0.70502  0.13155  0.52786  1.0000 0.1209312729
H   H12       1.0  0.30054  0.08388  0.61443  1.0000 0.1411519791
H   H13       1.0  0.00798  0.14836  0.46739  1.0000 0.1317707365
H   H14       1.0  0.32220  0.20516  0.42821  1.0000 0.1411519791
H   H15       1.0  0.17071  0.96857  0.66299  1.0000 0.1411519791
H   H16       1.0  0.00615  0.96711  0.71811  1.0000 0.1317707365
H   H17       1.0  0.92829  0.17395  0.56316  1.0000 0.1209312729
H   H18       1.0  0.94220  0.27079  0.37580  1.0000 0.1209312729
H   H19       1.0  0.22398  0.18838  0.31084  1.0000 0.1411519791
H   H20       1.0  0.07519  0.25617  0.21223  1.0000 0.1209312729
H   H21       1.0  0.79078  0.63196  0.33956  1.0000 0.1317707365
H   H22       1.0  0.65638  0.61198  0.32580  1.0000 0.1317707365
H   H23       1.0  0.57215  0.55695  0.41846  1.0000 0.1209312729
H   H24       1.0  0.58664  0.52908  0.53520  1.0000 0.1146723624
H   H25       1.0  0.93008  0.54734  0.57072  1.0000 0.1209312729
H   H26       1.0  0.91569  0.57953  0.45459  1.0000 0.1209312729
H   H27       1.0  0.69695  0.53480  0.65306  1.0000 0.1317707365
H   H28       1.0  0.83285  0.54586  0.66930  1.0000 0.1317707365
H   H29       1.0  0.49186  0.34209  0.15069  1.0000 0.1209312729
H   H30       1.0  0.50946  0.37267  0.95348  1.0000 0.1317707365
H   H31       1.0  0.70502  0.36845  0.02786  1.0000 0.1209312729
H   H32       1.0  0.30054  0.41612  0.11443  1.0000 0.1411519791
H   H33       1.0  0.00798  0.35164  0.96739  1.0000 0.1317707365
H   H34       1.0  0.32220  0.29484  0.92821  1.0000 0.1411519791
H   H35       1.0  0.17071  0.53143  0.16299  1.0000 0.1411519791
H   H36       1.0  0.00615  0.53289  0.21811  1.0000 0.1317707365
H   H37       1.0  0.92829  0.32605  0.06316  1.0000 0.1209312729
H   H38       1.0  0.94220  0.22921  0.87580  1.0000 0.1209312729
H   H39       1.0  0.22398  0.31162  0.81084  1.0000 0.1411519791
H   H40       1.0  0.07519  0.24383  0.71223  1.0000 0.1209312729
H   H41       1.0  0.20922  0.36804  0.66044  1.0000 0.1317707365
H   H42       1.0  0.34362  0.38802  0.67420  1.0000 0.1317707365
H   H43       1.0  0.42785  0.44305  0.58154  1.0000 0.1209312729
H   H44       1.0  0.41336  0.47092  0.46480  1.0000 0.1146723624
H   H45       1.0  0.06992  0.45266  0.42928  1.0000 0.1209312729
H   H46       1.0  0.08431  0.42047  0.54541  1.0000 0.1209312729
H   H47       1.0  0.30305  0.46520  0.34694  1.0000 0.1317707365
H   H48       1.0  0.16715  0.45414  0.33070  1.0000 0.1317707365
H   H49       1.0  0.50814  0.65791  0.84931  1.0000 0.1209312729
H   H50       1.0  0.49054  0.62733  0.04652  1.0000 0.1317707365
H   H51       1.0  0.29498  0.63155  0.97214  1.0000 0.1209312729
H   H52       1.0  0.69946  0.58388  0.88557  1.0000 0.1411519791
H   H53       1.0  0.99202  0.64836  0.03261  1.0000 0.1317707365
H   H54       1.0  0.67780  0.70516  0.07179  1.0000 0.1411519791
H   H55       1.0  0.82929  0.46857  0.83701  1.0000 0.1411519791
H   H56       1.0  0.99385  0.46711  0.78189  1.0000 0.1317707365
H   H57       1.0  0.07171  0.67395  0.93684  1.0000 0.1209312729
H   H58       1.0  0.05780  0.77079  0.12420  1.0000 0.1209312729
H   H59       1.0  0.77602  0.68838  0.18916  1.0000 0.1411519791
H   H60       1.0  0.92481  0.75617  0.28777  1.0000 0.1209312729
H   H61       1.0  0.20922  0.13196  0.16044  1.0000 0.1317707365
H   H62       1.0  0.34362  0.11198  0.17420  1.0000 0.1317707365
H   H63       1.0  0.42785  0.05695  0.08154  1.0000 0.1209312729
H   H64       1.0  0.41336  0.02908  0.96480  1.0000 0.1146723624
H   H65       1.0  0.06992  0.04734  0.92928  1.0000 0.1209312729
H   H66       1.0  0.08431  0.07953  0.04541  1.0000 0.1209312729
H   H67       1.0  0.30305  0.03480  0.84694  1.0000 0.1317707365
H   H68       1.0  0.16715  0.04586  0.83070  1.0000 0.1317707365
H   H69       1.0  0.50814  0.84209  0.34931  1.0000 0.1209312729
H   H70       1.0  0.49054  0.87267  0.54652  1.0000 0.1317707365
H   H71       1.0  0.29498  0.86845  0.47214  1.0000 0.1209312729
H   H72       1.0  0.69946  0.91612  0.38557  1.0000 0.1411519791
H   H73       1.0  0.99202  0.85164  0.53261  1.0000 0.1317707365
H   H74       1.0  0.67780  0.79484  0.57179  1.0000 0.1411519791
H   H75       1.0  0.82929  0.03143  0.33701  1.0000 0.1411519791
H   H76       1.0  0.99385  0.03289  0.28189  1.0000 0.1317707365
H   H77       1.0  0.07171  0.82605  0.43684  1.0000 0.1209312729
H   H78       1.0  0.05780  0.72921  0.62420  1.0000 0.1209312729
H   H79       1.0  0.77602  0.81162  0.68916  1.0000 0.1411519791
H   H80       1.0  0.92481  0.74383  0.78777  1.0000 0.1209312729
C   C1        1.0  0.74540  0.02420  0.80816  1.0000 0.62582913
C   C2        1.0  0.73200  0.91930  0.84652  1.0000 -0.3944049184
C   C3        1.0  0.74260  0.93210  0.92359  1.0000 0.1411519791
C   C4        1.0  0.64530  0.94560  0.94887  1.0000 -0.1584683363
C   C5        1.0  0.65420  0.96290  0.01916  1.0000 -0.1584683363
C   C6        1.0  0.75990  0.96860  0.06546  1.0000 0.1411519791
C   C7        1.0  0.85690  0.95160  0.04019  1.0000 -0.1584683363
C   C8        1.0  0.84840  0.93280  0.97022  1.0000 -0.1584683363
C   C9        1.0  0.76670  0.99280  0.14107  1.0000 -0.3960748617
C   C10       1.0  0.77900  0.11350  0.15907  1.0000 0.6206294592
C   C11       1.0  0.52090  0.15090  0.61104  1.0000 0.1020254749
C   C12       1.0  0.52920  0.13390  0.50173  1.0000 -0.1089928788
C   C13       1.0  0.63650  0.13650  0.54325  1.0000 -0.0308214896
C   C14       1.0  0.32988  0.14355  0.52427  1.0000 0.2022566121
C   C15       1.0  0.26467  0.10913  0.57021  1.0000 -0.289746039
C   C16       1.0  0.14419  0.11354  0.54811  1.0000 0.2022566121
C   C17       1.0  0.08886  0.14799  0.48179  1.0000 -0.289746039
C   C18       1.0  0.15710  0.18184  0.43755  1.0000 0.2092587199
C   C19       1.0  0.27733  0.18102  0.45815  1.0000 -0.2640712861
C   C20       1.0  0.10260  0.00922  0.64967  1.0000 -0.1089928788
C   C21       1.0  0.01140  0.00928  0.67984  1.0000 -0.0308214896
C   C22       1.0  0.96757  0.12289  0.59492  1.0000 0.0893888469
C   C23       1.0  0.99329  0.25918  0.34712  1.0000 0.1020254749
C   C24       1.0  0.15000  0.21300  0.31205  1.0000 -0.091733117
C   C25       1.0  0.06720  0.25070  0.25785  1.0000 -0.0365417529
C   C26       1.0  0.74540  0.47580  0.30816  1.0000 0.62582913
C   C27       1.0  0.73200  0.58070  0.34652  1.0000 -0.3944049184
C   C28       1.0  0.74260  0.56790  0.42359  1.0000 0.1411519791
C   C29       1.0  0.64530  0.55440  0.44887  1.0000 -0.1584683363
C   C30       1.0  0.65420  0.53710  0.51916  1.0000 -0.1584683363
C   C31       1.0  0.75990  0.53140  0.56546  1.0000 0.1411519791
C   C32       1.0  0.85690  0.54840  0.54019  1.0000 -0.1584683363
C   C33       1.0  0.84840  0.56720  0.47022  1.0000 -0.1584683363
C   C34       1.0  0.76670  0.50720  0.64107  1.0000 -0.3960748617
C   C35       1.0  0.77900  0.38650  0.65907  1.0000 0.6206294592
C   C36       1.0  0.52090  0.34910  0.11104  1.0000 0.1020254749
C   C37       1.0  0.52920  0.36610  0.00173  1.0000 -0.1089928788
C   C38       1.0  0.63650  0.36350  0.04325  1.0000 -0.0308214896
C   C39       1.0  0.32988  0.35645  0.02427  1.0000 0.2022566121
C   C40       1.0  0.26467  0.39087  0.07021  1.0000 -0.289746039
C   C41       1.0  0.14419  0.38646  0.04811  1.0000 0.2022566121
C   C42       1.0  0.08886  0.35201  0.98179  1.0000 -0.289746039
C   C43       1.0  0.15710  0.31816  0.93755  1.0000 0.2092587199
C   C44       1.0  0.27733  0.31898  0.95815  1.0000 -0.2640712861
C   C45       1.0  0.10260  0.49078  0.14967  1.0000 -0.1089928788
C   C46       1.0  0.01140  0.49072  0.17984  1.0000 -0.0308214896
C   C47       1.0  0.96757  0.37711  0.09492  1.0000 0.0893888469
C   C48       1.0  0.99329  0.24082  0.84712  1.0000 0.1020254749
C   C49       1.0  0.15000  0.28700  0.81205  1.0000 -0.091733117
C   C50       1.0  0.06720  0.24930  0.75785  1.0000 -0.0365417529
C   C51       1.0  0.25460  0.52420  0.69184  1.0000 0.62582913
C   C52       1.0  0.26800  0.41930  0.65348  1.0000 -0.3944049184
C   C53       1.0  0.25740  0.43210  0.57641  1.0000 0.1411519791
C   C54       1.0  0.35470  0.44560  0.55113  1.0000 -0.1584683363
C   C55       1.0  0.34580  0.46290  0.48084  1.0000 -0.1584683363
C   C56       1.0  0.24010  0.46860  0.43454  1.0000 0.1411519791
C   C57       1.0  0.14310  0.45160  0.45981  1.0000 -0.1584683363
C   C58       1.0  0.15160  0.43280  0.52978  1.0000 -0.1584683363
C   C59       1.0  0.23330  0.49280  0.35893  1.0000 -0.3960748617
C   C60       1.0  0.22100  0.61350  0.34093  1.0000 0.6206294592
C   C61       1.0  0.47910  0.65090  0.88896  1.0000 0.1020254749
C   C62       1.0  0.47080  0.63390  0.99827  1.0000 -0.1089928788
C   C63       1.0  0.36350  0.63650  0.95675  1.0000 -0.0308214896
C   C64       1.0  0.67012  0.64355  0.97573  1.0000 0.2022566121
C   C65       1.0  0.73533  0.60913  0.92979  1.0000 -0.289746039
C   C66       1.0  0.85581  0.61354  0.95189  1.0000 0.2022566121
C   C67       1.0  0.91114  0.64799  0.01821  1.0000 -0.289746039
C   C68       1.0  0.84290  0.68184  0.06245  1.0000 0.2092587199
C   C69       1.0  0.72267  0.68102  0.04185  1.0000 -0.2640712861
C   C70       1.0  0.89740  0.50922  0.85033  1.0000 -0.1089928788
C   C71       1.0  0.98860  0.50928  0.82016  1.0000 -0.0308214896
C   C72       1.0  0.03243  0.62289  0.90508  1.0000 0.0893888469
C   C73       1.0  0.00671  0.75918  0.15288  1.0000 0.1020254749
C   C74       1.0  0.85000  0.71300  0.18795  1.0000 -0.091733117
C   C75       1.0  0.93280  0.75070  0.24215  1.0000 -0.0365417529
C   C76       1.0  0.25460  0.97580  0.19184  1.0000 0.62582913
C   C77       1.0  0.26800  0.08070  0.15348  1.0000 -0.3944049184
C   C78       1.0  0.25740  0.06790  0.07641  1.0000 0.1411519791
C   C79       1.0  0.35470  0.05440  0.05113  1.0000 -0.1584683363
C   C80       1.0  0.34580  0.03710  0.98084  1.0000 -0.1584683363
C   C81       1.0  0.24010  0.03140  0.93454  1.0000 0.1411519791
C   C82       1.0  0.14310  0.04840  0.95981  1.0000 -0.1584683363
C   C83       1.0  0.15160  0.06720  0.02978  1.0000 -0.1584683363
C   C84       1.0  0.23330  0.00720  0.85893  1.0000 -0.3960748617
C   C85       1.0  0.22100  0.88650  0.84093  1.0000 0.6206294592
C   C86       1.0  0.47910  0.84910  0.38896  1.0000 0.1020254749
C   C87       1.0  0.47080  0.86610  0.49827  1.0000 -0.1089928788
C   C88       1.0  0.36350  0.86350  0.45675  1.0000 -0.0308214896
C   C89       1.0  0.67012  0.85645  0.47573  1.0000 0.2022566121
C   C90       1.0  0.73533  0.89087  0.42979  1.0000 -0.289746039
C   C91       1.0  0.85581  0.88646  0.45189  1.0000 0.2022566121
C   C92       1.0  0.91114  0.85201  0.51821  1.0000 -0.289746039
C   C93       1.0  0.84290  0.81816  0.56245  1.0000 0.2092587199
C   C94       1.0  0.72267  0.81898  0.54185  1.0000 -0.2640712861
C   C95       1.0  0.89740  0.99078  0.35033  1.0000 -0.1089928788
C   C96       1.0  0.98860  0.99072  0.32016  1.0000 -0.0308214896
C   C97       1.0  0.03243  0.87711  0.40508  1.0000 0.0893888469
C   C98       1.0  0.00671  0.74082  0.65288  1.0000 0.1020254749
C   C99       1.0  0.85000  0.78700  0.68795  1.0000 -0.091733117
C   C100      1.0  0.93280  0.74930  0.74215  1.0000 -0.0365417529
N   N1        1.0  0.63169  0.14762  0.61133  1.0000 -0.2666341815
N   N2        1.0  0.45392  0.14277  0.54527  1.0000 -0.008602613
N   N3        1.0  0.07422  0.08205  0.59482  1.0000 -0.008602613
N   N4        1.0  0.92670  0.08084  0.64588  1.0000 -0.289746039
N   N5        1.0  0.10302  0.21832  0.36922  1.0000 -0.008602613
N   N6        1.0  0.96906  0.28003  0.28020  1.0000 -0.2817657222
N   N7        1.0  0.63169  0.35238  0.11133  1.0000 -0.2666341815
N   N8        1.0  0.45392  0.35723  0.04527  1.0000 -0.008602613
N   N9        1.0  0.07422  0.41795  0.09482  1.0000 -0.008602613
N   N10       1.0  0.92670  0.41916  0.14588  1.0000 -0.289746039
N   N11       1.0  0.10302  0.28168  0.86922  1.0000 -0.008602613
N   N12       1.0  0.96906  0.21997  0.78020  1.0000 -0.2817657222
N   N13       1.0  0.36831  0.64762  0.88867  1.0000 -0.2666341815
N   N14       1.0  0.54608  0.64277  0.95473  1.0000 -0.008602613
N   N15       1.0  0.92578  0.58205  0.90518  1.0000 -0.008602613
N   N16       1.0  0.07330  0.58084  0.85412  1.0000 -0.289746039
N   N17       1.0  0.89698  0.71832  0.13078  1.0000 -0.008602613
N   N18       1.0  0.03094  0.78003  0.21980  1.0000 -0.2817657222
N   N19       1.0  0.36831  0.85238  0.38867  1.0000 -0.2666341815
N   N20       1.0  0.54608  0.85723  0.45473  1.0000 -0.008602613
N   N21       1.0  0.92578  0.91795  0.40518  1.0000 -0.008602613
N   N22       1.0  0.07330  0.91916  0.35412  1.0000 -0.289746039
N   N23       1.0  0.89698  0.78168  0.63078  1.0000 -0.008602613
N   N24       1.0  0.03094  0.71997  0.71980  1.0000 -0.2817657222
O   O1        1.0  0.75363  0.01142  0.74589  1.0000 -0.5928796534
O   O2        1.0  0.74640  0.11421  0.83581  1.0000 -0.5587680567
O   O3        1.0  0.83211  0.17474  0.12688  1.0000 -0.5587680567
O   O4        1.0  0.73722  0.14692  0.20859  1.0000 -0.5740450327
O   O5        1.0  0.75363  0.48858  0.24589  1.0000 -0.5928796534
O   O6        1.0  0.74640  0.38579  0.33581  1.0000 -0.5587680567
O   O7        1.0  0.83211  0.32526  0.62688  1.0000 -0.5587680567
O   O8        1.0  0.73722  0.35308  0.70859  1.0000 -0.5740450327
O   O9        1.0  0.24637  0.51142  0.75411  1.0000 -0.5928796534
O   O10       1.0  0.25360  0.61421  0.66419  1.0000 -0.5587680567
O   O11       1.0  0.16789  0.67474  0.37312  1.0000 -0.5587680567
O   O12       1.0  0.26278  0.64692  0.29141  1.0000 -0.5740450327
O   O13       1.0  0.24637  0.98858  0.25411  1.0000 -0.5928796534
O   O14       1.0  0.25360  0.88579  0.16419  1.0000 -0.5587680567
O   O15       1.0  0.16789  0.82526  0.87312  1.0000 -0.5587680567
O   O16       1.0  0.26278  0.85308  0.79141  1.0000 -0.5740450327
