# DDEC6 charges by PACMAN v1.1 (https://github.com/mtap-research/PACMAN-charge/)
data_2022[Cu][sql]2[ASR]8
_chemical_formula_sum              "Cu4 H88 C96 N16 O16"
_cell_length_a       10.0175
_cell_length_b       17.422
_cell_length_c       17.4293
_cell_angle_alpha    90
_cell_angle_beta     108.06
_cell_angle_gamma    90

_symmetry_space_group_name_H-M    "P 1"
_symmetry_Int_Tables_number       1

loop_
  _symmetry_equiv_pos_as_xyz
  'x, y, z'

loop_
  _atom_site_type_symbol
  _atom_site_label
  _atom_site_symmetry_multiplicity
  _atom_site_fract_x
  _atom_site_fract_y
  _atom_site_fract_z
  _atom_site_occupancy
  _atom_site_charge
Cu  Cu1       1.0  0.27396  0.99552  0.02017  1.0000 0.8070162194
Cu  Cu2       1.0  0.27396  0.50448  0.52017  1.0000 0.8070162194
Cu  Cu3       1.0  0.72604  0.49552  0.47983  1.0000 0.8070162194
Cu  Cu4       1.0  0.72604  0.00448  0.97983  1.0000 0.8070162194
H   H1        1.0  0.03134  0.49799  0.36779  1.0000 0.2879464584
H   H2        1.0  0.48116  0.50844  0.68495  1.0000 0.2879464584
H   H3        1.0  0.37144  0.79905  0.18824  1.0000 0.1210758809
H   H4        1.0  0.35976  0.69849  0.27199  1.0000 0.1210758809
H   H5        1.0  0.94496  0.73431  0.22295  1.0000 0.1116874139
H   H6        1.0  0.95748  0.83637  0.14092  1.0000 0.1210758809
H   H7        1.0  0.44699  0.64050  0.42666  1.0000 0.1569215911
H   H8        1.0  0.36492  0.71841  0.41564  1.0000 0.1400615158
H   H9        1.0  0.37634  0.66667  0.49099  1.0000 0.1502293356
H   H10       1.0  0.85362  0.53529  0.24001  1.0000 0.1502293356
H   H11       1.0  0.88671  0.60649  0.19396  1.0000 0.1400615158
H   H12       1.0  0.95795  0.52721  0.18950  1.0000 0.1569215911
H   H13       1.0  0.32152  0.10459  0.75434  1.0000 0.1210758809
H   H14       1.0  0.32299  0.21340  0.67938  1.0000 0.1210758809
H   H15       1.0  0.37183  0.34374  0.87651  1.0000 0.1210758809
H   H16       1.0  0.35646  0.23529  0.94943  1.0000 0.1329077738
H   H17       1.0  0.19054  0.29798  0.55664  1.0000 0.1502293356
H   H18       1.0  0.10662  0.31071  0.61801  1.0000 0.1400615158
H   H19       1.0  0.09831  0.37177  0.55062  1.0000 0.1569215911
H   H20       1.0  0.54640  0.46577  0.85668  1.0000 0.1502293356
H   H21       1.0  0.60475  0.38333  0.85024  1.0000 0.1502293356
H   H22       1.0  0.65580  0.45330  0.81013  1.0000 0.1502293356
H   H23       1.0  0.03134  0.00201  0.86779  1.0000 0.2879464584
H   H24       1.0  0.48116  0.99156  0.18495  1.0000 0.2879464584
H   H25       1.0  0.37144  0.70095  0.68824  1.0000 0.1210758809
H   H26       1.0  0.35976  0.80151  0.77199  1.0000 0.1210758809
H   H27       1.0  0.94496  0.76569  0.72295  1.0000 0.1116874139
H   H28       1.0  0.95748  0.66363  0.64092  1.0000 0.1210758809
H   H29       1.0  0.44699  0.85950  0.92666  1.0000 0.1569215911
H   H30       1.0  0.36492  0.78159  0.91564  1.0000 0.1400615158
H   H31       1.0  0.37634  0.83335  0.99099  1.0000 0.1502293356
H   H32       1.0  0.85362  0.96471  0.74001  1.0000 0.1502293356
H   H33       1.0  0.88671  0.89351  0.69396  1.0000 0.1400615158
H   H34       1.0  0.95795  0.97279  0.68950  1.0000 0.1569215911
H   H35       1.0  0.32152  0.39541  0.25434  1.0000 0.1210758809
H   H36       1.0  0.32299  0.28660  0.17938  1.0000 0.1210758809
H   H37       1.0  0.37183  0.15626  0.37651  1.0000 0.1210758809
H   H38       1.0  0.35646  0.26471  0.44943  1.0000 0.1329077738
H   H39       1.0  0.19054  0.20202  0.05664  1.0000 0.1502293356
H   H40       1.0  0.10662  0.18929  0.11801  1.0000 0.1400615158
H   H41       1.0  0.09831  0.12823  0.05062  1.0000 0.1569215911
H   H42       1.0  0.54640  0.03423  0.35668  1.0000 0.1502293356
H   H43       1.0  0.60475  0.11667  0.35024  1.0000 0.1502293356
H   H44       1.0  0.65580  0.04670  0.31013  1.0000 0.1502293356
H   H45       1.0  0.96866  0.99799  0.13221  1.0000 0.2879464584
H   H46       1.0  0.51884  0.00844  0.81505  1.0000 0.2879464584
H   H47       1.0  0.62856  0.29905  0.31176  1.0000 0.1210758809
H   H48       1.0  0.64024  0.19849  0.22801  1.0000 0.1210758809
H   H49       1.0  0.05504  0.23431  0.27705  1.0000 0.1116874139
H   H50       1.0  0.04252  0.33637  0.35908  1.0000 0.1210758809
H   H51       1.0  0.55301  0.14050  0.07334  1.0000 0.1569215911
H   H52       1.0  0.63508  0.21841  0.08436  1.0000 0.1400615158
H   H53       1.0  0.62366  0.16665  0.00901  1.0000 0.1502293356
H   H54       1.0  0.14638  0.03529  0.25999  1.0000 0.1502293356
H   H55       1.0  0.11329  0.10649  0.30604  1.0000 0.1400615158
H   H56       1.0  0.04205  0.02721  0.31050  1.0000 0.1569215911
H   H57       1.0  0.67848  0.60459  0.74566  1.0000 0.1210758809
H   H58       1.0  0.67701  0.71340  0.82062  1.0000 0.1210758809
H   H59       1.0  0.62817  0.84374  0.62349  1.0000 0.1210758809
H   H60       1.0  0.64354  0.73529  0.55057  1.0000 0.1329077738
H   H61       1.0  0.80946  0.79798  0.94336  1.0000 0.1502293356
H   H62       1.0  0.89338  0.81071  0.88199  1.0000 0.1400615158
H   H63       1.0  0.90169  0.87177  0.94938  1.0000 0.1569215911
H   H64       1.0  0.45360  0.96577  0.64332  1.0000 0.1502293356
H   H65       1.0  0.39525  0.88333  0.64976  1.0000 0.1502293356
H   H66       1.0  0.34420  0.95330  0.68987  1.0000 0.1502293356
H   H67       1.0  0.96866  0.50201  0.63221  1.0000 0.2879464584
H   H68       1.0  0.51884  0.49156  0.31505  1.0000 0.2879464584
H   H69       1.0  0.62856  0.20095  0.81176  1.0000 0.1210758809
H   H70       1.0  0.64024  0.30151  0.72801  1.0000 0.1210758809
H   H71       1.0  0.05504  0.26569  0.77705  1.0000 0.1116874139
H   H72       1.0  0.04252  0.16363  0.85908  1.0000 0.1210758809
H   H73       1.0  0.55301  0.35950  0.57334  1.0000 0.1569215911
H   H74       1.0  0.63508  0.28159  0.58436  1.0000 0.1400615158
H   H75       1.0  0.62366  0.33333  0.50901  1.0000 0.1502293356
H   H76       1.0  0.14638  0.46471  0.75999  1.0000 0.1502293356
H   H77       1.0  0.11329  0.39351  0.80604  1.0000 0.1400615158
H   H78       1.0  0.04205  0.47279  0.81050  1.0000 0.1569215911
H   H79       1.0  0.67848  0.89541  0.24566  1.0000 0.1210758809
H   H80       1.0  0.67701  0.78660  0.32062  1.0000 0.1210758809
H   H81       1.0  0.62817  0.65626  0.12349  1.0000 0.1210758809
H   H82       1.0  0.64354  0.76471  0.05057  1.0000 0.1329077738
H   H83       1.0  0.80946  0.70202  0.44336  1.0000 0.1502293356
H   H84       1.0  0.89338  0.68929  0.38199  1.0000 0.1400615158
H   H85       1.0  0.90169  0.62823  0.44938  1.0000 0.1569215911
H   H86       1.0  0.45360  0.53423  0.14332  1.0000 0.1502293356
H   H87       1.0  0.39525  0.61667  0.14976  1.0000 0.1502293356
H   H88       1.0  0.34420  0.54670  0.18987  1.0000 0.1502293356
C   C1        1.0  0.17441  0.89484  0.10271  1.0000 0.5376903671
C   C2        1.0  0.16579  0.82857  0.15599  1.0000 -0.0294364584
C   C3        1.0  0.28600  0.78637  0.19550  1.0000 -0.1076217087
C   C4        1.0  0.27860  0.72570  0.24550  1.0000 -0.1492986671
C   C5        1.0  0.15100  0.70466  0.25680  1.0000 0.1116874139
C   C6        1.0  0.03082  0.74731  0.21642  1.0000 -0.1492986671
C   C7        1.0  0.03811  0.80857  0.16691  1.0000 -0.1076217087
C   C8        1.0  0.14424  0.64006  0.31034  1.0000 -0.1796995667
C   C9        1.0  0.36780  0.66650  0.43460  1.0000 -0.4905567845
C   C10       1.0  0.23599  0.62606  0.38869  1.0000 0.23160693
C   C11       1.0  0.04480  0.58182  0.29630  1.0000 0.2092573712
C   C12       1.0  0.92500  0.56080  0.22340  1.0000 -0.4781908658
C   C13       1.0  0.34612  0.08708  0.90912  1.0000 0.5492013353
C   C14       1.0  0.34124  0.15835  0.86014  1.0000 -0.0294364584
C   C15       1.0  0.33049  0.15258  0.77879  1.0000 -0.1076217087
C   C16       1.0  0.33305  0.21800  0.73405  1.0000 -0.1592332539
C   C17       1.0  0.35053  0.29050  0.76943  1.0000 0.1045673205
C   C18       1.0  0.36039  0.29593  0.85159  1.0000 -0.1592332539
C   C19       1.0  0.35323  0.23072  0.89573  1.0000 -0.0952381832
C   C20       1.0  0.36239  0.35895  0.72279  1.0000 -0.1869870131
C   C21       1.0  0.28155  0.37699  0.64255  1.0000 0.2194872307
C   C22       1.0  0.15817  0.33565  0.58697  1.0000 -0.4905567845
C   C23       1.0  0.46009  0.41781  0.74639  1.0000 0.2031735996
C   C24       1.0  0.57720  0.43130  0.82270  1.0000 -0.4781908658
C   C25       1.0  0.17441  0.60516  0.60271  1.0000 0.5376903671
C   C26       1.0  0.16579  0.67143  0.65599  1.0000 -0.0294364584
C   C27       1.0  0.28600  0.71363  0.69550  1.0000 -0.1076217087
C   C28       1.0  0.27860  0.77430  0.74550  1.0000 -0.1492986671
C   C29       1.0  0.15100  0.79534  0.75680  1.0000 0.1116874139
C   C30       1.0  0.03082  0.75269  0.71642  1.0000 -0.1492986671
C   C31       1.0  0.03811  0.69143  0.66691  1.0000 -0.1076217087
C   C32       1.0  0.14424  0.85994  0.81034  1.0000 -0.1796995667
C   C33       1.0  0.36780  0.83350  0.93460  1.0000 -0.4905567845
C   C34       1.0  0.23599  0.87394  0.88869  1.0000 0.23160693
C   C35       1.0  0.04480  0.91818  0.79630  1.0000 0.2092573712
C   C36       1.0  0.92500  0.93920  0.72340  1.0000 -0.4781908658
C   C37       1.0  0.34612  0.41292  0.40912  1.0000 0.5492013353
C   C38       1.0  0.34124  0.34165  0.36014  1.0000 -0.0294364584
C   C39       1.0  0.33049  0.34742  0.27879  1.0000 -0.1076217087
C   C40       1.0  0.33305  0.28200  0.23405  1.0000 -0.1592332539
C   C41       1.0  0.35053  0.20950  0.26943  1.0000 0.1045673205
C   C42       1.0  0.36039  0.20407  0.35159  1.0000 -0.1592332539
C   C43       1.0  0.35323  0.26928  0.39573  1.0000 -0.0952381832
C   C44       1.0  0.36239  0.14105  0.22279  1.0000 -0.1869870131
C   C45       1.0  0.28155  0.12301  0.14255  1.0000 0.2194872307
C   C46       1.0  0.15817  0.16435  0.08697  1.0000 -0.4905567845
C   C47       1.0  0.46009  0.08219  0.24639  1.0000 0.2031735996
C   C48       1.0  0.57720  0.06870  0.32270  1.0000 -0.4781908658
C   C49       1.0  0.82559  0.39484  0.39729  1.0000 0.5376903671
C   C50       1.0  0.83421  0.32857  0.34401  1.0000 -0.0294364584
C   C51       1.0  0.71400  0.28637  0.30450  1.0000 -0.1076217087
C   C52       1.0  0.72140  0.22570  0.25450  1.0000 -0.1492986671
C   C53       1.0  0.84900  0.20466  0.24320  1.0000 0.1116874139
C   C54       1.0  0.96918  0.24731  0.28358  1.0000 -0.1492986671
C   C55       1.0  0.96189  0.30857  0.33309  1.0000 -0.1076217087
C   C56       1.0  0.85576  0.14006  0.18966  1.0000 -0.1796995667
C   C57       1.0  0.63220  0.16650  0.06540  1.0000 -0.4905567845
C   C58       1.0  0.76401  0.12606  0.11131  1.0000 0.23160693
C   C59       1.0  0.95520  0.08182  0.20370  1.0000 0.2092573712
C   C60       1.0  0.07500  0.06080  0.27660  1.0000 -0.4781908658
C   C61       1.0  0.65388  0.58708  0.59088  1.0000 0.5492013353
C   C62       1.0  0.65876  0.65835  0.63986  1.0000 -0.0294364584
C   C63       1.0  0.66951  0.65258  0.72121  1.0000 -0.1076217087
C   C64       1.0  0.66695  0.71800  0.76595  1.0000 -0.1592332539
C   C65       1.0  0.64947  0.79050  0.73057  1.0000 0.1045673205
C   C66       1.0  0.63961  0.79593  0.64841  1.0000 -0.1592332539
C   C67       1.0  0.64677  0.73072  0.60427  1.0000 -0.0952381832
C   C68       1.0  0.63761  0.85895  0.77721  1.0000 -0.1869870131
C   C69       1.0  0.71845  0.87699  0.85745  1.0000 0.2194872307
C   C70       1.0  0.84183  0.83565  0.91303  1.0000 -0.4905567845
C   C71       1.0  0.53991  0.91781  0.75361  1.0000 0.2031735996
C   C72       1.0  0.42280  0.93130  0.67730  1.0000 -0.4781908658
C   C73       1.0  0.82559  0.10516  0.89729  1.0000 0.5376903671
C   C74       1.0  0.83421  0.17143  0.84401  1.0000 -0.0294364584
C   C75       1.0  0.71400  0.21363  0.80450  1.0000 -0.1076217087
C   C76       1.0  0.72140  0.27430  0.75450  1.0000 -0.1492986671
C   C77       1.0  0.84900  0.29534  0.74320  1.0000 0.1116874139
C   C78       1.0  0.96918  0.25269  0.78358  1.0000 -0.1492986671
C   C79       1.0  0.96189  0.19143  0.83309  1.0000 -0.1076217087
C   C80       1.0  0.85576  0.35994  0.68966  1.0000 -0.1796995667
C   C81       1.0  0.63220  0.33350  0.56540  1.0000 -0.4905567845
C   C82       1.0  0.76401  0.37394  0.61131  1.0000 0.23160693
C   C83       1.0  0.95520  0.41818  0.70370  1.0000 0.2092573712
C   C84       1.0  0.07500  0.43920  0.77660  1.0000 -0.4781908658
C   C85       1.0  0.65388  0.91292  0.09088  1.0000 0.5492013353
C   C86       1.0  0.65876  0.84165  0.13986  1.0000 -0.0294364584
C   C87       1.0  0.66951  0.84742  0.22121  1.0000 -0.1076217087
C   C88       1.0  0.66695  0.78200  0.26595  1.0000 -0.1592332539
C   C89       1.0  0.64947  0.70950  0.23057  1.0000 0.1045673205
C   C90       1.0  0.63961  0.70407  0.14841  1.0000 -0.1592332539
C   C91       1.0  0.64677  0.76928  0.10427  1.0000 -0.0952381832
C   C92       1.0  0.63761  0.64105  0.27721  1.0000 -0.1869870131
C   C93       1.0  0.71845  0.62301  0.35745  1.0000 0.2194872307
C   C94       1.0  0.84183  0.66435  0.41303  1.0000 -0.4905567845
C   C95       1.0  0.53991  0.58219  0.25361  1.0000 0.2031735996
C   C96       1.0  0.42280  0.56870  0.17730  1.0000 -0.4781908658
N   N1        1.0  0.19209  0.56461  0.41999  1.0000 -0.2370500905
N   N2        1.0  0.07757  0.53815  0.36247  1.0000 -0.1405764748
N   N3        1.0  0.43497  0.46669  0.68427  1.0000 -0.1492986671
N   N4        1.0  0.32799  0.44229  0.62019  1.0000 -0.2321148892
N   N5        1.0  0.19209  0.93539  0.91999  1.0000 -0.2370500905
N   N6        1.0  0.07757  0.96185  0.86247  1.0000 -0.1405764748
N   N7        1.0  0.43497  0.03331  0.18427  1.0000 -0.1492986671
N   N8        1.0  0.32799  0.05771  0.12019  1.0000 -0.2321148892
N   N9        1.0  0.80791  0.06461  0.08001  1.0000 -0.2370500905
N   N10       1.0  0.92243  0.03815  0.13753  1.0000 -0.1405764748
N   N11       1.0  0.56503  0.96669  0.81573  1.0000 -0.1492986671
N   N12       1.0  0.67201  0.94229  0.87981  1.0000 -0.2321148892
N   N13       1.0  0.80791  0.43539  0.58001  1.0000 -0.2370500905
N   N14       1.0  0.92243  0.46185  0.63753  1.0000 -0.1405764748
N   N15       1.0  0.56503  0.53331  0.31573  1.0000 -0.1492986671
N   N16       1.0  0.67201  0.55771  0.37981  1.0000 -0.2321148892
O   O1        1.0  0.41664  0.03145  0.89974  1.0000 -0.5553787095
O   O2        1.0  0.27692  0.08936  0.95942  1.0000 -0.5220143539
O   O3        1.0  0.07266  0.93932  0.07726  1.0000 -0.5499471766
O   O4        1.0  0.28916  0.90241  0.08616  1.0000 -0.528354202
O   O5        1.0  0.41664  0.46855  0.39974  1.0000 -0.5553787095
O   O6        1.0  0.27692  0.41064  0.45942  1.0000 -0.5220143539
O   O7        1.0  0.07266  0.56068  0.57726  1.0000 -0.5499471766
O   O8        1.0  0.28916  0.59759  0.58616  1.0000 -0.528354202
O   O9        1.0  0.58336  0.53145  0.60026  1.0000 -0.5553787095
O   O10       1.0  0.72308  0.58936  0.54058  1.0000 -0.5220143539
O   O11       1.0  0.92734  0.43932  0.42274  1.0000 -0.5499471766
O   O12       1.0  0.71084  0.40241  0.41384  1.0000 -0.528354202
O   O13       1.0  0.58336  0.96855  0.10026  1.0000 -0.5553787095
O   O14       1.0  0.72308  0.91064  0.04058  1.0000 -0.5220143539
O   O15       1.0  0.92734  0.06068  0.92274  1.0000 -0.5499471766
O   O16       1.0  0.71084  0.09759  0.91384  1.0000 -0.528354202
