# DDEC6 charges by PACMAN v1.1 (https://github.com/mtap-research/PACMAN-charge/)
data_2022[Zn][dia]3[ASR]4
_chemical_formula_sum              "Zn4 H92 C136 I4 N24 O28"
_cell_length_a       13.1803
_cell_length_b       13.1803
_cell_length_c       25.5352
_cell_angle_alpha    81.586
_cell_angle_beta     98.414
_cell_angle_gamma    81.8061

_symmetry_space_group_name_H-M    "P 1"
_symmetry_Int_Tables_number       1

loop_
  _symmetry_equiv_pos_as_xyz
  'x, y, z'

loop_
  _atom_site_type_symbol
  _atom_site_label
  _atom_site_symmetry_multiplicity
  _atom_site_fract_x
  _atom_site_fract_y
  _atom_site_fract_z
  _atom_site_occupancy
  _atom_site_charge
Zn  Zn1       1.0  0.89126  0.47848  0.11197  1.0000 0.7318860341
Zn  Zn2       1.0  0.52152  0.10874  0.61197  1.0000 0.7318860341
Zn  Zn3       1.0  0.92165  0.72529  0.50440  1.0000 0.7318860341
Zn  Zn4       1.0  0.27471  0.07835  0.00440  1.0000 0.7318860341
H   H1        1.0  0.00050  0.26390  0.10080  1.0000 0.1199347727
H   H2        1.0  0.14960  0.14580  0.13900  1.0000 0.1471066027
H   H3        1.0  0.21670  0.33810  0.24460  1.0000 0.1407047296
H   H4        1.0  0.06590  0.45170  0.20310  1.0000 0.1199347727
H   H5        1.0  0.31280  0.09260  0.20970  1.0000 0.1199347727
H   H6        1.0  0.47230  0.06850  0.25920  1.0000 0.2571820517
H   H7        1.0  0.62030  0.00930  0.25360  1.0000 0.1101269558
H   H8        1.0  0.90530  0.93730  0.34710  1.0000 0.1292331166
H   H9        1.0  0.69250  0.17070  0.37340  1.0000 0.1292331166
H   H10       1.0  0.98710  0.95810  0.41610  1.0000 0.275883605
H   H11       1.0  0.14390  0.91370  0.46220  1.0000 0.1292331166
H   H12       1.0  0.33500  0.88140  0.50080  1.0000 0.1471066027
H   H13       1.0  0.47490  0.92710  0.55310  1.0000 0.1101269558
H   H14       1.0  0.29730  0.16590  0.58670  1.0000 0.1292331166
H   H15       1.0  0.15180  0.13000  0.53370  1.0000 0.1471066027
H   H16       1.0  0.68110  0.35810  0.25400  1.0000 0.1101269558
H   H17       1.0  0.61750  0.39010  0.33250  1.0000 0.1407047296
H   H18       1.0  0.74240  0.65360  0.32650  1.0000 0.1292331166
H   H19       1.0  0.80300  0.62380  0.24810  1.0000 0.1011512825
H   H20       1.0  0.49730  0.56410  0.43370  1.0000 0.1407047296
H   H21       1.0  0.45360  0.44000  0.49940  1.0000 0.1199347727
H   H22       1.0  0.70410  0.23430  0.48580  1.0000 0.1199347727
H   H23       1.0  0.74770  0.35690  0.42100  1.0000 0.1407047296
H   H24       1.0  0.73610  0.99950  0.60080  1.0000 0.1199347727
H   H25       1.0  0.85420  0.85040  0.63900  1.0000 0.1471066027
H   H26       1.0  0.66190  0.78330  0.74460  1.0000 0.1407047296
H   H27       1.0  0.54830  0.93410  0.70310  1.0000 0.1199347727
H   H28       1.0  0.90740  0.68720  0.70970  1.0000 0.1199347727
H   H29       1.0  0.93150  0.52770  0.75920  1.0000 0.2571820517
H   H30       1.0  0.99070  0.37970  0.75360  1.0000 0.1101269558
H   H31       1.0  0.06270  0.09470  0.84710  1.0000 0.1292331166
H   H32       1.0  0.82930  0.30750  0.87340  1.0000 0.1292331166
H   H33       1.0  0.04190  0.01290  0.91610  1.0000 0.275883605
H   H34       1.0  0.08630  0.85610  0.96220  1.0000 0.1292331166
H   H35       1.0  0.11860  0.66500  0.00080  1.0000 0.1471066027
H   H36       1.0  0.07290  0.52510  0.05310  1.0000 0.1101269558
H   H37       1.0  0.83410  0.70270  0.08670  1.0000 0.1292331166
H   H38       1.0  0.87000  0.84820  0.03370  1.0000 0.1471066027
H   H39       1.0  0.64190  0.31890  0.75400  1.0000 0.1101269558
H   H40       1.0  0.60990  0.38250  0.83250  1.0000 0.1471066027
H   H41       1.0  0.34640  0.25760  0.82650  1.0000 0.1292331166
H   H42       1.0  0.37620  0.19700  0.74810  1.0000 0.1011512825
H   H43       1.0  0.43590  0.50270  0.93370  1.0000 0.1407047296
H   H44       1.0  0.56000  0.54640  0.99940  1.0000 0.1199347727
H   H45       1.0  0.76570  0.29590  0.98580  1.0000 0.1199347727
H   H46       1.0  0.64310  0.25230  0.92100  1.0000 0.1407047296
H   H47       1.0  0.00820  0.55740  0.59910  1.0000 0.1199347727
H   H48       1.0  0.96760  0.41200  0.64850  1.0000 0.1292331166
H   H49       1.0  0.68120  0.47500  0.55600  1.0000 0.1407047296
H   H50       1.0  0.72940  0.61980  0.51010  1.0000 0.1101269558
H   H51       1.0  0.71980  0.32560  0.63530  1.0000 0.1292331166
H   H52       1.0  0.76690  0.18430  0.69890  1.0000 0.275883605
H   H53       1.0  0.74540  0.11340  0.77050  1.0000 0.1292331166
H   H54       1.0  0.82080  0.83680  0.87320  1.0000 0.1199347727
H   H55       1.0  0.99220  0.90240  0.75670  1.0000 0.1292331166
H   H56       1.0  0.89750  0.69070  0.87960  1.0000 0.2571820517
H   H57       1.0  0.92610  0.53350  0.92840  1.0000 0.1199347727
H   H58       1.0  0.96400  0.35940  0.98740  1.0000 0.1471066027
H   H59       1.0  0.07100  0.20020  0.01930  1.0000 0.1199347727
H   H60       1.0  0.26130  0.26370  0.91800  1.0000 0.1101269558
H   H61       1.0  0.16660  0.42880  0.88730  1.0000 0.1407047296
H   H62       1.0  0.13010  0.80810  0.36090  1.0000 0.1101269558
H   H63       1.0  0.18200  0.77480  0.28090  1.0000 0.1407047296
H   H64       1.0  0.99370  0.55750  0.27400  1.0000 0.1292331166
H   H65       1.0  0.94710  0.58650  0.35530  1.0000 0.1101269558
H   H66       1.0  0.24550  0.61690  0.15850  1.0000 0.1407047296
H   H67       1.0  0.28960  0.74260  0.09560  1.0000 0.1199347727
H   H68       1.0  0.07510  0.96150  0.13190  1.0000 0.1199347727
H   H69       1.0  0.03140  0.83580  0.19650  1.0000 0.1407047296
H   H70       1.0  0.44260  0.99180  0.09910  1.0000 0.1199347727
H   H71       1.0  0.58800  0.03240  0.14850  1.0000 0.1292331166
H   H72       1.0  0.52500  0.31880  0.05600  1.0000 0.1407047296
H   H73       1.0  0.38020  0.27060  0.01010  1.0000 0.1101269558
H   H74       1.0  0.67440  0.28020  0.13530  1.0000 0.1292331166
H   H75       1.0  0.81570  0.23310  0.19890  1.0000 0.275883605
H   H76       1.0  0.88660  0.25460  0.27050  1.0000 0.1292331166
H   H77       1.0  0.16320  0.17920  0.37320  1.0000 0.1199347727
H   H78       1.0  0.09760  0.00780  0.25670  1.0000 0.1292331166
H   H79       1.0  0.30930  0.10250  0.37960  1.0000 0.2571820517
H   H80       1.0  0.46650  0.07390  0.42840  1.0000 0.1199347727
H   H81       1.0  0.64060  0.03600  0.48740  1.0000 0.1471066027
H   H82       1.0  0.79980  0.92900  0.51930  1.0000 0.1199347727
H   H83       1.0  0.73630  0.73870  0.41800  1.0000 0.1101269558
H   H84       1.0  0.57120  0.83340  0.38730  1.0000 0.1407047296
H   H85       1.0  0.19190  0.86990  0.86090  1.0000 0.1101269558
H   H86       1.0  0.22520  0.81800  0.78090  1.0000 0.1407047296
H   H87       1.0  0.44250  0.00630  0.77400  1.0000 0.1292331166
H   H88       1.0  0.41350  0.05290  0.85530  1.0000 0.1101269558
H   H89       1.0  0.38310  0.75450  0.65850  1.0000 0.1407047296
H   H90       1.0  0.25740  0.71040  0.59560  1.0000 0.1199347727
H   H91       1.0  0.03850  0.92490  0.63190  1.0000 0.1199347727
H   H92       1.0  0.16420  0.96860  0.69650  1.0000 0.1407047296
C   C1        1.0  0.04590  0.27950  0.12990  1.0000 0.0802864226
C   C2        1.0  0.13400  0.20860  0.15250  1.0000 -0.1889258426
C   C3        1.0  0.19920  0.23060  0.19550  1.0000 0.1292331166
C   C4        1.0  0.17360  0.32200  0.21470  1.0000 -0.1709578411
C   C5        1.0  0.08400  0.38920  0.18970  1.0000 0.0802864226
C   C6        1.0  0.29900  0.16040  0.21840  1.0000 -0.0294444326
C   C7        1.0  0.53540  0.16660  0.29860  1.0000 0.4296883095
C   C8        1.0  0.64010  0.09890  0.31240  1.0000 -0.0171027358
C   C9        1.0  0.66820  0.02120  0.28280  1.0000 -0.1983430896
C   C10       1.0  0.76680  0.96180  0.29660  1.0000 0.0802864226
C   C11       1.0  0.83800  0.97880  0.33820  1.0000 -0.1637196045
C   C12       1.0  0.81070  0.05750  0.36740  1.0000 -0.0109384835
C   C13       1.0  0.71140  0.11700  0.35380  1.0000 -0.1250677209
C   C14       1.0  0.88420  0.08520  0.41180  1.0000 0.4296883095
C   C15       1.0  0.13920  0.97780  0.47520  1.0000 -0.0294444326
C   C16       1.0  0.22850  0.00270  0.51000  1.0000 0.1292331166
C   C17       1.0  0.32540  0.94140  0.51730  1.0000 -0.1983430896
C   C18       1.0  0.40840  0.96900  0.54890  1.0000 0.0707048028
C   C19       1.0  0.30480  0.10840  0.56820  1.0000 0.1011512825
C   C20       1.0  0.21770  0.08750  0.53680  1.0000 -0.1709578411
C   C21       1.0  0.79570  0.46510  0.19560  1.0000 0.5575204093
C   C22       1.0  0.74980  0.48620  0.24380  1.0000 -0.0494258839
C   C23       1.0  0.69440  0.41780  0.26890  1.0000 -0.0818678576
C   C24       1.0  0.65750  0.43590  0.31590  1.0000 -0.2205328359
C   C25       1.0  0.68030  0.52110  0.33790  1.0000 0.2571820517
C   C26       1.0  0.73160  0.59280  0.31220  1.0000 -0.212350712
C   C27       1.0  0.76680  0.57520  0.26560  1.0000 -0.0884608373
C   C28       1.0  0.62540  0.47000  0.42160  1.0000 0.2445849304
C   C29       1.0  0.53860  0.49700  0.44430  1.0000 -0.2205328359
C   C30       1.0  0.51310  0.42330  0.48330  1.0000 -0.0884608373
C   C31       1.0  0.57500  0.32520  0.49850  1.0000 -0.063089811
C   C32       1.0  0.66190  0.30110  0.47520  1.0000 -0.0818678576
C   C33       1.0  0.68780  0.37320  0.43680  1.0000 -0.212350712
C   C34       1.0  0.54610  0.24790  0.53930  1.0000 0.5514238227
C   C35       1.0  0.72050  0.95410  0.62990  1.0000 0.0802864226
C   C36       1.0  0.79140  0.86600  0.65250  1.0000 -0.1889258426
C   C37       1.0  0.76940  0.80080  0.69550  1.0000 0.1292331166
C   C38       1.0  0.67800  0.82640  0.71470  1.0000 -0.1709578411
C   C39       1.0  0.61080  0.91600  0.68970  1.0000 0.0802864226
C   C40       1.0  0.83960  0.70100  0.71840  1.0000 -0.0294444326
C   C41       1.0  0.83340  0.46460  0.79860  1.0000 0.4296883095
C   C42       1.0  0.90110  0.35990  0.81240  1.0000 -0.0171027358
C   C43       1.0  0.97880  0.33180  0.78280  1.0000 -0.1983430896
C   C44       1.0  0.03820  0.23320  0.79660  1.0000 0.0802864226
C   C45       1.0  0.02120  0.16200  0.83820  1.0000 -0.1637196045
C   C46       1.0  0.94250  0.18930  0.86740  1.0000 -0.0109384835
C   C47       1.0  0.88300  0.28860  0.85380  1.0000 -0.1250677209
C   C48       1.0  0.91480  0.11580  0.91180  1.0000 0.4296883095
C   C49       1.0  0.02220  0.86080  0.97520  1.0000 -0.0294444326
C   C50       1.0  0.99730  0.77150  0.01000  1.0000 0.1292331166
C   C51       1.0  0.05860  0.67460  0.01730  1.0000 -0.1983430896
C   C52       1.0  0.03100  0.59160  0.04890  1.0000 0.0707048028
C   C53       1.0  0.89160  0.69520  0.06820  1.0000 0.094336522
C   C54       1.0  0.91250  0.78230  0.03680  1.0000 -0.1709578411
C   C55       1.0  0.53490  0.20430  0.69560  1.0000 0.5575204093
C   C56       1.0  0.51380  0.25020  0.74380  1.0000 -0.0494258839
C   C57       1.0  0.58220  0.30560  0.76890  1.0000 -0.0818678576
C   C58       1.0  0.56410  0.34250  0.81590  1.0000 -0.2205328359
C   C59       1.0  0.47890  0.31970  0.83790  1.0000 0.2571820517
C   C60       1.0  0.40720  0.26840  0.81220  1.0000 -0.212350712
C   C61       1.0  0.42480  0.23320  0.76560  1.0000 -0.0884608373
C   C62       1.0  0.53000  0.37460  0.92160  1.0000 0.2445849304
C   C63       1.0  0.50300  0.46140  0.94430  1.0000 -0.2205328359
C   C64       1.0  0.57670  0.48690  0.98330  1.0000 -0.0884608373
C   C65       1.0  0.67480  0.42500  0.99850  1.0000 -0.063089811
C   C66       1.0  0.69890  0.33810  0.97520  1.0000 -0.0818678576
C   C67       1.0  0.62680  0.31220  0.93680  1.0000 -0.212350712
C   C68       1.0  0.75210  0.45390  0.03930  1.0000 0.5514238227
C   C69       1.0  0.94080  0.54040  0.59050  1.0000 0.0707048028
C   C70       1.0  0.91750  0.45290  0.61990  1.0000 -0.1848891478
C   C71       1.0  0.82010  0.42530  0.60730  1.0000 0.1292331166
C   C72       1.0  0.74910  0.49030  0.56550  1.0000 -0.1889258426
C   C73       1.0  0.77860  0.57680  0.53850  1.0000 0.0802864226
C   C74       1.0  0.79080  0.33240  0.63650  1.0000 -0.0109384835
C   C75       1.0  0.90030  0.09070  0.71220  1.0000 0.4212183107
C   C76       1.0  0.87190  0.01850  0.75720  1.0000 0.0010215377
C   C77       1.0  0.78900  0.04760  0.78230  1.0000 -0.1709578411
C   C78       1.0  0.77060  0.97860  0.82520  1.0000 0.0802864226
C   C79       1.0  0.83380  0.88220  0.84340  1.0000 -0.1983430896
C   C80       1.0  0.91660  0.85320  0.81730  1.0000 -0.0171027358
C   C81       1.0  0.93560  0.92160  0.77440  1.0000 -0.1359177481
C   C82       1.0  0.98980  0.75060  0.83320  1.0000 0.4296883095
C   C83       1.0  0.98980  0.51620  0.91600  1.0000 -0.0375456519
C   C84       1.0  0.05440  0.41340  0.93450  1.0000 0.1292331166
C   C85       1.0  0.02610  0.34250  0.97350  1.0000 -0.1983430896
C   C86       1.0  0.08970  0.24710  0.99180  1.0000 0.0802864226
C   C87       1.0  0.20170  0.28470  0.93320  1.0000 0.0707048028
C   C88       1.0  0.14490  0.38270  0.91400  1.0000 -0.1848891478
C   C89       1.0  0.99470  0.72490  0.41570  1.0000 0.5575204093
C   C90       1.0  0.03100  0.70140  0.36530  1.0000 -0.0494258839
C   C91       1.0  0.10260  0.75700  0.34310  1.0000 -0.0818678576
C   C92       1.0  0.13300  0.73780  0.29570  1.0000 -0.212350712
C   C93       1.0  0.09120  0.66380  0.26960  1.0000 0.2571820517
C   C94       1.0  0.02160  0.60820  0.29190  1.0000 -0.212350712
C   C95       1.0  0.99320  0.62620  0.33970  1.0000 -0.0884608373
C   C96       1.0  0.13860  0.71660  0.18440  1.0000 0.2537535329
C   C97       1.0  0.21260  0.68740  0.15380  1.0000 -0.2205328359
C   C98       1.0  0.23800  0.76180  0.11630  1.0000 -0.0884608373
C   C99       1.0  0.18860  0.86540  0.10840  1.0000 -0.063089811
C   C100      1.0  0.11080  0.89180  0.13800  1.0000 -0.0818678576
C   C101      1.0  0.08450  0.81770  0.17650  1.0000 -0.2287762303
C   C102      1.0  0.22070  0.94710  0.07100  1.0000 0.5429967392
C   C103      1.0  0.45960  0.05920  0.09050  1.0000 0.0707048028
C   C104      1.0  0.54710  0.08250  0.11990  1.0000 -0.1848891478
C   C105      1.0  0.57470  0.17990  0.10730  1.0000 0.1292331166
C   C106      1.0  0.50970  0.25090  0.06550  1.0000 -0.1889258426
C   C107      1.0  0.42320  0.22140  0.03850  1.0000 0.0802864226
C   C108      1.0  0.66760  0.20920  0.13650  1.0000 -0.0109384835
C   C109      1.0  0.90930  0.09970  0.21220  1.0000 0.4212183107
C   C110      1.0  0.98150  0.12810  0.25720  1.0000 0.0010215377
C   C111      1.0  0.95240  0.21100  0.28230  1.0000 -0.1709578411
C   C112      1.0  0.02140  0.22940  0.32520  1.0000 0.0802864226
C   C113      1.0  0.11780  0.16620  0.34340  1.0000 -0.1983430896
C   C114      1.0  0.14680  0.08340  0.31730  1.0000 -0.0171027358
C   C115      1.0  0.07840  0.06440  0.27440  1.0000 -0.1359177481
C   C116      1.0  0.24940  0.01020  0.33320  1.0000 0.4296883095
C   C117      1.0  0.48380  0.01020  0.41600  1.0000 -0.0375456519
C   C118      1.0  0.58660  0.94560  0.43450  1.0000 0.1292331166
C   C119      1.0  0.65750  0.97390  0.47350  1.0000 -0.1983430896
C   C120      1.0  0.75290  0.91030  0.49180  1.0000 0.0802864226
C   C121      1.0  0.71530  0.79830  0.43320  1.0000 0.0707048028
C   C122      1.0  0.61730  0.85510  0.41400  1.0000 -0.1889258426
C   C123      1.0  0.27510  0.00530  0.91570  1.0000 0.5575204093
C   C124      1.0  0.29860  0.96900  0.86530  1.0000 -0.0494258839
C   C125      1.0  0.24300  0.89740  0.84310  1.0000 -0.0818678576
C   C126      1.0  0.26220  0.86700  0.79570  1.0000 -0.212350712
C   C127      1.0  0.33620  0.90880  0.76960  1.0000 0.2571820517
C   C128      1.0  0.39180  0.97840  0.79190  1.0000 -0.212350712
C   C129      1.0  0.37380  0.00680  0.83970  1.0000 -0.0884608373
C   C130      1.0  0.28340  0.86140  0.68440  1.0000 0.2537535329
C   C131      1.0  0.31260  0.78740  0.65380  1.0000 -0.2205328359
C   C132      1.0  0.23820  0.76200  0.61630  1.0000 -0.0884608373
C   C133      1.0  0.13460  0.81140  0.60840  1.0000 -0.063089811
C   C134      1.0  0.10820  0.88920  0.63800  1.0000 -0.0818678576
C   C135      1.0  0.18230  0.91550  0.67650  1.0000 -0.2287762303
C   C136      1.0  0.05290  0.77930  0.57100  1.0000 0.5429967392
I   I1        1.0  0.80205  0.84317  0.25348  1.0000 0.006703055
I   I2        1.0  0.15683  0.19795  0.75348  1.0000 0.006703055
I   I3        1.0  0.64458  0.01794  0.86327  1.0000 0.0247531358
I   I4        1.0  0.98206  0.35542  0.36327  1.0000 0.0247531358
N   N1        1.0  0.02120  0.37000  0.14720  1.0000 -0.2287762303
N   N2        1.0  0.36560  0.19360  0.25010  1.0000 -0.11461608
N   N3        1.0  0.46030  0.13090  0.26780  1.0000 -0.2470829985
N   N4        1.0  0.97730  0.01770  0.42790  1.0000 -0.2287762303
N   N5        1.0  0.05410  0.04530  0.46250  1.0000 -0.0965078872
N   N6        1.0  0.39950  0.05090  0.57350  1.0000 -0.2205328359
N   N7        1.0  0.63000  0.97880  0.64720  1.0000 -0.2287762303
N   N8        1.0  0.80640  0.63440  0.75010  1.0000 -0.11461608
N   N9        1.0  0.86910  0.53970  0.76780  1.0000 -0.2445153545
N   N10       1.0  0.98230  0.02270  0.92790  1.0000 -0.2287762303
N   N11       1.0  0.95470  0.94590  0.96250  1.0000 -0.0965078872
N   N12       1.0  0.94910  0.60050  0.07350  1.0000 -0.2205328359
N   N13       1.0  0.87240  0.60340  0.54990  1.0000 -0.2205328359
N   N14       1.0  0.86280  0.26120  0.66330  1.0000 -0.11461608
N   N15       1.0  0.83130  0.17930  0.69280  1.0000 -0.2287762303
N   N16       1.0  0.95650  0.67750  0.86770  1.0000 -0.2470829985
N   N17       1.0  0.02100  0.58200  0.88270  1.0000 -0.1250677209
N   N18       1.0  0.17700  0.21760  0.97232  1.0000 -0.2287762303
N   N19       1.0  0.39660  0.12760  0.04990  1.0000 -0.2205328359
N   N20       1.0  0.73880  0.13720  0.16330  1.0000 -0.11461608
N   N21       1.0  0.82070  0.16870  0.19280  1.0000 -0.2287762303
N   N22       1.0  0.32250  0.04350  0.36770  1.0000 -0.2470829985
N   N23       1.0  0.41800  0.97900  0.38270  1.0000 -0.1250677209
N   N24       1.0  0.78240  0.82300  0.47232  1.0000 -0.2287762303
O   O1        1.0  0.52120  0.25160  0.31370  1.0000 -0.4405572142
O   O2        1.0  0.86300  0.16400  0.43070  1.0000 -0.4405572142
O   O3        1.0  0.78550  0.38350  0.17737  1.0000 -0.5711838614
O   O4        1.0  0.84810  0.53090  0.17565  1.0000 -0.5382009398
O   O5        1.0  0.64730  0.54750  0.38368  1.0000 -0.2287762303
O   O6        1.0  0.46870  0.27030  0.56231  1.0000 -0.5309555482
O   O7        1.0  0.60340  0.15800  0.55294  1.0000 -0.5711838614
O   O8        1.0  0.74840  0.47880  0.81370  1.0000 -0.4405572142
O   O9        1.0  0.83600  0.13700  0.93070  1.0000 -0.4405572142
O   O10       1.0  0.61650  0.21450  0.67737  1.0000 -0.5711838614
O   O11       1.0  0.46910  0.15190  0.67565  1.0000 -0.5382009398
O   O12       1.0  0.45250  0.35270  0.88368  1.0000 -0.2287762303
O   O13       1.0  0.72970  0.53130  0.06231  1.0000 -0.5309555482
O   O14       1.0  0.84200  0.39660  0.05294  1.0000 -0.5711838614
O   O15       1.0  0.98180  0.07040  0.69670  1.0000 -0.43105718
O   O16       1.0  0.06910  0.73590  0.81650  1.0000 -0.4048823666
O   O17       1.0  0.94640  0.65980  0.43988  1.0000 -0.5309555482
O   O18       1.0  0.01140  0.80560  0.43322  1.0000 -0.5603135676
O   O19       1.0  0.11910  0.63850  0.22210  1.0000 -0.2205328359
O   O20       1.0  0.29800  0.92420  0.04824  1.0000 -0.5309555482
O   O21       1.0  0.17310  0.03930  0.06247  1.0000 -0.5603135676
O   O22       1.0  0.92960  0.01820  0.19670  1.0000 -0.43105718
O   O23       1.0  0.26410  0.93090  0.31650  1.0000 -0.4048823666
O   O24       1.0  0.34020  0.05360  0.93988  1.0000 -0.5309555482
O   O25       1.0  0.19440  0.98860  0.93322  1.0000 -0.5711838614
O   O26       1.0  0.36150  0.88090  0.72210  1.0000 -0.2205328359
O   O27       1.0  0.07580  0.70200  0.54824  1.0000 -0.5309555482
O   O28       1.0  0.96070  0.82690  0.56247  1.0000 -0.5603135676
