# DDEC6 charges by PACMAN v1.1 (https://github.com/mtap-research/PACMAN-charge/)
data_2022[U][hcb]2[ASR]1
_chemical_formula_sum              "U8 H48 C72 O48"
_cell_length_a       10.6626
_cell_length_b       16.8415
_cell_length_c       30.7926
_cell_angle_alpha    90
_cell_angle_beta     90
_cell_angle_gamma    90

_symmetry_space_group_name_H-M    "P 1"
_symmetry_Int_Tables_number       1

loop_
  _symmetry_equiv_pos_as_xyz
  'x, y, z'

loop_
  _atom_site_type_symbol
  _atom_site_label
  _atom_site_symmetry_multiplicity
  _atom_site_fract_x
  _atom_site_fract_y
  _atom_site_fract_z
  _atom_site_occupancy
  _atom_site_charge
U   U1        1.0  0.83021  0.87779  0.86395  1.0000 2.1283525472
U   U2        1.0  0.16979  0.37779  0.63605  1.0000 2.1399005497
U   U3        1.0  0.16979  0.12221  0.13605  1.0000 2.1399005497
U   U4        1.0  0.83021  0.62221  0.36395  1.0000 2.1399005497
U   U5        1.0  0.66979  0.12221  0.36395  1.0000 2.1399005497
U   U6        1.0  0.33021  0.62221  0.13605  1.0000 2.1399005497
U   U7        1.0  0.33021  0.87779  0.63605  1.0000 2.1399005497
U   U8        1.0  0.66979  0.37779  0.86395  1.0000 2.1283525472
H   H1        1.0  0.80970  0.60424  0.81040  1.0000 0.1219038201
H   H2        1.0  0.95982  0.69411  0.75417  1.0000 0.1010580285
H   H3        1.0  0.90991  0.52617  0.74692  1.0000 0.1071391655
H   H4        1.0  0.04564  0.62890  0.69302  1.0000 0.1219038201
H   H5        1.0  0.52355  0.87347  0.98106  1.0000 0.1071391655
H   H6        1.0  0.59264  0.03286  0.97128  1.0000 0.1010580285
H   H7        1.0  0.19030  0.10424  0.68960  1.0000 0.1219038201
H   H8        1.0  0.04018  0.19411  0.74583  1.0000 0.1010580285
H   H9        1.0  0.09009  0.02617  0.75308  1.0000 0.1071391655
H   H10       1.0  0.95436  0.12890  0.80698  1.0000 0.1219038201
H   H11       1.0  0.47645  0.37347  0.51894  1.0000 0.1071391655
H   H12       1.0  0.40736  0.53286  0.52872  1.0000 0.1010580285
H   H13       1.0  0.19030  0.39576  0.18960  1.0000 0.1219038201
H   H14       1.0  0.04018  0.30589  0.24583  1.0000 0.1010580285
H   H15       1.0  0.09009  0.47383  0.25308  1.0000 0.1071391655
H   H16       1.0  0.95436  0.37110  0.30698  1.0000 0.1219038201
H   H17       1.0  0.47645  0.12653  0.01894  1.0000 0.1071391655
H   H18       1.0  0.40736  0.96714  0.02872  1.0000 0.1071391655
H   H19       1.0  0.80970  0.89576  0.31040  1.0000 0.1219038201
H   H20       1.0  0.95982  0.80589  0.25417  1.0000 0.1010580285
H   H21       1.0  0.90991  0.97383  0.24692  1.0000 0.1071391655
H   H22       1.0  0.04564  0.87110  0.19302  1.0000 0.1219038201
H   H23       1.0  0.52355  0.62653  0.48106  1.0000 0.1071391655
H   H24       1.0  0.59264  0.46714  0.47128  1.0000 0.1010580285
H   H25       1.0  0.69030  0.39576  0.31040  1.0000 0.1219038201
H   H26       1.0  0.54018  0.30589  0.25417  1.0000 0.1010580285
H   H27       1.0  0.59009  0.47383  0.24692  1.0000 0.1071391655
H   H28       1.0  0.45436  0.37110  0.19302  1.0000 0.1219038201
H   H29       1.0  0.97645  0.12653  0.48106  1.0000 0.1071391655
H   H30       1.0  0.90736  0.96714  0.47128  1.0000 0.1010580285
H   H31       1.0  0.30970  0.89576  0.18960  1.0000 0.1219038201
H   H32       1.0  0.45982  0.80589  0.24583  1.0000 0.1010580285
H   H33       1.0  0.40991  0.97383  0.25308  1.0000 0.1071391655
H   H34       1.0  0.54564  0.87110  0.30698  1.0000 0.1219038201
H   H35       1.0  0.02355  0.62653  0.01894  1.0000 0.1071391655
H   H36       1.0  0.09264  0.46714  0.02872  1.0000 0.1071391655
H   H37       1.0  0.30970  0.60424  0.68960  1.0000 0.1219038201
H   H38       1.0  0.45982  0.69411  0.74583  1.0000 0.1010580285
H   H39       1.0  0.40991  0.52617  0.75308  1.0000 0.1071391655
H   H40       1.0  0.54564  0.62890  0.80698  1.0000 0.1219038201
H   H41       1.0  0.02355  0.87347  0.51894  1.0000 0.1071391655
H   H42       1.0  0.09264  0.03286  0.52872  1.0000 0.1010580285
H   H43       1.0  0.69030  0.10424  0.81040  1.0000 0.1219038201
H   H44       1.0  0.54018  0.19411  0.75417  1.0000 0.1010580285
H   H45       1.0  0.59009  0.02617  0.74692  1.0000 0.1071391655
H   H46       1.0  0.45436  0.12890  0.69302  1.0000 0.1219038201
H   H47       1.0  0.97645  0.37347  0.98106  1.0000 0.1071391655
H   H48       1.0  0.90736  0.53286  0.97128  1.0000 0.1010580285
C   C1        1.0  0.84380  0.72645  0.82378  1.0000 0.5906633419
C   C2        1.0  0.85260  0.64990  0.80006  1.0000 -0.2302399631
C   C3        1.0  0.92210  0.64616  0.76385  1.0000 -0.069827716
C   C4        1.0  0.94500  0.57542  0.73806  1.0000 -0.0805169762
C   C5        1.0  0.01480  0.57862  0.70205  1.0000 -0.2217725514
C   C6        1.0  0.04670  0.50814  0.67538  1.0000 0.5906633419
C   C7        1.0  0.65920  0.90326  0.93371  1.0000 0.6025341992
C   C8        1.0  0.56740  0.91713  0.96879  1.0000 -0.2061164434
C   C9        1.0  0.54540  0.99050  0.98344  1.0000 -0.0589783305
C   C10       1.0  0.15620  0.22645  0.67622  1.0000 0.5906633419
C   C11       1.0  0.14740  0.14990  0.69994  1.0000 -0.2302399631
C   C12       1.0  0.07790  0.14616  0.73615  1.0000 -0.069827716
C   C13       1.0  0.05500  0.07542  0.76194  1.0000 -0.0805169762
C   C14       1.0  0.98520  0.07862  0.79795  1.0000 -0.2217725514
C   C15       1.0  0.95330  0.00814  0.82462  1.0000 0.5906633419
C   C16       1.0  0.34080  0.40326  0.56629  1.0000 0.6025341992
C   C17       1.0  0.43260  0.41713  0.53121  1.0000 -0.2001201982
C   C18       1.0  0.45460  0.49050  0.51656  1.0000 -0.069827716
C   C19       1.0  0.15620  0.27355  0.17622  1.0000 0.5906633419
C   C20       1.0  0.14740  0.35010  0.19994  1.0000 -0.2302399631
C   C21       1.0  0.07790  0.35384  0.23615  1.0000 -0.069827716
C   C22       1.0  0.05500  0.42458  0.26194  1.0000 -0.0805169762
C   C23       1.0  0.98520  0.42138  0.29795  1.0000 -0.2217725514
C   C24       1.0  0.95330  0.49186  0.32462  1.0000 0.5906633419
C   C25       1.0  0.34080  0.09674  0.06629  1.0000 0.6025341992
C   C26       1.0  0.43260  0.08287  0.03121  1.0000 -0.2001201982
C   C27       1.0  0.45460  0.00950  0.01656  1.0000 -0.0589783305
C   C28       1.0  0.84380  0.77355  0.32378  1.0000 0.5906633419
C   C29       1.0  0.85260  0.85010  0.30006  1.0000 -0.2302399631
C   C30       1.0  0.92210  0.85384  0.26385  1.0000 -0.069827716
C   C31       1.0  0.94500  0.92458  0.23806  1.0000 -0.0805169762
C   C32       1.0  0.01480  0.92138  0.20205  1.0000 -0.2217725514
C   C33       1.0  0.04670  0.99186  0.17538  1.0000 0.5906633419
C   C34       1.0  0.65920  0.59674  0.43371  1.0000 0.6025341992
C   C35       1.0  0.56740  0.58287  0.46879  1.0000 -0.2061164434
C   C36       1.0  0.54540  0.50950  0.48344  1.0000 -0.0589783305
C   C37       1.0  0.65620  0.27355  0.32378  1.0000 0.5906633419
C   C38       1.0  0.64740  0.35010  0.30006  1.0000 -0.2302399631
C   C39       1.0  0.57790  0.35384  0.26385  1.0000 -0.069827716
C   C40       1.0  0.55500  0.42458  0.23806  1.0000 -0.0805169762
C   C41       1.0  0.48520  0.42138  0.20205  1.0000 -0.2217725514
C   C42       1.0  0.45330  0.49186  0.17538  1.0000 0.5906633419
C   C43       1.0  0.84080  0.09674  0.43371  1.0000 0.606495822
C   C44       1.0  0.93260  0.08287  0.46879  1.0000 -0.2061164434
C   C45       1.0  0.95460  0.00950  0.48344  1.0000 -0.0589783305
C   C46       1.0  0.34380  0.77355  0.17622  1.0000 0.5906633419
C   C47       1.0  0.35260  0.85010  0.19994  1.0000 -0.2302399631
C   C48       1.0  0.42210  0.85384  0.23615  1.0000 -0.069827716
C   C49       1.0  0.44500  0.92458  0.26194  1.0000 -0.0805169762
C   C50       1.0  0.51480  0.92138  0.29795  1.0000 -0.2217725514
C   C51       1.0  0.54670  0.99186  0.32462  1.0000 0.5906633419
C   C52       1.0  0.15920  0.59674  0.06629  1.0000 0.6025341992
C   C53       1.0  0.06740  0.58287  0.03121  1.0000 -0.2001201982
C   C54       1.0  0.04540  0.50950  0.01656  1.0000 -0.0589783305
C   C55       1.0  0.34380  0.72645  0.67622  1.0000 0.5906633419
C   C56       1.0  0.35260  0.64990  0.69994  1.0000 -0.2302399631
C   C57       1.0  0.42210  0.64616  0.73615  1.0000 -0.069827716
C   C58       1.0  0.44500  0.57542  0.76194  1.0000 -0.0805169762
C   C59       1.0  0.51480  0.57862  0.79795  1.0000 -0.2217725514
C   C60       1.0  0.54670  0.50814  0.82462  1.0000 0.5906633419
C   C61       1.0  0.15920  0.90326  0.56629  1.0000 0.6025341992
C   C62       1.0  0.06740  0.91713  0.53121  1.0000 -0.2001201982
C   C63       1.0  0.04540  0.99050  0.51656  1.0000 -0.0589783305
C   C64       1.0  0.65620  0.22645  0.82378  1.0000 0.5906633419
C   C65       1.0  0.64740  0.14990  0.80006  1.0000 -0.2302399631
C   C66       1.0  0.57790  0.14616  0.76385  1.0000 -0.069827716
C   C67       1.0  0.55500  0.07542  0.73806  1.0000 -0.0805169762
C   C68       1.0  0.48520  0.07862  0.70205  1.0000 -0.2217725514
C   C69       1.0  0.45330  0.00814  0.67538  1.0000 0.5906633419
C   C70       1.0  0.84080  0.40326  0.93371  1.0000 0.6025341992
C   C71       1.0  0.93260  0.41713  0.96879  1.0000 -0.2001201982
C   C72       1.0  0.95460  0.49050  0.98344  1.0000 -0.0589783305
O   O1        1.0  0.76671  0.73550  0.85478  1.0000 -0.6002834941
O   O2        1.0  0.91463  0.78353  0.81286  1.0000 -0.6002834941
O   O3        1.0  0.02228  0.43865  0.68853  1.0000 -0.6002834941
O   O4        1.0  0.10342  0.51840  0.63950  1.0000 -0.6002834941
O   O5        1.0  0.73155  0.95863  0.92116  1.0000 -0.6499290521
O   O6        1.0  0.66477  0.83579  0.91554  1.0000 -0.6688742275
O   O7        1.0  0.23329  0.23550  0.64522  1.0000 -0.6002834941
O   O8        1.0  0.08537  0.28353  0.68714  1.0000 -0.6002834941
O   O9        1.0  0.97772  0.93865  0.81147  1.0000 -0.6002834941
O   O10       1.0  0.89658  0.01840  0.86050  1.0000 -0.6002834941
O   O11       1.0  0.26845  0.45863  0.57884  1.0000 -0.6499290521
O   O12       1.0  0.33523  0.33579  0.58446  1.0000 -0.6688742275
O   O13       1.0  0.23329  0.26450  0.14522  1.0000 -0.6002834941
O   O14       1.0  0.08537  0.21647  0.18714  1.0000 -0.6002834941
O   O15       1.0  0.97772  0.56135  0.31147  1.0000 -0.6002834941
O   O16       1.0  0.89658  0.48160  0.36050  1.0000 -0.6002834941
O   O17       1.0  0.26845  0.04137  0.07884  1.0000 -0.6499290521
O   O18       1.0  0.33523  0.16421  0.08446  1.0000 -0.6637920692
O   O19       1.0  0.76671  0.76450  0.35478  1.0000 -0.6002834941
O   O20       1.0  0.91463  0.71647  0.31286  1.0000 -0.6002834941
O   O21       1.0  0.02228  0.06135  0.18853  1.0000 -0.6002834941
O   O22       1.0  0.10342  0.98160  0.13950  1.0000 -0.6002834941
O   O23       1.0  0.73155  0.54137  0.42116  1.0000 -0.6499290521
O   O24       1.0  0.66477  0.66421  0.41554  1.0000 -0.6637920692
O   O25       1.0  0.73329  0.26450  0.35478  1.0000 -0.6002834941
O   O26       1.0  0.58537  0.21647  0.31286  1.0000 -0.6002834941
O   O27       1.0  0.47772  0.56135  0.18853  1.0000 -0.6002834941
O   O28       1.0  0.39658  0.48160  0.13950  1.0000 -0.6002834941
O   O29       1.0  0.76845  0.04137  0.42116  1.0000 -0.6499290521
O   O30       1.0  0.83523  0.16421  0.41554  1.0000 -0.6688742275
O   O31       1.0  0.26671  0.76450  0.14522  1.0000 -0.6002834941
O   O32       1.0  0.41463  0.71647  0.18714  1.0000 -0.6002834941
O   O33       1.0  0.52228  0.06135  0.31147  1.0000 -0.6002834941
O   O34       1.0  0.60342  0.98160  0.36050  1.0000 -0.6002834941
O   O35       1.0  0.23155  0.54137  0.07884  1.0000 -0.6499290521
O   O36       1.0  0.16477  0.66421  0.08446  1.0000 -0.6637920692
O   O37       1.0  0.26671  0.73550  0.64522  1.0000 -0.6002834941
O   O38       1.0  0.41463  0.78353  0.68714  1.0000 -0.6002834941
O   O39       1.0  0.52228  0.43865  0.81147  1.0000 -0.6002834941
O   O40       1.0  0.60342  0.51840  0.86050  1.0000 -0.6002834941
O   O41       1.0  0.23155  0.95863  0.57884  1.0000 -0.6499290521
O   O42       1.0  0.16477  0.83579  0.58446  1.0000 -0.6688742275
O   O43       1.0  0.73329  0.23550  0.85478  1.0000 -0.6002834941
O   O44       1.0  0.58537  0.28353  0.81286  1.0000 -0.6002834941
O   O45       1.0  0.47772  0.93865  0.68853  1.0000 -0.6002834941
O   O46       1.0  0.39658  0.01840  0.63950  1.0000 -0.6002834941
O   O47       1.0  0.76845  0.45863  0.92116  1.0000 -0.6499290521
O   O48       1.0  0.83523  0.33579  0.91554  1.0000 -0.6688742275
