# DDEC6 charges by PACMAN v1.1 (https://github.com/mtap-research/PACMAN-charge/)
data_2023[U][nan]3[ASR]2
_chemical_formula_sum              "U8 H128 C224 O40"
_cell_length_a       10.079
_cell_length_b       18.248
_cell_length_c       33.037
_cell_angle_alpha    90
_cell_angle_beta     90
_cell_angle_gamma    90

_symmetry_space_group_name_H-M    "P 1"
_symmetry_Int_Tables_number       1

loop_
  _symmetry_equiv_pos_as_xyz
  'x, y, z'

loop_
  _atom_site_type_symbol
  _atom_site_label
  _atom_site_symmetry_multiplicity
  _atom_site_fract_x
  _atom_site_fract_y
  _atom_site_fract_z
  _atom_site_occupancy
  _atom_site_charge
U   U1        1.0  0.46729  0.22837  0.45488  1.0000 2.0284262963
U   U2        1.0  0.03271  0.22837  0.54512  1.0000 2.0284262963
U   U3        1.0  0.03271  0.72837  0.95488  1.0000 2.0284262963
U   U4        1.0  0.46729  0.72837  0.04512  1.0000 2.0241003615
U   U5        1.0  0.96729  0.27163  0.04512  1.0000 2.0284262963
U   U6        1.0  0.53271  0.27163  0.95488  1.0000 2.0284262963
U   U7        1.0  0.53271  0.77163  0.54512  1.0000 2.0284262963
U   U8        1.0  0.96729  0.77163  0.45488  1.0000 2.0284262963
H   H1        1.0  0.42750  0.12880  0.31230  1.0000 0.1192890233
H   H2        1.0  0.07250  0.12880  0.68770  1.0000 0.1192890233
H   H3        1.0  0.07250  0.62880  0.81230  1.0000 0.1192890233
H   H4        1.0  0.42750  0.62880  0.18770  1.0000 0.1192890233
H   H5        1.0  0.50540  0.06400  0.25830  1.0000 0.106204348
H   H6        1.0  0.99460  0.06400  0.74170  1.0000 0.106204348
H   H7        1.0  0.99460  0.56400  0.75830  1.0000 0.106204348
H   H8        1.0  0.50540  0.56400  0.24170  1.0000 0.106204348
H   H9        1.0  0.86460  0.05700  0.30750  1.0000 0.1192890233
H   H10       1.0  0.63540  0.05700  0.69250  1.0000 0.1192890233
H   H11       1.0  0.63540  0.55700  0.80750  1.0000 0.1192890233
H   H12       1.0  0.86460  0.55700  0.19250  1.0000 0.1192890233
H   H13       1.0  0.61230  0.92410  0.29570  1.0000 0.106204348
H   H14       1.0  0.88770  0.92410  0.70430  1.0000 0.106204348
H   H15       1.0  0.88770  0.42410  0.79570  1.0000 0.106204348
H   H16       1.0  0.61230  0.42410  0.20430  1.0000 0.100044788
H   H17       1.0  0.81630  0.14450  0.23370  1.0000 0.100044788
H   H18       1.0  0.68370  0.14450  0.76630  1.0000 0.100044788
H   H19       1.0  0.68370  0.64450  0.73370  1.0000 0.100044788
H   H20       1.0  0.81630  0.64450  0.26630  1.0000 0.100044788
H   H21       1.0  0.09360  0.86610  0.17690  1.0000 0.1192890233
H   H22       1.0  0.40640  0.86610  0.82310  1.0000 0.1192890233
H   H23       1.0  0.40640  0.36610  0.67690  1.0000 0.1192890233
H   H24       1.0  0.09360  0.36610  0.32310  1.0000 0.1192890233
H   H25       1.0  0.76600  0.86220  0.11110  1.0000 0.1192890233
H   H26       1.0  0.73400  0.86220  0.88890  1.0000 0.1192890233
H   H27       1.0  0.73400  0.36220  0.61110  1.0000 0.1192890233
H   H28       1.0  0.76600  0.36220  0.38890  1.0000 0.1192890233
H   H29       1.0  0.77840  0.77890  0.19200  1.0000 0.106204348
H   H30       1.0  0.72160  0.77890  0.80800  1.0000 0.106204348
H   H31       1.0  0.72160  0.27890  0.69200  1.0000 0.106204348
H   H32       1.0  0.77840  0.27890  0.30800  1.0000 0.100044788
H   H33       1.0  0.65920  0.72840  0.24350  1.0000 0.100044788
H   H34       1.0  0.84080  0.72840  0.75650  1.0000 0.100044788
H   H35       1.0  0.84080  0.22840  0.74350  1.0000 0.100044788
H   H36       1.0  0.65920  0.22840  0.25650  1.0000 0.100044788
H   H37       1.0  0.57300  0.80190  0.29440  1.0000 0.100044788
H   H38       1.0  0.92700  0.80190  0.70560  1.0000 0.100044788
H   H39       1.0  0.92700  0.30190  0.79440  1.0000 0.100044788
H   H40       1.0  0.57300  0.30190  0.20560  1.0000 0.100044788
H   H41       1.0  0.20620  0.81310  0.12600  1.0000 0.1192890233
H   H42       1.0  0.29380  0.81310  0.87400  1.0000 0.1192890233
H   H43       1.0  0.29380  0.31310  0.62600  1.0000 0.1192890233
H   H44       1.0  0.20620  0.31310  0.37400  1.0000 0.1192890233
H   H45       1.0  0.88150  0.80320  0.05980  1.0000 0.1192890233
H   H46       1.0  0.61850  0.80320  0.94020  1.0000 0.1192890233
H   H47       1.0  0.61850  0.30320  0.55980  1.0000 0.1192890233
H   H48       1.0  0.88150  0.30320  0.44020  1.0000 0.1192890233
H   H49       1.0  0.78900  0.12290  0.36110  1.0000 0.1272858569
H   H50       1.0  0.71100  0.12290  0.63890  1.0000 0.1272858569
H   H51       1.0  0.71100  0.62290  0.86110  1.0000 0.1272858569
H   H52       1.0  0.78900  0.62290  0.13890  1.0000 0.1272858569
H   H53       1.0  0.01240  0.11950  0.12790  1.0000 0.100044788
H   H54       1.0  0.48760  0.11950  0.87210  1.0000 0.100044788
H   H55       1.0  0.48760  0.61950  0.62790  1.0000 0.100044788
H   H56       1.0  0.01240  0.61950  0.37210  1.0000 0.100044788
H   H57       1.0  0.93550  0.19450  0.18100  1.0000 0.100044788
H   H58       1.0  0.56450  0.19450  0.81900  1.0000 0.100044788
H   H59       1.0  0.56450  0.69450  0.68100  1.0000 0.100044788
H   H60       1.0  0.93550  0.69450  0.31900  1.0000 0.100044788
H   H61       1.0  0.98500  0.99800  0.12950  1.0000 0.106204348
H   H62       1.0  0.51500  0.99800  0.87050  1.0000 0.106204348
H   H63       1.0  0.51500  0.49800  0.62950  1.0000 0.106204348
H   H64       1.0  0.98500  0.49800  0.37050  1.0000 0.106204348
H   H65       1.0  0.92750  0.37120  0.18770  1.0000 0.1192890233
H   H66       1.0  0.57250  0.37120  0.81230  1.0000 0.1192890233
H   H67       1.0  0.57250  0.87120  0.68770  1.0000 0.1192890233
H   H68       1.0  0.92750  0.87120  0.31230  1.0000 0.1192890233
H   H69       1.0  0.00540  0.43600  0.24170  1.0000 0.106204348
H   H70       1.0  0.49460  0.43600  0.75830  1.0000 0.106204348
H   H71       1.0  0.49460  0.93600  0.74170  1.0000 0.106204348
H   H72       1.0  0.00540  0.93600  0.25830  1.0000 0.106204348
H   H73       1.0  0.36460  0.44300  0.19250  1.0000 0.1192890233
H   H74       1.0  0.13540  0.44300  0.80750  1.0000 0.1192890233
H   H75       1.0  0.13540  0.94300  0.69250  1.0000 0.1192890233
H   H76       1.0  0.36460  0.94300  0.30750  1.0000 0.1192890233
H   H77       1.0  0.11230  0.57590  0.20430  1.0000 0.106204348
H   H78       1.0  0.38770  0.57590  0.79570  1.0000 0.106204348
H   H79       1.0  0.38770  0.07590  0.70430  1.0000 0.106204348
H   H80       1.0  0.11230  0.07590  0.29570  1.0000 0.106204348
H   H81       1.0  0.31630  0.35550  0.26630  1.0000 0.100044788
H   H82       1.0  0.18370  0.35550  0.73370  1.0000 0.100044788
H   H83       1.0  0.18370  0.85550  0.76630  1.0000 0.100044788
H   H84       1.0  0.31630  0.85550  0.23370  1.0000 0.100044788
H   H85       1.0  0.59360  0.63390  0.32310  1.0000 0.1192890233
H   H86       1.0  0.90640  0.63390  0.67690  1.0000 0.1192890233
H   H87       1.0  0.90640  0.13390  0.82310  1.0000 0.1192890233
H   H88       1.0  0.59360  0.13390  0.17690  1.0000 0.1192890233
H   H89       1.0  0.26600  0.63780  0.38890  1.0000 0.1192890233
H   H90       1.0  0.23400  0.63780  0.61110  1.0000 0.1192890233
H   H91       1.0  0.23400  0.13780  0.88890  1.0000 0.1192890233
H   H92       1.0  0.26600  0.13780  0.11110  1.0000 0.1192890233
H   H93       1.0  0.27840  0.72110  0.30800  1.0000 0.106204348
H   H94       1.0  0.22160  0.72110  0.69200  1.0000 0.106204348
H   H95       1.0  0.22160  0.22110  0.80800  1.0000 0.106204348
H   H96       1.0  0.27840  0.22110  0.19200  1.0000 0.106204348
H   H97       1.0  0.15920  0.77160  0.25650  1.0000 0.100044788
H   H98       1.0  0.34080  0.77160  0.74350  1.0000 0.100044788
H   H99       1.0  0.34080  0.27160  0.75650  1.0000 0.100044788
H   H100      1.0  0.15920  0.27160  0.24350  1.0000 0.100044788
H   H101      1.0  0.07300  0.69810  0.20560  1.0000 0.100044788
H   H102      1.0  0.42700  0.69810  0.79440  1.0000 0.100044788
H   H103      1.0  0.42700  0.19810  0.70560  1.0000 0.100044788
H   H104      1.0  0.07300  0.19810  0.29440  1.0000 0.100044788
H   H105      1.0  0.70620  0.68690  0.37400  1.0000 0.1192890233
H   H106      1.0  0.79380  0.68690  0.62600  1.0000 0.1192890233
H   H107      1.0  0.79380  0.18690  0.87400  1.0000 0.1192890233
H   H108      1.0  0.70620  0.18690  0.12600  1.0000 0.1192890233
H   H109      1.0  0.38150  0.69680  0.44020  1.0000 0.1192890233
H   H110      1.0  0.11850  0.69680  0.55980  1.0000 0.1192890233
H   H111      1.0  0.11850  0.19680  0.94020  1.0000 0.1192890233
H   H112      1.0  0.38150  0.19680  0.05980  1.0000 0.1192890233
H   H113      1.0  0.28900  0.37710  0.13890  1.0000 0.1272858569
H   H114      1.0  0.21100  0.37710  0.86110  1.0000 0.1272858569
H   H115      1.0  0.21100  0.87710  0.63890  1.0000 0.1272858569
H   H116      1.0  0.28900  0.87710  0.36110  1.0000 0.1272858569
H   H117      1.0  0.51240  0.38050  0.37210  1.0000 0.100044788
H   H118      1.0  0.98760  0.38050  0.62790  1.0000 0.100044788
H   H119      1.0  0.98760  0.88050  0.87210  1.0000 0.100044788
H   H120      1.0  0.51240  0.88050  0.12790  1.0000 0.100044788
H   H121      1.0  0.43550  0.30550  0.31900  1.0000 0.100044788
H   H122      1.0  0.06450  0.30550  0.68100  1.0000 0.100044788
H   H123      1.0  0.06450  0.80550  0.81900  1.0000 0.100044788
H   H124      1.0  0.43550  0.80550  0.18100  1.0000 0.100044788
H   H125      1.0  0.48500  0.50200  0.37050  1.0000 0.106204348
H   H126      1.0  0.01500  0.50200  0.62950  1.0000 0.106204348
H   H127      1.0  0.01500  0.00200  0.87050  1.0000 0.106204348
H   H128      1.0  0.48500  0.00200  0.12950  1.0000 0.106204348
C   C1        1.0  0.13710  0.77480  0.05320  1.0000 0.6420319361
C   C2        1.0  0.36290  0.77480  0.94680  1.0000 0.6420319361
C   C3        1.0  0.36290  0.27480  0.55320  1.0000 0.6420319361
C   C4        1.0  0.13710  0.27480  0.44680  1.0000 0.6420319361
C   C5        1.0  0.51580  0.11420  0.31170  1.0000 -0.1178840291
C   C6        1.0  0.98420  0.11420  0.68830  1.0000 -0.1178840291
C   C7        1.0  0.98420  0.61420  0.81170  1.0000 -0.1178840291
C   C8        1.0  0.51580  0.61420  0.18830  1.0000 -0.1178840291
C   C9        1.0  0.69310  0.05120  0.27840  1.0000 0.0683793688
C   C10       1.0  0.80690  0.05120  0.72160  1.0000 0.0683793688
C   C11       1.0  0.80690  0.55120  0.77840  1.0000 0.0683793688
C   C12       1.0  0.69310  0.55120  0.22160  1.0000 0.0683793688
C   C13       1.0  0.55040  0.17220  0.37940  1.0000 0.5277390462
C   C14       1.0  0.94960  0.17220  0.62060  1.0000 0.5277390462
C   C15       1.0  0.94960  0.67220  0.87940  1.0000 0.5277390462
C   C16       1.0  0.55040  0.67220  0.12060  1.0000 0.5277390462
C   C17       1.0  0.59920  0.13250  0.34330  1.0000 -0.0338687244
C   C18       1.0  0.90080  0.13250  0.65670  1.0000 -0.0338687244
C   C19       1.0  0.90080  0.63250  0.84330  1.0000 -0.0338687244
C   C20       1.0  0.59920  0.63250  0.15670  1.0000 -0.0338687244
C   C21       1.0  0.56210  0.07500  0.27960  1.0000 -0.1704136877
C   C22       1.0  0.93790  0.07500  0.72040  1.0000 -0.1704136877
C   C23       1.0  0.93790  0.57500  0.77960  1.0000 -0.1704136877
C   C24       1.0  0.56210  0.57500  0.22040  1.0000 -0.1704136877
C   C25       1.0  0.77580  0.07070  0.30860  1.0000 -0.1482990029
C   C26       1.0  0.72420  0.07070  0.69140  1.0000 -0.1482990029
C   C27       1.0  0.72420  0.57070  0.80860  1.0000 -0.1482990029
C   C28       1.0  0.77580  0.57070  0.19140  1.0000 -0.1482990029
C   C29       1.0  0.74440  0.00570  0.24370  1.0000 -0.0535607439
C   C30       1.0  0.75560  0.00570  0.75630  1.0000 -0.0535607439
C   C31       1.0  0.75560  0.50570  0.74370  1.0000 -0.0535607439
C   C32       1.0  0.74440  0.50570  0.25630  1.0000 -0.0535607439
C   C33       1.0  0.64570  0.89560  0.27470  1.0000 -0.1584668806
C   C34       1.0  0.85430  0.89560  0.72530  1.0000 -0.1584668806
C   C35       1.0  0.85430  0.39560  0.77470  1.0000 -0.1584668806
C   C36       1.0  0.64570  0.39560  0.22530  1.0000 -0.1584668806
C   C37       1.0  0.72060  0.92860  0.24320  1.0000 0.021992044
C   C38       1.0  0.77940  0.92860  0.75680  1.0000 0.021992044
C   C39       1.0  0.77940  0.42860  0.74320  1.0000 0.021992044
C   C40       1.0  0.72060  0.42860  0.25680  1.0000 0.021992044
C   C41       1.0  0.84680  0.11490  0.21280  1.0000 -0.1704136877
C   C42       1.0  0.65320  0.11490  0.78720  1.0000 -0.1704136877
C   C43       1.0  0.65320  0.61490  0.71280  1.0000 -0.1704136877
C   C44       1.0  0.84680  0.61490  0.28720  1.0000 -0.1704136877
C   C45       1.0  0.87280  0.99420  0.18040  1.0000 0.021992044
C   C46       1.0  0.62720  0.99420  0.81960  1.0000 0.021992044
C   C47       1.0  0.62720  0.49420  0.68040  1.0000 0.021992044
C   C48       1.0  0.87280  0.49420  0.31960  1.0000 0.021992044
C   C49       1.0  0.81980  0.03820  0.21290  1.0000 0.0257070028
C   C50       1.0  0.68020  0.03820  0.78710  1.0000 0.0257070028
C   C51       1.0  0.68020  0.53820  0.71290  1.0000 0.0257070028
C   C52       1.0  0.81980  0.53820  0.28710  1.0000 0.0257070028
C   C53       1.0  0.85110  0.91730  0.18080  1.0000 -0.0535607439
C   C54       1.0  0.64890  0.91730  0.81920  1.0000 -0.0535607439
C   C55       1.0  0.64890  0.41730  0.68080  1.0000 -0.0535607439
C   C56       1.0  0.85110  0.41730  0.31920  1.0000 -0.0535607439
C   C57       1.0  0.04920  0.85550  0.15290  1.0000 -0.1584668806
C   C58       1.0  0.45080  0.85550  0.84710  1.0000 -0.1584668806
C   C59       1.0  0.45080  0.35550  0.65290  1.0000 -0.1584668806
C   C60       1.0  0.04920  0.35550  0.34710  1.0000 -0.1584668806
C   C61       1.0  0.91890  0.87330  0.14960  1.0000 0.0683793688
C   C62       1.0  0.58110  0.87330  0.85040  1.0000 0.0683793688
C   C63       1.0  0.58110  0.37330  0.64960  1.0000 0.0683793688
C   C64       1.0  0.91890  0.37330  0.35040  1.0000 0.0683793688
C   C65       1.0  0.77460  0.88530  0.21140  1.0000 0.021992044
C   C66       1.0  0.72540  0.88530  0.78860  1.0000 0.021992044
C   C67       1.0  0.72540  0.38530  0.71140  1.0000 0.021992044
C   C68       1.0  0.77460  0.38530  0.28860  1.0000 0.021992044
C   C69       1.0  0.85600  0.85260  0.11430  1.0000 -0.1584668806
C   C70       1.0  0.64400  0.85260  0.88570  1.0000 -0.1584668806
C   C71       1.0  0.64400  0.35260  0.61430  1.0000 -0.1584668806
C   C72       1.0  0.85600  0.35260  0.38570  1.0000 -0.1584668806
C   C73       1.0  0.74660  0.80890  0.21260  1.0000 -0.1584668806
C   C74       1.0  0.75340  0.80890  0.78740  1.0000 -0.1584668806
C   C75       1.0  0.75340  0.30890  0.71260  1.0000 -0.1584668806
C   C76       1.0  0.74660  0.30890  0.28740  1.0000 -0.1584668806
C   C77       1.0  0.67460  0.77870  0.24310  1.0000 -0.1178840291
C   C78       1.0  0.82540  0.77870  0.75690  1.0000 -0.1178840291
C   C79       1.0  0.82540  0.27870  0.74310  1.0000 -0.1178840291
C   C80       1.0  0.67460  0.27870  0.25690  1.0000 -0.1178840291
C   C81       1.0  0.62340  0.82310  0.27400  1.0000 -0.1007229871
C   C82       1.0  0.87660  0.82310  0.72600  1.0000 -0.1007229871
C   C83       1.0  0.87660  0.32310  0.77400  1.0000 -0.1007229871
C   C84       1.0  0.62340  0.32310  0.22600  1.0000 -0.1007229871
C   C85       1.0  0.11640  0.82300  0.12250  1.0000 -0.1144631019
C   C86       1.0  0.38360  0.82300  0.87750  1.0000 -0.1144631019
C   C87       1.0  0.38360  0.32300  0.62250  1.0000 -0.1144631019
C   C88       1.0  0.11640  0.32300  0.37750  1.0000 -0.1144631019
C   C89       1.0  0.92570  0.81750  0.08330  1.0000 -0.1007229871
C   C90       1.0  0.57430  0.81750  0.91670  1.0000 -0.1007229871
C   C91       1.0  0.57430  0.31750  0.58330  1.0000 -0.1007229871
C   C92       1.0  0.92570  0.31750  0.41670  1.0000 -0.1007229871
C   C93       1.0  0.73040  0.11030  0.34050  1.0000 -0.1144631019
C   C94       1.0  0.76960  0.11030  0.65950  1.0000 -0.1144631019
C   C95       1.0  0.76960  0.61030  0.84050  1.0000 -0.1178840291
C   C96       1.0  0.73040  0.61030  0.15950  1.0000 -0.1178840291
C   C97       1.0  0.96670  0.09840  0.14940  1.0000 -0.1144631019
C   C98       1.0  0.53330  0.09840  0.85060  1.0000 -0.1144631019
C   C99       1.0  0.53330  0.59840  0.64940  1.0000 -0.1144631019
C   C100      1.0  0.96670  0.59840  0.35060  1.0000 -0.1144631019
C   C101      1.0  0.05790  0.80410  0.08720  1.0000 -0.0611351094
C   C102      1.0  0.44210  0.80410  0.91280  1.0000 -0.0611351094
C   C103      1.0  0.44210  0.30410  0.58720  1.0000 -0.0611351094
C   C104      1.0  0.05790  0.30410  0.41280  1.0000 -0.0611351094
C   C105      1.0  0.91830  0.14450  0.18150  1.0000 -0.1007229871
C   C106      1.0  0.58170  0.14450  0.81850  1.0000 -0.1007229871
C   C107      1.0  0.58170  0.64450  0.68150  1.0000 -0.1007229871
C   C108      1.0  0.91830  0.64450  0.31850  1.0000 -0.1007229871
C   C109      1.0  0.94800  0.02690  0.14980  1.0000 -0.1399913205
C   C110      1.0  0.55200  0.02690  0.85020  1.0000 -0.1399913205
C   C111      1.0  0.55200  0.52690  0.64980  1.0000 -0.1399913205
C   C112      1.0  0.94800  0.52690  0.35020  1.0000 -0.1399913205
C   C113      1.0  0.63710  0.72520  0.44680  1.0000 0.6420319361
C   C114      1.0  0.86290  0.72520  0.55320  1.0000 0.6420319361
C   C115      1.0  0.86290  0.22520  0.94680  1.0000 0.6420319361
C   C116      1.0  0.63710  0.22520  0.05320  1.0000 0.6420319361
C   C117      1.0  0.01580  0.38580  0.18830  1.0000 -0.1178840291
C   C118      1.0  0.48420  0.38580  0.81170  1.0000 -0.1178840291
C   C119      1.0  0.48420  0.88580  0.68830  1.0000 -0.1178840291
C   C120      1.0  0.01580  0.88580  0.31170  1.0000 -0.1178840291
C   C121      1.0  0.19310  0.44880  0.22160  1.0000 0.0683793688
C   C122      1.0  0.30690  0.44880  0.77840  1.0000 0.0683793688
C   C123      1.0  0.30690  0.94880  0.72160  1.0000 0.0683793688
C   C124      1.0  0.19310  0.94880  0.27840  1.0000 0.0683793688
C   C125      1.0  0.05040  0.32780  0.12060  1.0000 0.5277390462
C   C126      1.0  0.44960  0.32780  0.87940  1.0000 0.5277390462
C   C127      1.0  0.44960  0.82780  0.62060  1.0000 0.5277390462
C   C128      1.0  0.05040  0.82780  0.37940  1.0000 0.5277390462
C   C129      1.0  0.09920  0.36750  0.15670  1.0000 -0.0338687244
C   C130      1.0  0.40080  0.36750  0.84330  1.0000 -0.0338687244
C   C131      1.0  0.40080  0.86750  0.65670  1.0000 -0.0338687244
C   C132      1.0  0.09920  0.86750  0.34330  1.0000 -0.0338687244
C   C133      1.0  0.06210  0.42500  0.22040  1.0000 -0.1704136877
C   C134      1.0  0.43790  0.42500  0.77960  1.0000 -0.1704136877
C   C135      1.0  0.43790  0.92500  0.72040  1.0000 -0.1704136877
C   C136      1.0  0.06210  0.92500  0.27960  1.0000 -0.1704136877
C   C137      1.0  0.27580  0.42930  0.19140  1.0000 -0.1482990029
C   C138      1.0  0.22420  0.42930  0.80860  1.0000 -0.1482990029
C   C139      1.0  0.22420  0.92930  0.69140  1.0000 -0.1482990029
C   C140      1.0  0.27580  0.92930  0.30860  1.0000 -0.1482990029
C   C141      1.0  0.24440  0.49430  0.25630  1.0000 -0.0535607439
C   C142      1.0  0.25560  0.49430  0.74370  1.0000 -0.0535607439
C   C143      1.0  0.25560  0.99430  0.75630  1.0000 -0.0535607439
C   C144      1.0  0.24440  0.99430  0.24370  1.0000 -0.0535607439
C   C145      1.0  0.14570  0.60440  0.22530  1.0000 -0.1584668806
C   C146      1.0  0.35430  0.60440  0.77470  1.0000 -0.1584668806
C   C147      1.0  0.35430  0.10440  0.72530  1.0000 -0.1584668806
C   C148      1.0  0.14570  0.10440  0.27470  1.0000 -0.1584668806
C   C149      1.0  0.22060  0.57140  0.25680  1.0000 0.021992044
C   C150      1.0  0.27940  0.57140  0.74320  1.0000 0.021992044
C   C151      1.0  0.27940  0.07140  0.75680  1.0000 0.021992044
C   C152      1.0  0.22060  0.07140  0.24320  1.0000 0.021992044
C   C153      1.0  0.34680  0.38510  0.28720  1.0000 -0.1704136877
C   C154      1.0  0.15320  0.38510  0.71280  1.0000 -0.1704136877
C   C155      1.0  0.15320  0.88510  0.78720  1.0000 -0.1704136877
C   C156      1.0  0.34680  0.88510  0.21280  1.0000 -0.1704136877
C   C157      1.0  0.37280  0.50580  0.31960  1.0000 0.021992044
C   C158      1.0  0.12720  0.50580  0.68040  1.0000 0.021992044
C   C159      1.0  0.12720  0.00580  0.81960  1.0000 0.021992044
C   C160      1.0  0.37280  0.00580  0.18040  1.0000 0.021992044
C   C161      1.0  0.31980  0.46180  0.28710  1.0000 0.0257070028
C   C162      1.0  0.18020  0.46180  0.71290  1.0000 0.0257070028
C   C163      1.0  0.18020  0.96180  0.78710  1.0000 0.0257070028
C   C164      1.0  0.31980  0.96180  0.21290  1.0000 0.0257070028
C   C165      1.0  0.35110  0.58270  0.31920  1.0000 -0.0535607439
C   C166      1.0  0.14890  0.58270  0.68080  1.0000 -0.0535607439
C   C167      1.0  0.14890  0.08270  0.81920  1.0000 -0.0535607439
C   C168      1.0  0.35110  0.08270  0.18080  1.0000 -0.0535607439
C   C169      1.0  0.54920  0.64450  0.34710  1.0000 -0.1584668806
C   C170      1.0  0.95080  0.64450  0.65290  1.0000 -0.1584668806
C   C171      1.0  0.95080  0.14450  0.84710  1.0000 -0.1584668806
C   C172      1.0  0.54920  0.14450  0.15290  1.0000 -0.1584668806
C   C173      1.0  0.41890  0.62670  0.35040  1.0000 0.0683793688
C   C174      1.0  0.08110  0.62670  0.64960  1.0000 0.0683793688
C   C175      1.0  0.08110  0.12670  0.85040  1.0000 0.0683793688
C   C176      1.0  0.41890  0.12670  0.14960  1.0000 0.0683793688
C   C177      1.0  0.27460  0.61470  0.28860  1.0000 0.021992044
C   C178      1.0  0.22540  0.61470  0.71140  1.0000 0.021992044
C   C179      1.0  0.22540  0.11470  0.78860  1.0000 0.021992044
C   C180      1.0  0.27460  0.11470  0.21140  1.0000 0.021992044
C   C181      1.0  0.35600  0.64740  0.38570  1.0000 -0.1584668806
C   C182      1.0  0.14400  0.64740  0.61430  1.0000 -0.1584668806
C   C183      1.0  0.14400  0.14740  0.88570  1.0000 -0.1584668806
C   C184      1.0  0.35600  0.14740  0.11430  1.0000 -0.1584668806
C   C185      1.0  0.24660  0.69110  0.28740  1.0000 -0.1584668806
C   C186      1.0  0.25340  0.69110  0.71260  1.0000 -0.1584668806
C   C187      1.0  0.25340  0.19110  0.78740  1.0000 -0.1584668806
C   C188      1.0  0.24660  0.19110  0.21260  1.0000 -0.1584668806
C   C189      1.0  0.17460  0.72130  0.25690  1.0000 -0.1178840291
C   C190      1.0  0.32540  0.72130  0.74310  1.0000 -0.1178840291
C   C191      1.0  0.32540  0.22130  0.75690  1.0000 -0.1178840291
C   C192      1.0  0.17460  0.22130  0.24310  1.0000 -0.1178840291
C   C193      1.0  0.12340  0.67690  0.22600  1.0000 -0.1007229871
C   C194      1.0  0.37660  0.67690  0.77400  1.0000 -0.1007229871
C   C195      1.0  0.37660  0.17690  0.72600  1.0000 -0.1007229871
C   C196      1.0  0.12340  0.17690  0.27400  1.0000 -0.1007229871
C   C197      1.0  0.61640  0.67700  0.37750  1.0000 -0.1144631019
C   C198      1.0  0.88360  0.67700  0.62250  1.0000 -0.1144631019
C   C199      1.0  0.88360  0.17700  0.87750  1.0000 -0.1144631019
C   C200      1.0  0.61640  0.17700  0.12250  1.0000 -0.1144631019
C   C201      1.0  0.42570  0.68250  0.41670  1.0000 -0.1007229871
C   C202      1.0  0.07430  0.68250  0.58330  1.0000 -0.1007229871
C   C203      1.0  0.07430  0.18250  0.91670  1.0000 -0.1007229871
C   C204      1.0  0.42570  0.18250  0.08330  1.0000 -0.1007229871
C   C205      1.0  0.23040  0.38970  0.15950  1.0000 -0.1178840291
C   C206      1.0  0.26960  0.38970  0.84050  1.0000 -0.1144631019
C   C207      1.0  0.26960  0.88970  0.65950  1.0000 -0.1144631019
C   C208      1.0  0.23040  0.88970  0.34050  1.0000 -0.1144631019
C   C209      1.0  0.46670  0.40160  0.35060  1.0000 -0.1144631019
C   C210      1.0  0.03330  0.40160  0.64940  1.0000 -0.1144631019
C   C211      1.0  0.03330  0.90160  0.85060  1.0000 -0.1144631019
C   C212      1.0  0.46670  0.90160  0.14940  1.0000 -0.1144631019
C   C213      1.0  0.55790  0.69590  0.41280  1.0000 -0.0611351094
C   C214      1.0  0.94210  0.69590  0.58720  1.0000 -0.0611351094
C   C215      1.0  0.94210  0.19590  0.91280  1.0000 -0.0611351094
C   C216      1.0  0.55790  0.19590  0.08720  1.0000 -0.0611351094
C   C217      1.0  0.41830  0.35550  0.31850  1.0000 -0.1007229871
C   C218      1.0  0.08170  0.35550  0.68150  1.0000 -0.1007229871
C   C219      1.0  0.08170  0.85550  0.81850  1.0000 -0.1007229871
C   C220      1.0  0.41830  0.85550  0.18150  1.0000 -0.1007229871
C   C221      1.0  0.44800  0.47310  0.35020  1.0000 -0.1399913205
C   C222      1.0  0.05200  0.47310  0.64980  1.0000 -0.1399913205
C   C223      1.0  0.05200  0.97310  0.85020  1.0000 -0.1399913205
C   C224      1.0  0.44800  0.97310  0.14980  1.0000 -0.1399913205
O   O1        1.0  0.25380  0.76230  0.05770  1.0000 -0.5955578702
O   O2        1.0  0.24620  0.76230  0.94230  1.0000 -0.5955578702
O   O3        1.0  0.24620  0.26230  0.55770  1.0000 -0.5955578702
O   O4        1.0  0.25380  0.26230  0.44230  1.0000 -0.5955578702
O   O5        1.0  0.08190  0.76990  0.01890  1.0000 -0.6594838816
O   O6        1.0  0.41810  0.76990  0.98110  1.0000 -0.6594838816
O   O7        1.0  0.41810  0.26990  0.51890  1.0000 -0.6594838816
O   O8        1.0  0.08190  0.26990  0.48110  1.0000 -0.6594838816
O   O9        1.0  0.43650  0.19610  0.38250  1.0000 -0.5766556877
O   O10       1.0  0.06350  0.19610  0.61750  1.0000 -0.5766556877
O   O11       1.0  0.06350  0.69610  0.88250  1.0000 -0.5766556877
O   O12       1.0  0.43650  0.69610  0.11750  1.0000 -0.5766556877
O   O13       1.0  0.62950  0.17780  0.40930  1.0000 -0.5955578702
O   O14       1.0  0.87050  0.17780  0.59070  1.0000 -0.5955578702
O   O15       1.0  0.87050  0.67780  0.90930  1.0000 -0.5955578702
O   O16       1.0  0.62950  0.67780  0.09070  1.0000 -0.5955578702
O   O17       1.0  0.67430  0.19880  0.49380  1.0000 -0.4176448229
O   O18       1.0  0.82570  0.19880  0.50620  1.0000 -0.4176448229
O   O19       1.0  0.82570  0.69880  0.99380  1.0000 -0.4176448229
O   O20       1.0  0.67430  0.69880  0.00620  1.0000 -0.4176448229
O   O21       1.0  0.75380  0.73770  0.44230  1.0000 -0.5955578702
O   O22       1.0  0.74620  0.73770  0.55770  1.0000 -0.5955578702
O   O23       1.0  0.74620  0.23770  0.94230  1.0000 -0.5955578702
O   O24       1.0  0.75380  0.23770  0.05770  1.0000 -0.5955578702
O   O25       1.0  0.58190  0.73010  0.48110  1.0000 -0.6594838816
O   O26       1.0  0.91810  0.73010  0.51890  1.0000 -0.6594838816
O   O27       1.0  0.91810  0.23010  0.98110  1.0000 -0.6594838816
O   O28       1.0  0.58190  0.23010  0.01890  1.0000 -0.6594838816
O   O29       1.0  0.93650  0.30390  0.11750  1.0000 -0.5766556877
O   O30       1.0  0.56350  0.30390  0.88250  1.0000 -0.5766556877
O   O31       1.0  0.56350  0.80390  0.61750  1.0000 -0.5766556877
O   O32       1.0  0.93650  0.80390  0.38250  1.0000 -0.5766556877
O   O33       1.0  0.12950  0.32220  0.09070  1.0000 -0.5955578702
O   O34       1.0  0.37050  0.32220  0.90930  1.0000 -0.5955578702
O   O35       1.0  0.37050  0.82220  0.59070  1.0000 -0.5955578702
O   O36       1.0  0.12950  0.82220  0.40930  1.0000 -0.5955578702
O   O37       1.0  0.17430  0.30120  0.00620  1.0000 -0.4176448229
O   O38       1.0  0.32570  0.30120  0.99380  1.0000 -0.4176448229
O   O39       1.0  0.32570  0.80120  0.50620  1.0000 -0.4176448229
O   O40       1.0  0.17430  0.80120  0.49380  1.0000 -0.4176448229
