# DDEC6 charges by PACMAN v1.1 (https://github.com/mtap-research/PACMAN-charge/)
data_2023[Co][nan]3[ASR]7
_chemical_formula_sum              "Co6 H16 C28 N4 O20"
_cell_length_a       11.0701
_cell_length_b       11.0701
_cell_length_c       10.9621
_cell_angle_alpha    79.1326
_cell_angle_beta     100.867
_cell_angle_gamma    109.705

_symmetry_space_group_name_H-M    "P 1"
_symmetry_Int_Tables_number       1

loop_
  _symmetry_equiv_pos_as_xyz
  'x, y, z'

loop_
  _atom_site_type_symbol
  _atom_site_label
  _atom_site_symmetry_multiplicity
  _atom_site_fract_x
  _atom_site_fract_y
  _atom_site_fract_z
  _atom_site_occupancy
  _atom_site_charge
Co  Co1       1.0  0.37958  0.55582  0.95580  1.0000 0.9885130441
Co  Co2       1.0  0.55582  0.37958  0.54420  1.0000 0.9885130441
Co  Co3       1.0  0.62042  0.44418  0.04420  1.0000 0.9885130441
Co  Co4       1.0  0.44418  0.62042  0.45580  1.0000 0.9885130441
Co  Co5       1.0  0.40160  0.40160  0.75000  1.0000 1.0384619748
Co  Co6       1.0  0.59840  0.59840  0.25000  1.0000 1.0384619748
H   H1        1.0  0.39600  0.30400  0.95900  1.0000 0.3815337932
H   H2        1.0  0.30400  0.39600  0.54100  1.0000 0.3815337932
H   H3        1.0  0.60400  0.69600  0.04100  1.0000 0.3815337932
H   H4        1.0  0.69600  0.60400  0.45900  1.0000 0.3815337932
H   H5        1.0  0.46300  0.96100  0.63300  1.0000 0.1524513727
H   H6        1.0  0.96100  0.46300  0.86700  1.0000 0.1524513727
H   H7        1.0  0.53700  0.03900  0.36700  1.0000 0.1524513727
H   H8        1.0  0.03900  0.53700  0.13300  1.0000 0.1524513727
H   H9        1.0  0.34800  0.02000  0.94300  1.0000 0.1323591834
H   H10       1.0  0.02000  0.34800  0.55700  1.0000 0.1323591834
H   H11       1.0  0.65200  0.98000  0.05700  1.0000 0.1323591834
H   H12       1.0  0.98000  0.65200  0.44300  1.0000 0.1323591834
H   H13       1.0  0.32700  0.79300  0.03100  1.0000 0.0959613463
H   H14       1.0  0.79300  0.32700  0.46900  1.0000 0.0959613463
H   H15       1.0  0.67300  0.20700  0.96900  1.0000 0.0959613463
H   H16       1.0  0.20700  0.67300  0.53100  1.0000 0.0959613463
C   C1        1.0  0.42370  0.80190  0.76910  1.0000 0.1106055957
C   C2        1.0  0.80190  0.42370  0.73090  1.0000 0.1106055957
C   C3        1.0  0.57630  0.19810  0.23090  1.0000 0.1106055957
C   C4        1.0  0.19810  0.57630  0.26910  1.0000 0.1106055957
C   C5        1.0  0.44330  0.93290  0.71580  1.0000 -0.1700446839
C   C6        1.0  0.93290  0.44330  0.78420  1.0000 -0.1700446839
C   C7        1.0  0.55670  0.06710  0.28420  1.0000 -0.1700446839
C   C8        1.0  0.06710  0.55670  0.21580  1.0000 -0.1700446839
C   C9        1.0  0.40880  0.01100  0.77810  1.0000 0.0275878972
C   C10       1.0  0.01100  0.40880  0.72190  1.0000 0.0275878972
C   C11       1.0  0.59120  0.98900  0.22190  1.0000 0.0275878972
C   C12       1.0  0.98900  0.59120  0.27810  1.0000 0.0275878972
C   C13       1.0  0.36310  0.96450  0.88710  1.0000 -0.1584722707
C   C14       1.0  0.96450  0.36310  0.61290  1.0000 -0.1584722707
C   C15       1.0  0.63690  0.03550  0.11290  1.0000 -0.1584722707
C   C16       1.0  0.03550  0.63690  0.38710  1.0000 -0.1584722707
C   C17       1.0  0.36710  0.83570  0.94740  1.0000 0.1106055957
C   C18       1.0  0.83570  0.36710  0.55260  1.0000 0.1106055957
C   C19       1.0  0.63290  0.16430  0.05260  1.0000 0.1106055957
C   C20       1.0  0.16430  0.63290  0.44740  1.0000 0.1106055957
C   C21       1.0  0.44140  0.69360  0.71570  1.0000 0.5637962884
C   C22       1.0  0.69360  0.44140  0.78430  1.0000 0.5637962884
C   C23       1.0  0.55860  0.30640  0.28430  1.0000 0.5637962884
C   C24       1.0  0.30640  0.55860  0.21570  1.0000 0.5637962884
C   C25       1.0  0.42760  0.15100  0.71740  1.0000 0.5637962884
C   C26       1.0  0.15100  0.42760  0.78260  1.0000 0.5637962884
C   C27       1.0  0.57240  0.84900  0.28260  1.0000 0.5637962884
C   C28       1.0  0.84900  0.57240  0.21740  1.0000 0.5637962884
N   N1        1.0  0.39500  0.75600  0.88810  1.0000 -0.2912052879
N   N2        1.0  0.75600  0.39500  0.61190  1.0000 -0.2912052879
N   N3        1.0  0.60500  0.24400  0.11190  1.0000 -0.2912052879
N   N4        1.0  0.24400  0.60500  0.38810  1.0000 -0.2912052879
O   O1        1.0  0.43100  0.38840  0.95100  1.0000 -0.879383632
O   O2        1.0  0.38840  0.43100  0.54900  1.0000 -0.879383632
O   O3        1.0  0.56900  0.61160  0.04900  1.0000 -0.879383632
O   O4        1.0  0.61160  0.56900  0.45100  1.0000 -0.879383632
O   O5        1.0  0.44290  0.58990  0.78320  1.0000 -0.5495068514
O   O6        1.0  0.58990  0.44290  0.71680  1.0000 -0.5495068514
O   O7        1.0  0.55710  0.41010  0.21680  1.0000 -0.5495068514
O   O8        1.0  0.41010  0.55710  0.28320  1.0000 -0.5495068514
O   O9        1.0  0.46060  0.72660  0.59890  1.0000 -0.5419939244
O   O10       1.0  0.72660  0.46060  0.90110  1.0000 -0.5419939244
O   O11       1.0  0.53940  0.27340  0.40110  1.0000 -0.5419939244
O   O12       1.0  0.27340  0.53940  0.09890  1.0000 -0.5419939244
O   O13       1.0  0.49150  0.19170  0.63690  1.0000 -0.4762915606
O   O14       1.0  0.19170  0.49150  0.86310  1.0000 -0.4762915606
O   O15       1.0  0.50850  0.80830  0.36310  1.0000 -0.4762915606
O   O16       1.0  0.80830  0.50850  0.13690  1.0000 -0.4762915606
O   O17       1.0  0.36960  0.20260  0.77600  1.0000 -0.5795431817
O   O18       1.0  0.20260  0.36960  0.72400  1.0000 -0.5795431817
O   O19       1.0  0.63040  0.79740  0.22400  1.0000 -0.5795431817
O   O20       1.0  0.79740  0.63040  0.27600  1.0000 -0.5795431817
