# DDEC6 charges by PACMAN v1.1 (https://github.com/mtap-research/PACMAN-charge/)
data_2023[Er][nan]3[ASR]2
_chemical_formula_sum              "Er4 H12 C36 O24"
_cell_length_a       10.1978
_cell_length_b       10.1978
_cell_length_c       14.4324
_cell_angle_alpha    90
_cell_angle_beta     90
_cell_angle_gamma    90

_symmetry_space_group_name_H-M    "P 1"
_symmetry_Int_Tables_number       1

loop_
  _symmetry_equiv_pos_as_xyz
  'x, y, z'

loop_
  _atom_site_type_symbol
  _atom_site_label
  _atom_site_symmetry_multiplicity
  _atom_site_fract_x
  _atom_site_fract_y
  _atom_site_fract_z
  _atom_site_occupancy
  _atom_site_charge
Er  Er1       1.0  0.34904  0.65096  0.62500  1.0000 2.1098919902
Er  Er2       1.0  0.65096  0.34904  0.12500  1.0000 2.1098919902
Er  Er3       1.0  0.34904  0.34904  0.87500  1.0000 2.1098919902
Er  Er4       1.0  0.65096  0.65096  0.37500  1.0000 2.1098919902
H   H1        1.0  0.93869  0.57444  0.62121  1.0000 0.1366736833
H   H2        1.0  0.06131  0.42556  0.12121  1.0000 0.1366736833
H   H3        1.0  0.42556  0.93869  0.87121  1.0000 0.1366736833
H   H4        1.0  0.57444  0.06131  0.37121  1.0000 0.1366736833
H   H5        1.0  0.06131  0.57444  0.37879  1.0000 0.1366736833
H   H6        1.0  0.93869  0.42556  0.87879  1.0000 0.1366736833
H   H7        1.0  0.57444  0.93869  0.12879  1.0000 0.1366736833
H   H8        1.0  0.42556  0.06131  0.62879  1.0000 0.1366736833
H   H9        1.0  0.59879  0.50000  0.75000  1.0000 0.110539021
H   H10       1.0  0.40121  0.50000  0.25000  1.0000 0.110539021
H   H11       1.0  0.50000  0.59879  0.00000  1.0000 0.110539021
H   H12       1.0  0.50000  0.40121  0.50000  1.0000 0.110539021
C   C1        1.0  0.89310  0.54460  0.67290  1.0000 -0.0911988541
C   C2        1.0  0.10690  0.45540  0.17290  1.0000 -0.0911988541
C   C3        1.0  0.45540  0.89310  0.92290  1.0000 -0.0911988541
C   C4        1.0  0.54460  0.10690  0.42290  1.0000 -0.0911988541
C   C5        1.0  0.10690  0.54460  0.32710  1.0000 -0.0911988541
C   C6        1.0  0.89310  0.45540  0.82710  1.0000 -0.0911988541
C   C7        1.0  0.54460  0.89310  0.07710  1.0000 -0.0911988541
C   C8        1.0  0.45540  0.10690  0.57710  1.0000 -0.0911988541
C   C9        1.0  0.96170  0.50000  0.75000  1.0000 -0.0416576207
C   C10       1.0  0.03830  0.50000  0.25000  1.0000 -0.0416576207
C   C11       1.0  0.50000  0.96170  0.00000  1.0000 -0.0416576207
C   C12       1.0  0.50000  0.03830  0.50000  1.0000 -0.0416576207
C   C13       1.0  0.68150  0.58840  0.59000  1.0000 0.654538909
C   C14       1.0  0.31850  0.41160  0.09000  1.0000 0.654538909
C   C15       1.0  0.41160  0.68150  0.84000  1.0000 0.654538909
C   C16       1.0  0.58840  0.31850  0.34000  1.0000 0.654538909
C   C17       1.0  0.31850  0.58840  0.41000  1.0000 0.654538909
C   C18       1.0  0.68150  0.41160  0.91000  1.0000 0.654538909
C   C19       1.0  0.58840  0.68150  0.16000  1.0000 0.654538909
C   C20       1.0  0.41160  0.31850  0.66000  1.0000 0.654538909
C   C21       1.0  0.75860  0.54480  0.67270  1.0000 -0.0416576207
C   C22       1.0  0.24140  0.45520  0.17270  1.0000 -0.0416576207
C   C23       1.0  0.45520  0.75860  0.92270  1.0000 -0.0416576207
C   C24       1.0  0.54480  0.24140  0.42270  1.0000 -0.0416576207
C   C25       1.0  0.24140  0.54480  0.32730  1.0000 -0.0416576207
C   C26       1.0  0.75860  0.45520  0.82730  1.0000 -0.0416576207
C   C27       1.0  0.54480  0.75860  0.07730  1.0000 -0.0416576207
C   C28       1.0  0.45520  0.24140  0.57730  1.0000 -0.0416576207
C   C29       1.0  0.10970  0.50000  0.75000  1.0000 0.6765674148
C   C30       1.0  0.89030  0.50000  0.25000  1.0000 0.6765674148
C   C31       1.0  0.50000  0.10970  0.00000  1.0000 0.6765674148
C   C32       1.0  0.50000  0.89030  0.50000  1.0000 0.6765674148
C   C33       1.0  0.69000  0.50000  0.75000  1.0000 -0.1028033327
C   C34       1.0  0.31000  0.50000  0.25000  1.0000 -0.1028033327
C   C35       1.0  0.50000  0.69000  0.00000  1.0000 -0.1028033327
C   C36       1.0  0.50000  0.31000  0.50000  1.0000 -0.1028033327
O   O1        1.0  0.73920  0.59460  0.51366  1.0000 -0.6642342786
O   O2        1.0  0.26080  0.40540  0.01366  1.0000 -0.6642342786
O   O3        1.0  0.40540  0.73920  0.76366  1.0000 -0.6642342786
O   O4        1.0  0.59460  0.26080  0.26366  1.0000 -0.6642342786
O   O5        1.0  0.26080  0.59460  0.48634  1.0000 -0.6642342786
O   O6        1.0  0.73920  0.40540  0.98634  1.0000 -0.6642342786
O   O7        1.0  0.59460  0.73920  0.23634  1.0000 -0.6642342786
O   O8        1.0  0.40540  0.26080  0.73634  1.0000 -0.6642342786
O   O9        1.0  0.16340  0.42530  0.80686  1.0000 -0.6846831645
O   O10       1.0  0.83660  0.57470  0.30686  1.0000 -0.6846831645
O   O11       1.0  0.57470  0.16340  0.05686  1.0000 -0.6846831645
O   O12       1.0  0.42530  0.83660  0.55686  1.0000 -0.6846831645
O   O13       1.0  0.83660  0.42530  0.19314  1.0000 -0.6846831645
O   O14       1.0  0.16340  0.57470  0.69314  1.0000 -0.6846831645
O   O15       1.0  0.42530  0.16340  0.94314  1.0000 -0.6846831645
O   O16       1.0  0.57470  0.83660  0.44314  1.0000 -0.6846831645
O   O17       1.0  0.56440  0.61460  0.60050  1.0000 -0.6857074107
O   O18       1.0  0.43560  0.38540  0.10050  1.0000 -0.6857074107
O   O19       1.0  0.38540  0.56440  0.85050  1.0000 -0.6857074107
O   O20       1.0  0.61460  0.43560  0.35050  1.0000 -0.6857074107
O   O21       1.0  0.43560  0.61460  0.39950  1.0000 -0.6857074107
O   O22       1.0  0.56440  0.38540  0.89950  1.0000 -0.6857074107
O   O23       1.0  0.61460  0.56440  0.14950  1.0000 -0.6857074107
O   O24       1.0  0.38540  0.43560  0.64950  1.0000 -0.6857074107
