# DDEC6 charges by PACMAN v1.1 (https://github.com/mtap-research/PACMAN-charge/)
data_2023[Mn][pcu]3[ASR]1
_chemical_formula_sum              "Mn6 H56 C100 S12 N8 O24"
_cell_length_a       10.88
_cell_length_b       25.477
_cell_length_c       12.919
_cell_angle_alpha    90
_cell_angle_beta     109.29
_cell_angle_gamma    90

_symmetry_space_group_name_H-M    "P 1"
_symmetry_Int_Tables_number       1

loop_
  _symmetry_equiv_pos_as_xyz
  'x, y, z'

loop_
  _atom_site_type_symbol
  _atom_site_label
  _atom_site_symmetry_multiplicity
  _atom_site_fract_x
  _atom_site_fract_y
  _atom_site_fract_z
  _atom_site_occupancy
  _atom_site_charge
Mn  Mn1       1.0  0.25546  0.45416  0.60955  1.0000 0.8621898624
Mn  Mn2       1.0  0.74454  0.95416  0.89045  1.0000 0.8621898624
Mn  Mn3       1.0  0.74454  0.54584  0.39045  1.0000 0.8621898624
Mn  Mn4       1.0  0.25546  0.04584  0.10955  1.0000 0.8621898624
Mn  Mn5       1.0  0.50000  0.50000  0.50000  1.0000 1.0918303015
Mn  Mn6       1.0  0.50000  0.00000  0.00000  1.0000 1.0918303015
H   H1        1.0  0.92422  0.45797  0.26249  1.0000 0.141826089
H   H2        1.0  0.07578  0.95797  0.23751  1.0000 0.141826089
H   H3        1.0  0.07578  0.54203  0.73751  1.0000 0.141826089
H   H4        1.0  0.92422  0.04203  0.76249  1.0000 0.141826089
H   H5        1.0  0.82947  0.47617  0.06476  1.0000 0.1117950128
H   H6        1.0  0.17053  0.97617  0.43524  1.0000 0.1193711616
H   H7        1.0  0.17053  0.52383  0.93524  1.0000 0.1117950128
H   H8        1.0  0.82947  0.02383  0.56476  1.0000 0.1117950128
H   H9        1.0  0.66277  0.31887  0.52200  1.0000 0.1299791007
H   H10       1.0  0.33723  0.81887  0.97800  1.0000 0.1299791007
H   H11       1.0  0.33723  0.68113  0.47800  1.0000 0.1299791007
H   H12       1.0  0.66277  0.18113  0.02200  1.0000 0.1299791007
H   H13       1.0  0.69375  0.22735  0.58799  1.0000 0.1299791007
H   H14       1.0  0.30625  0.72735  0.91201  1.0000 0.1299791007
H   H15       1.0  0.30625  0.77265  0.41201  1.0000 0.1299791007
H   H16       1.0  0.69375  0.27265  0.08799  1.0000 0.1299791007
H   H17       1.0  0.37321  0.19045  0.74373  1.0000 0.1299791007
H   H18       1.0  0.62679  0.69045  0.75627  1.0000 0.1299791007
H   H19       1.0  0.62679  0.80955  0.25627  1.0000 0.1299791007
H   H20       1.0  0.37321  0.30955  0.24373  1.0000 0.1299791007
H   H21       1.0  0.41310  0.10149  0.82562  1.0000 0.141826089
H   H22       1.0  0.58690  0.60149  0.67438  1.0000 0.141826089
H   H23       1.0  0.58690  0.89851  0.17438  1.0000 0.141826089
H   H24       1.0  0.41310  0.39851  0.32562  1.0000 0.141826089
H   H25       1.0  0.95704  0.42873  0.50243  1.0000 0.1193711616
H   H26       1.0  0.04296  0.92873  0.99757  1.0000 0.1193711616
H   H27       1.0  0.04296  0.57127  0.49757  1.0000 0.1193711616
H   H28       1.0  0.95704  0.07127  0.00243  1.0000 0.1193711616
H   H29       1.0  0.77652  0.40220  0.54869  1.0000 0.1299791007
H   H30       1.0  0.22348  0.90220  0.95131  1.0000 0.1299791007
H   H31       1.0  0.22348  0.59780  0.45131  1.0000 0.1299791007
H   H32       1.0  0.77652  0.09780  0.04869  1.0000 0.1299791007
H   H33       1.0  0.80612  0.37963  0.73186  1.0000 0.1193711616
H   H34       1.0  0.19388  0.87963  0.76814  1.0000 0.1193711616
H   H35       1.0  0.19388  0.62037  0.26814  1.0000 0.1193711616
H   H36       1.0  0.80612  0.12037  0.23186  1.0000 0.1193711616
H   H37       1.0  0.01541  0.38287  0.86195  1.0000 0.1193711616
H   H38       1.0  0.98459  0.88287  0.63805  1.0000 0.1193711616
H   H39       1.0  0.98459  0.61713  0.13805  1.0000 0.1193711616
H   H40       1.0  0.01541  0.11713  0.36195  1.0000 0.1193711616
H   H41       1.0  0.21340  0.38739  0.97330  1.0000 0.1299791007
H   H42       1.0  0.78660  0.88739  0.52670  1.0000 0.1299791007
H   H43       1.0  0.78660  0.61261  0.02670  1.0000 0.1299791007
H   H44       1.0  0.21340  0.11261  0.47330  1.0000 0.1299791007
H   H45       1.0  0.42883  0.40076  0.08608  1.0000 0.1117950128
H   H46       1.0  0.57117  0.90076  0.41392  1.0000 0.1117950128
H   H47       1.0  0.57117  0.59924  0.91392  1.0000 0.1117950128
H   H48       1.0  0.42883  0.09924  0.58608  1.0000 0.1117950128
H   H49       1.0  0.57927  0.43598  0.01147  1.0000 0.1299791007
H   H50       1.0  0.42073  0.93598  0.48853  1.0000 0.1299791007
H   H51       1.0  0.42073  0.56402  0.98853  1.0000 0.1299791007
H   H52       1.0  0.57927  0.06402  0.51147  1.0000 0.1299791007
H   H53       1.0  0.51070  0.45750  0.82654  1.0000 0.1193711616
H   H54       1.0  0.48930  0.95750  0.67346  1.0000 0.1193711616
H   H55       1.0  0.48930  0.54250  0.17346  1.0000 0.1193711616
H   H56       1.0  0.51070  0.04250  0.32654  1.0000 0.1193711616
C   C1        1.0  0.19720  0.47057  0.36956  1.0000 0.5924200299
C   C2        1.0  0.80280  0.97057  0.13044  1.0000 0.5924200299
C   C3        1.0  0.80280  0.52943  0.63044  1.0000 0.5924200299
C   C4        1.0  0.19720  0.02943  0.86956  1.0000 0.5924200299
C   C5        1.0  0.10650  0.47396  0.25521  1.0000 -0.1106221886
C   C6        1.0  0.89350  0.97396  0.24479  1.0000 -0.1106221886
C   C7        1.0  0.89350  0.52604  0.74479  1.0000 -0.1106221886
C   C8        1.0  0.10650  0.02604  0.75521  1.0000 -0.1106221886
C   C9        1.0  0.97400  0.46805  0.21762  1.0000 -0.1106221886
C   C10       1.0  0.02600  0.96805  0.28238  1.0000 -0.1106221886
C   C11       1.0  0.02600  0.53195  0.78238  1.0000 -0.1106221886
C   C12       1.0  0.97400  0.03195  0.71762  1.0000 -0.1106221886
C   C13       1.0  0.92000  0.47871  0.10431  1.0000 -0.1964459238
C   C14       1.0  0.08000  0.97871  0.39569  1.0000 -0.1964459238
C   C15       1.0  0.08000  0.52129  0.89569  1.0000 -0.1964459238
C   C16       1.0  0.92000  0.02129  0.60431  1.0000 -0.1964459238
C   C17       1.0  0.01080  0.49313  0.05652  1.0000 -0.0166230607
C   C18       1.0  0.98920  0.99313  0.44348  1.0000 -0.0166230607
C   C19       1.0  0.98920  0.50687  0.94348  1.0000 -0.0166230607
C   C20       1.0  0.01080  0.00687  0.55652  1.0000 -0.0166230607
C   C21       1.0  0.47950  0.38489  0.57970  1.0000 0.5982243302
C   C22       1.0  0.52050  0.88489  0.92030  1.0000 0.5982243302
C   C23       1.0  0.52050  0.61511  0.42030  1.0000 0.5982243302
C   C24       1.0  0.47950  0.11511  0.07970  1.0000 0.5982243302
C   C25       1.0  0.52910  0.33027  0.60100  1.0000 -0.1283789077
C   C26       1.0  0.47090  0.83027  0.89900  1.0000 -0.1283789077
C   C27       1.0  0.47090  0.66973  0.39900  1.0000 -0.1283789077
C   C28       1.0  0.52910  0.16973  0.10100  1.0000 -0.1283789077
C   C29       1.0  0.61790  0.30371  0.56640  1.0000 -0.1177564865
C   C30       1.0  0.38210  0.80371  0.93360  1.0000 -0.1177564865
C   C31       1.0  0.38210  0.69629  0.43360  1.0000 -0.1177564865
C   C32       1.0  0.61790  0.19629  0.06640  1.0000 -0.1177564865
C   C33       1.0  0.63550  0.25118  0.60430  1.0000 -0.1786772446
C   C34       1.0  0.36450  0.75118  0.89570  1.0000 -0.1786772446
C   C35       1.0  0.36450  0.74882  0.39570  1.0000 -0.1786772446
C   C36       1.0  0.63550  0.24882  0.10430  1.0000 -0.1786772446
C   C37       1.0  0.55960  0.23822  0.66690  1.0000 -0.0076313092
C   C38       1.0  0.44040  0.73822  0.83310  1.0000 -0.0076313092
C   C39       1.0  0.44040  0.76178  0.33310  1.0000 -0.0076313092
C   C40       1.0  0.55960  0.26178  0.16690  1.0000 -0.0076313092
C   C41       1.0  0.55110  0.18860  0.71960  1.0000 -0.0076313092
C   C42       1.0  0.44890  0.68860  0.78040  1.0000 -0.0076313092
C   C43       1.0  0.44890  0.81140  0.28040  1.0000 -0.0076313092
C   C44       1.0  0.55110  0.31140  0.21960  1.0000 -0.0076313092
C   C45       1.0  0.45000  0.17077  0.75200  1.0000 -0.1883783904
C   C46       1.0  0.55000  0.67077  0.74800  1.0000 -0.1883783904
C   C47       1.0  0.55000  0.82923  0.24800  1.0000 -0.1883783904
C   C48       1.0  0.45000  0.32923  0.25200  1.0000 -0.1883783904
C   C49       1.0  0.47290  0.11977  0.79929  1.0000 -0.0979246167
C   C50       1.0  0.52710  0.61977  0.70071  1.0000 -0.0979246167
C   C51       1.0  0.52710  0.88023  0.20071  1.0000 -0.0979246167
C   C52       1.0  0.47290  0.38023  0.29929  1.0000 -0.0979246167
C   C53       1.0  0.59150  0.10003  0.80241  1.0000 -0.1489441139
C   C54       1.0  0.40850  0.60003  0.69759  1.0000 -0.1489441139
C   C55       1.0  0.40850  0.89997  0.19759  1.0000 -0.1489441139
C   C56       1.0  0.59150  0.39997  0.30241  1.0000 -0.1489441139
C   C57       1.0  0.65030  0.04906  0.84107  1.0000 0.5678048017
C   C58       1.0  0.34970  0.54906  0.65893  1.0000 0.5678048017
C   C59       1.0  0.34970  0.95094  0.15893  1.0000 0.5678048017
C   C60       1.0  0.65030  0.45094  0.34107  1.0000 0.5678048017
C   C61       1.0  0.96870  0.41945  0.57630  1.0000 0.1193711616
C   C62       1.0  0.03130  0.91945  0.92370  1.0000 0.1193711616
C   C63       1.0  0.03130  0.58055  0.42370  1.0000 0.1193711616
C   C64       1.0  0.96870  0.08055  0.07630  1.0000 0.1193711616
C   C65       1.0  0.86030  0.40372  0.60300  1.0000 -0.1283789077
C   C66       1.0  0.13970  0.90372  0.89700  1.0000 -0.1283789077
C   C67       1.0  0.13970  0.59628  0.39700  1.0000 -0.1283789077
C   C68       1.0  0.86030  0.09628  0.10300  1.0000 -0.1283789077
C   C69       1.0  0.87820  0.39035  0.71090  1.0000 -0.026552612
C   C70       1.0  0.12180  0.89035  0.78910  1.0000 -0.026552612
C   C71       1.0  0.12180  0.60965  0.28910  1.0000 -0.026552612
C   C72       1.0  0.87820  0.10965  0.21090  1.0000 -0.026552612
C   C73       1.0  0.00150  0.39269  0.78800  1.0000 -0.1786772446
C   C74       1.0  0.99850  0.89269  0.71200  1.0000 -0.1786772446
C   C75       1.0  0.99850  0.60731  0.21200  1.0000 -0.1786772446
C   C76       1.0  0.00150  0.10731  0.28800  1.0000 -0.1786772446
C   C77       1.0  0.10500  0.40961  0.75575  1.0000 0.1635928484
C   C78       1.0  0.89500  0.90961  0.74425  1.0000 0.1635928484
C   C79       1.0  0.89500  0.59039  0.24425  1.0000 0.1635928484
C   C80       1.0  0.10500  0.09039  0.25575  1.0000 0.1635928484
C   C81       1.0  0.23980  0.41577  0.83378  1.0000 0.1739094886
C   C82       1.0  0.76020  0.91577  0.66622  1.0000 0.1739094886
C   C83       1.0  0.76020  0.58423  0.16622  1.0000 0.1739094886
C   C84       1.0  0.23980  0.08423  0.33378  1.0000 0.1739094886
C   C85       1.0  0.27550  0.40193  0.94420  1.0000 -0.1701962394
C   C86       1.0  0.72450  0.90193  0.55580  1.0000 -0.1701962394
C   C87       1.0  0.72450  0.59807  0.05580  1.0000 -0.1701962394
C   C88       1.0  0.27550  0.09807  0.44420  1.0000 -0.1701962394
C   C89       1.0  0.40270  0.40974  0.01050  1.0000 -0.026552612
C   C90       1.0  0.59730  0.90974  0.48950  1.0000 -0.026552612
C   C91       1.0  0.59730  0.59026  0.98950  1.0000 -0.026552612
C   C92       1.0  0.40270  0.09026  0.51050  1.0000 -0.026552612
C   C93       1.0  0.49130  0.43054  0.96700  1.0000 -0.1489441139
C   C94       1.0  0.50870  0.93054  0.53300  1.0000 -0.1489441139
C   C95       1.0  0.50870  0.56946  0.03300  1.0000 -0.1489441139
C   C96       1.0  0.49130  0.06946  0.46700  1.0000 -0.1489441139
C   C97       1.0  0.44960  0.44335  0.85710  1.0000 0.0874850335
C   C98       1.0  0.55040  0.94335  0.64290  1.0000 0.0874850335
C   C99       1.0  0.55040  0.55665  0.14290  1.0000 0.0874850335
C   C100      1.0  0.44960  0.05665  0.35710  1.0000 0.0874850335
S   S1        1.0  0.16574  0.49219  0.15192  1.0000 0.1015532086
S   S2        1.0  0.83426  0.99219  0.34808  1.0000 0.1015532086
S   S3        1.0  0.83426  0.50781  0.84808  1.0000 0.1015532086
S   S4        1.0  0.16574  0.00781  0.65192  1.0000 0.1015532086
S   S5        1.0  0.46551  0.29062  0.67901  1.0000 0.1299791007
S   S6        1.0  0.53449  0.79062  0.82099  1.0000 0.1299791007
S   S7        1.0  0.53449  0.70938  0.32099  1.0000 0.1299791007
S   S8        1.0  0.46551  0.20938  0.17901  1.0000 0.1299791007
S   S9        1.0  0.67621  0.14378  0.74898  1.0000 0.1117950128
S   S10       1.0  0.32379  0.64378  0.75102  1.0000 0.1117950128
S   S11       1.0  0.32379  0.85622  0.25102  1.0000 0.1117950128
S   S12       1.0  0.67621  0.35622  0.24898  1.0000 0.1117950128
N   N1        1.0  0.08843  0.42210  0.64989  1.0000 -0.2737129298
N   N2        1.0  0.91157  0.92210  0.85011  1.0000 -0.2737129298
N   N3        1.0  0.91157  0.57790  0.35011  1.0000 -0.2737129298
N   N4        1.0  0.08843  0.07790  0.14989  1.0000 -0.2737129298
N   N5        1.0  0.32600  0.43662  0.79171  1.0000 -0.2591692028
N   N6        1.0  0.67400  0.93662  0.70829  1.0000 -0.2591692028
N   N7        1.0  0.67400  0.56338  0.20829  1.0000 -0.2591692028
N   N8        1.0  0.32600  0.06338  0.29171  1.0000 -0.2591692028
O   O1        1.0  0.14706  0.46033  0.44265  1.0000 -0.5377172274
O   O2        1.0  0.85294  0.96033  0.05735  1.0000 -0.5377172274
O   O3        1.0  0.85294  0.53967  0.55735  1.0000 -0.5377172274
O   O4        1.0  0.14706  0.03967  0.94265  1.0000 -0.5377172274
O   O5        1.0  0.31544  0.47842  0.38431  1.0000 -0.5683950303
O   O6        1.0  0.68456  0.97842  0.11569  1.0000 -0.5683950303
O   O7        1.0  0.68456  0.52158  0.61569  1.0000 -0.5683950303
O   O8        1.0  0.31544  0.02158  0.88431  1.0000 -0.5683950303
O   O9        1.0  0.37440  0.39258  0.59839  1.0000 -0.5577216862
O   O10       1.0  0.62560  0.89258  0.90161  1.0000 -0.5577216862
O   O11       1.0  0.62560  0.60742  0.40161  1.0000 -0.5577216862
O   O12       1.0  0.37440  0.10742  0.09839  1.0000 -0.5577216862
O   O13       1.0  0.54371  0.41792  0.54794  1.0000 -0.5377172274
O   O14       1.0  0.45629  0.91792  0.95206  1.0000 -0.5377172274
O   O15       1.0  0.45629  0.58208  0.45206  1.0000 -0.5377172274
O   O16       1.0  0.54371  0.08208  0.04794  1.0000 -0.5377172274
O   O17       1.0  0.76381  0.03950  0.84268  1.0000 -0.5289697168
O   O18       1.0  0.23619  0.53950  0.65732  1.0000 -0.5289697168
O   O19       1.0  0.23619  0.96050  0.15732  1.0000 -0.5289697168
O   O20       1.0  0.76381  0.46050  0.34268  1.0000 -0.5289697168
O   O21       1.0  0.58338  0.01396  0.86990  1.0000 -0.5683950303
O   O22       1.0  0.41662  0.51396  0.63010  1.0000 -0.5683950303
O   O23       1.0  0.41662  0.98604  0.13010  1.0000 -0.5683950303
O   O24       1.0  0.58338  0.48604  0.36990  1.0000 -0.5683950303
