# DDEC6 charges by PACMAN v1.1 (https://github.com/mtap-research/PACMAN-charge/)
data_2023[Ti][nan]3[ASR]1
_chemical_formula_sum              "Ti4 H24 C40 S8 O26"
_cell_length_a       11.1016
_cell_length_b       14.0256
_cell_length_c       14.7607
_cell_angle_alpha    108.362
_cell_angle_beta     111.011
_cell_angle_gamma    92.615

_symmetry_space_group_name_H-M    "P 1"
_symmetry_Int_Tables_number       1

loop_
  _symmetry_equiv_pos_as_xyz
  'x, y, z'

loop_
  _atom_site_type_symbol
  _atom_site_label
  _atom_site_symmetry_multiplicity
  _atom_site_fract_x
  _atom_site_fract_y
  _atom_site_fract_z
  _atom_site_occupancy
  _atom_site_charge
Ti  Ti1       1.0  0.63898  0.15813  0.14931  1.0000 2.0558969435
Ti  Ti2       1.0  0.36102  0.84187  0.85069  1.0000 2.0537993368
Ti  Ti3       1.0  0.75974  0.41214  0.29346  1.0000 2.0243915972
Ti  Ti4       1.0  0.24026  0.58786  0.70654  1.0000 2.0243915972
H   H1        1.0  0.04631  0.38491  0.21545  1.0000 0.1314913985
H   H2        1.0  0.95369  0.61509  0.78455  1.0000 0.1314913985
H   H3        1.0  0.22178  0.91702  0.04467  1.0000 0.1314913985
H   H4        1.0  0.77822  0.08298  0.95533  1.0000 0.1314913985
H   H5        1.0  0.17628  0.39265  0.12362  1.0000 0.1196510373
H   H6        1.0  0.82372  0.60735  0.87638  1.0000 0.1196510373
H   H7        1.0  0.00977  0.04809  0.20324  1.0000 0.1196510373
H   H8        1.0  0.99023  0.95191  0.79676  1.0000 0.1196510373
H   H9        1.0  0.52469  0.24643  0.41346  1.0000 0.1196510373
H   H10       1.0  0.47531  0.75357  0.58654  1.0000 0.1196510373
H   H11       1.0  0.08502  0.90711  0.13152  1.0000 0.1196510373
H   H12       1.0  0.91498  0.09289  0.86848  1.0000 0.1196510373
H   H13       1.0  0.24989  0.41864  0.42827  1.0000 0.1196510373
H   H14       1.0  0.75011  0.58136  0.57173  1.0000 0.1196510373
H   H15       1.0  0.26160  0.25368  0.06005  1.0000 0.1085692216
H   H16       1.0  0.73840  0.74632  0.93995  1.0000 0.1085692216
H   H17       1.0  0.44033  0.24052  0.94397  1.0000 0.1196510373
H   H18       1.0  0.55967  0.75948  0.05603  1.0000 0.1196510373
H   H19       1.0  0.24120  0.46775  0.91613  1.0000 0.1196510373
H   H20       1.0  0.75880  0.53225  0.08387  1.0000 0.1196510373
H   H21       1.0  0.30553  0.26143  0.37999  1.0000 0.1085692216
H   H22       1.0  0.69447  0.73857  0.62001  1.0000 0.1085692216
H   H23       1.0  0.24283  0.29852  0.88976  1.0000 0.1196510373
H   H24       1.0  0.75717  0.70148  0.11024  1.0000 0.1196510373
C   C1        1.0  0.05160  0.23910  0.20350  1.0000 -0.1502099763
C   C2        1.0  0.94840  0.76090  0.79650  1.0000 -0.1502099763
C   C3        1.0  0.22650  0.06570  0.06530  1.0000 -0.1577072832
C   C4        1.0  0.77350  0.93430  0.93470  1.0000 -0.1577072832
C   C5        1.0  0.07950  0.32770  0.18880  1.0000 -0.0809181677
C   C6        1.0  0.92050  0.67230  0.81120  1.0000 -0.0809181677
C   C7        1.0  0.09700  0.14810  0.16030  1.0000 0.0592591325
C   C8        1.0  0.90300  0.85190  0.83970  1.0000 0.0592591325
C   C9        1.0  0.19120  0.97480  0.07360  1.0000 -0.0880795531
C   C10       1.0  0.80880  0.02520  0.92640  1.0000 -0.0880795531
C   C11       1.0  0.17910  0.15550  0.10650  1.0000 0.0592591325
C   C12       1.0  0.82090  0.84450  0.89350  1.0000 0.0592591325
C   C13       1.0  0.15790  0.33240  0.13380  1.0000 -0.0809181677
C   C14       1.0  0.84210  0.66760  0.86620  1.0000 -0.0809181677
C   C15       1.0  0.06350  0.05290  0.16830  1.0000 -0.1300901677
C   C16       1.0  0.93650  0.94710  0.83170  1.0000 -0.1300901677
C   C17       1.0  0.59720  0.39580  0.48040  1.0000 -0.1502099763
C   C18       1.0  0.40280  0.60420  0.51960  1.0000 -0.1502099763
C   C19       1.0  0.55570  0.37630  0.00220  1.0000 -0.1577072832
C   C20       1.0  0.44430  0.62370  0.99780  1.0000 -0.1577072832
C   C21       1.0  0.50220  0.31070  0.43280  1.0000 -0.0809181677
C   C22       1.0  0.49780  0.68930  0.56720  1.0000 -0.0809181677
C   C23       1.0  0.10870  0.96880  0.12590  1.0000 -0.0880795531
C   C24       1.0  0.89130  0.03120  0.87410  1.0000 -0.0880795531
C   C25       1.0  0.33730  0.41380  0.44110  1.0000 -0.1132591609
C   C26       1.0  0.66270  0.58620  0.55890  1.0000 -0.1132591609
C   C27       1.0  0.20780  0.24880  0.09490  1.0000 -0.1357514802
C   C28       1.0  0.79220  0.75120  0.90510  1.0000 -0.1357514802
C   C29       1.0  0.44050  0.30950  0.95470  1.0000 -0.0809181677
C   C30       1.0  0.55950  0.69050  0.04530  1.0000 -0.0809181677
C   C31       1.0  0.43950  0.51650  0.98270  1.0000 0.0592591325
C   C32       1.0  0.56050  0.48350  0.01730  1.0000 0.0592591325
C   C33       1.0  0.56810  0.49610  0.51070  1.0000 0.0592591325
C   C34       1.0  0.43190  0.50390  0.48930  1.0000 0.0592591325
C   C35       1.0  0.32080  0.44530  0.93660  1.0000 -0.1300901677
C   C36       1.0  0.67920  0.55470  0.06340  1.0000 -0.1300901677
C   C37       1.0  0.37020  0.31960  0.41260  1.0000 -0.0976736415
C   C38       1.0  0.62980  0.68040  0.58740  1.0000 -0.0976736415
C   C39       1.0  0.32170  0.34450  0.92190  1.0000 -0.0976736415
C   C40       1.0  0.67830  0.65550  0.07810  1.0000 -0.0976736415
S   S1        1.0  0.32473  0.06775  0.99566  1.0000 1.2475361284
S   S2        1.0  0.67527  0.93225  0.00434  1.0000 1.2475361284
S   S3        1.0  0.95932  0.23748  0.27830  1.0000 1.2593192514
S   S4        1.0  0.04068  0.76252  0.72170  1.0000 1.2593192514
S   S5        1.0  0.70182  0.32860  0.04610  1.0000 1.2475361284
S   S6        1.0  0.29818  0.67140  0.95390  1.0000 1.2475361284
S   S7        1.0  0.76008  0.37706  0.50117  1.0000 1.2060741838
S   S8        1.0  0.23992  0.62294  0.49883  1.0000 1.2039424833
O   O1        1.0  0.93290  0.34100  0.31410  1.0000 -0.6838877145
O   O2        1.0  0.06710  0.65900  0.68590  1.0000 -0.6838877145
O   O3        1.0  0.84070  0.16640  0.20920  1.0000 -0.7040018979
O   O4        1.0  0.15930  0.83360  0.79080  1.0000 -0.7040018979
O   O5        1.0  0.44360  0.14530  0.06850  1.0000 -0.7073311004
O   O6        1.0  0.55640  0.85470  0.93150  1.0000 -0.7073311004
O   O7        1.0  0.65870  0.28800  0.23810  1.0000 -1.1762306634
O   O8        1.0  0.34130  0.71200  0.76190  1.0000 -1.1762306634
O   O9        1.0  0.36510  0.96845  0.97490  1.0000 -0.7073311004
O   O10       1.0  0.63490  0.03155  0.02510  1.0000 -0.7073311004
O   O11       1.0  0.66210  0.22580  0.04100  1.0000 -0.6838877145
O   O12       1.0  0.33790  0.77420  0.95900  1.0000 -0.6838877145
O   O13       1.0  0.80140  0.43060  0.44130  1.0000 -0.760777587
O   O14       1.0  0.19860  0.56940  0.55870  1.0000 -0.760777587
O   O15       1.0  0.77550  0.39660  0.15480  1.0000 -0.7473446968
O   O16       1.0  0.22450  0.60340  0.84520  1.0000 -0.7473446968
O   O17       1.0  0.03420  0.20380  0.36010  1.0000 -0.5249448362
O   O18       1.0  0.96580  0.79620  0.63990  1.0000 -0.5249448362
O   O19       1.0  0.25430  0.09350  0.90740  1.0000 -0.5545570496
O   O20       1.0  0.74570  0.90650  0.09260  1.0000 -0.5545570496
O   O21       1.0  0.83990  0.43040  0.61100  1.0000 -0.5811058822
O   O22       1.0  0.16010  0.56960  0.38900  1.0000 -0.5811058822
O   O23       1.0  0.75810  0.26930  0.46280  1.0000 -0.5307004247
O   O24       1.0  0.24190  0.73070  0.53720  1.0000 -0.5307004247
O   O25       1.0  0.77240  0.33160  0.98360  1.0000 -0.5307004247
O   O26       1.0  0.22760  0.66840  0.01640  1.0000 -0.5307004247
