# DDEC6 charges by PACMAN v1.1 (https://github.com/mtap-research/PACMAN-charge/)
data_2023[Nd][nan]3[ASR]2
_chemical_formula_sum              "Nd4 H12 C36 O24"
_cell_length_a       10.3761
_cell_length_b       10.3761
_cell_length_c       14.1529
_cell_angle_alpha    90
_cell_angle_beta     90
_cell_angle_gamma    90

_symmetry_space_group_name_H-M    "P 1"
_symmetry_Int_Tables_number       1

loop_
  _symmetry_equiv_pos_as_xyz
  'x, y, z'

loop_
  _atom_site_type_symbol
  _atom_site_label
  _atom_site_symmetry_multiplicity
  _atom_site_fract_x
  _atom_site_fract_y
  _atom_site_fract_z
  _atom_site_occupancy
  _atom_site_charge
Nd  Nd1       1.0  0.87462  0.86757  0.63498  1.0000 2.1235108172
Nd  Nd2       1.0  0.12538  0.13243  0.13498  1.0000 2.1235108172
Nd  Nd3       1.0  0.13243  0.87462  0.88498  1.0000 2.1235108172
Nd  Nd4       1.0  0.86757  0.12538  0.38498  1.0000 2.1235108172
H   H1        1.0  0.12300  0.01128  0.50923  1.0000 0.1103022044
H   H2        1.0  0.87700  0.98872  0.00923  1.0000 0.1103022044
H   H3        1.0  0.98872  0.12300  0.75923  1.0000 0.1103022044
H   H4        1.0  0.01128  0.87700  0.25923  1.0000 0.1103022044
H   H5        1.0  0.45222  0.02166  0.35890  1.0000 0.1393742357
H   H6        1.0  0.54778  0.97834  0.85890  1.0000 0.1393742357
H   H7        1.0  0.97834  0.45222  0.60890  1.0000 0.1393742357
H   H8        1.0  0.02166  0.54778  0.10890  1.0000 0.1393742357
H   H9        1.0  0.45729  0.91719  0.63218  1.0000 0.1393742357
H   H10       1.0  0.54271  0.08281  0.13218  1.0000 0.1393742357
H   H11       1.0  0.08281  0.45729  0.88218  1.0000 0.1393742357
H   H12       1.0  0.91719  0.54271  0.38218  1.0000 0.1393742357
C   C1        1.0  0.20880  0.92710  0.67330  1.0000 0.628919745
C   C2        1.0  0.79120  0.07290  0.17330  1.0000 0.628919745
C   C3        1.0  0.07290  0.20880  0.92330  1.0000 0.628919745
C   C4        1.0  0.92710  0.79120  0.42330  1.0000 0.628919745
C   C5        1.0  0.27830  0.95600  0.58300  1.0000 -0.0385063253
C   C6        1.0  0.72170  0.04400  0.08300  1.0000 -0.0385063253
C   C7        1.0  0.04400  0.27830  0.83300  1.0000 -0.0385063253
C   C8        1.0  0.95600  0.72170  0.33300  1.0000 -0.0385063253
C   C9        1.0  0.21130  0.99740  0.50490  1.0000 -0.1131883561
C   C10       1.0  0.78870  0.00260  0.00490  1.0000 -0.1131883561
C   C11       1.0  0.00260  0.21130  0.75490  1.0000 -0.1131883561
C   C12       1.0  0.99740  0.78870  0.25490  1.0000 -0.1131883561
C   C13       1.0  0.27470  0.01870  0.41900  1.0000 -0.0219871643
C   C14       1.0  0.72530  0.98130  0.91900  1.0000 -0.0219871643
C   C15       1.0  0.98130  0.27470  0.66900  1.0000 -0.0219871643
C   C16       1.0  0.01870  0.72530  0.16900  1.0000 -0.0219871643
C   C17       1.0  0.40850  0.00550  0.41500  1.0000 -0.0981923751
C   C18       1.0  0.59150  0.99450  0.91500  1.0000 -0.0981923751
C   C19       1.0  0.99450  0.40850  0.66500  1.0000 -0.0981923751
C   C20       1.0  0.00550  0.59150  0.16500  1.0000 -0.0981923751
C   C21       1.0  0.47610  0.96810  0.49510  1.0000 -0.0385063253
C   C22       1.0  0.52390  0.03190  0.99510  1.0000 -0.0385063253
C   C23       1.0  0.03190  0.47610  0.74510  1.0000 -0.0385063253
C   C24       1.0  0.96810  0.52390  0.24510  1.0000 -0.0385063253
C   C25       1.0  0.41160  0.94290  0.57890  1.0000 -0.0900187547
C   C26       1.0  0.58840  0.05710  0.07890  1.0000 -0.0900187547
C   C27       1.0  0.05710  0.41160  0.82890  1.0000 -0.0900187547
C   C28       1.0  0.94290  0.58840  0.32890  1.0000 -0.0900187547
C   C29       1.0  0.62040  0.96050  0.49230  1.0000 0.6574703102
C   C30       1.0  0.37960  0.03950  0.99230  1.0000 0.6574703102
C   C31       1.0  0.03950  0.62040  0.74230  1.0000 0.6574703102
C   C32       1.0  0.96050  0.37960  0.24230  1.0000 0.6574703102
C   C33       1.0  0.20380  0.05190  0.32930  1.0000 0.6107790117
C   C34       1.0  0.79620  0.94810  0.82930  1.0000 0.6107790117
C   C35       1.0  0.94810  0.20380  0.57930  1.0000 0.6107790117
C   C36       1.0  0.05190  0.79620  0.07930  1.0000 0.6107790117
O   O1        1.0  0.08710  0.93770  0.67530  1.0000 -0.7405094261
O   O2        1.0  0.91290  0.06230  0.17530  1.0000 -0.7405094261
O   O3        1.0  0.06230  0.08710  0.92530  1.0000 -0.7405094261
O   O4        1.0  0.93770  0.91290  0.42530  1.0000 -0.7405094261
O   O5        1.0  0.27230  0.89630  0.74510  1.0000 -0.6075980271
O   O6        1.0  0.72770  0.10370  0.24510  1.0000 -0.6075980271
O   O7        1.0  0.10370  0.27230  0.99510  1.0000 -0.6075980271
O   O8        1.0  0.89630  0.72770  0.49510  1.0000 -0.6075980271
O   O9        1.0  0.09500  0.10590  0.33200  1.0000 -0.7239465321
O   O10       1.0  0.90500  0.89410  0.83200  1.0000 -0.7239465321
O   O11       1.0  0.89410  0.09500  0.58200  1.0000 -0.7239465321
O   O12       1.0  0.10590  0.90500  0.08200  1.0000 -0.7239465321
O   O13       1.0  0.25650  0.02370  0.25300  1.0000 -0.6045361663
O   O14       1.0  0.74350  0.97630  0.75300  1.0000 -0.6045361663
O   O15       1.0  0.97630  0.25650  0.50300  1.0000 -0.6045361663
O   O16       1.0  0.02370  0.74350  0.00300  1.0000 -0.6045361663
O   O17       1.0  0.67670  0.00890  0.42330  1.0000 -0.6624848749
O   O18       1.0  0.32330  0.99110  0.92330  1.0000 -0.6624848749
O   O19       1.0  0.99110  0.67670  0.67330  1.0000 -0.6624848749
O   O20       1.0  0.00890  0.32330  0.17330  1.0000 -0.6624848749
O   O21       1.0  0.67530  0.90350  0.55940  1.0000 -0.6702562327
O   O22       1.0  0.32470  0.09650  0.05940  1.0000 -0.6702562327
O   O23       1.0  0.09650  0.67530  0.80940  1.0000 -0.6702562327
O   O24       1.0  0.90350  0.32470  0.30940  1.0000 -0.6702562327
