# DDEC6 charges by PACMAN v1.1 (https://github.com/mtap-research/PACMAN-charge/)
data_2023[Zn][nan]3[ASR]4
_chemical_formula_sum              "Zn4 H80 C116 N4 O16"
_cell_length_a       13.7425
_cell_length_b       13.7425
_cell_length_c       28.722
_cell_angle_alpha    88.5319
_cell_angle_beta     91.4681
_cell_angle_gamma    143.708

_symmetry_space_group_name_H-M    "P 1"
_symmetry_Int_Tables_number       1

loop_
  _symmetry_equiv_pos_as_xyz
  'x, y, z'

loop_
  _atom_site_type_symbol
  _atom_site_label
  _atom_site_symmetry_multiplicity
  _atom_site_fract_x
  _atom_site_fract_y
  _atom_site_fract_z
  _atom_site_occupancy
  _atom_site_charge
Zn  Zn1       1.0  0.33703  0.41237  0.49314  1.0000 0.8253472462
Zn  Zn2       1.0  0.41237  0.33703  0.00686  1.0000 0.8253472462
Zn  Zn3       1.0  0.66297  0.58763  0.50686  1.0000 0.8253472462
Zn  Zn4       1.0  0.58763  0.66297  0.99314  1.0000 0.8253472462
H   H1        1.0  0.19266  0.13954  0.36739  1.0000 0.1193635145
H   H2        1.0  0.13954  0.19266  0.13261  1.0000 0.1193635145
H   H3        1.0  0.80734  0.86046  0.63261  1.0000 0.1193635145
H   H4        1.0  0.86046  0.80734  0.86739  1.0000 0.1193635145
H   H5        1.0  0.15040  0.00584  0.30482  1.0000 0.1134497309
H   H6        1.0  0.00584  0.15040  0.19518  1.0000 0.1134497309
H   H7        1.0  0.84960  0.99416  0.69518  1.0000 0.1193635145
H   H8        1.0  0.99416  0.84960  0.80482  1.0000 0.1193635145
H   H9        1.0  0.57085  0.20295  0.33547  1.0000 0.1134497309
H   H10       1.0  0.20295  0.57085  0.16453  1.0000 0.1134497309
H   H11       1.0  0.42915  0.79705  0.66453  1.0000 0.1134497309
H   H12       1.0  0.79705  0.42915  0.83547  1.0000 0.1134497309
H   H13       1.0  0.61313  0.33815  0.39758  1.0000 0.1193635145
H   H14       1.0  0.33815  0.61313  0.10242  1.0000 0.1193635145
H   H15       1.0  0.38687  0.66185  0.60242  1.0000 0.1193635145
H   H16       1.0  0.66185  0.38687  0.89758  1.0000 0.1193635145
H   H17       1.0  0.48426  0.02240  0.29259  1.0000 0.1134497309
H   H18       1.0  0.02240  0.48426  0.20741  1.0000 0.1134497309
H   H19       1.0  0.51574  0.97760  0.70741  1.0000 0.1134497309
H   H20       1.0  0.97760  0.51574  0.79259  1.0000 0.1134497309
H   H21       1.0  0.28201  0.81341  0.16666  1.0000 0.1134497309
H   H22       1.0  0.81341  0.28201  0.33333  1.0000 0.1134497309
H   H23       1.0  0.71799  0.18659  0.83334  1.0000 0.1134497309
H   H24       1.0  0.18659  0.71799  0.66667  1.0000 0.1134497309
H   H25       1.0  0.17269  0.96975  0.23405  1.0000 0.1134497309
H   H26       1.0  0.96975  0.17269  0.26595  1.0000 0.1134497309
H   H27       1.0  0.82731  0.03025  0.76595  1.0000 0.1134497309
H   H28       1.0  0.03025  0.82731  0.73405  1.0000 0.1134497309
H   H29       1.0  0.43219  0.79715  0.24659  1.0000 0.1462601028
H   H30       1.0  0.79715  0.43219  0.25341  1.0000 0.1462601028
H   H31       1.0  0.56781  0.20285  0.75341  1.0000 0.1462601028
H   H32       1.0  0.20285  0.56781  0.74659  1.0000 0.1462601028
H   H33       1.0  0.49394  0.87650  0.19540  1.0000 0.1404969334
H   H34       1.0  0.87651  0.49394  0.30460  1.0000 0.1404969334
H   H35       1.0  0.50606  0.12349  0.80460  1.0000 0.1404969334
H   H36       1.0  0.12349  0.50606  0.69540  1.0000 0.1404969334
H   H37       1.0  0.60001  0.99177  0.24000  1.0000 0.1404969334
H   H38       1.0  0.99177  0.60001  0.26000  1.0000 0.1404969334
H   H39       1.0  0.39999  0.00823  0.76000  1.0000 0.1404969334
H   H40       1.0  0.00823  0.39999  0.74000  1.0000 0.1404969334
H   H41       1.0  0.79084  0.49250  0.09338  1.0000 0.1134497309
H   H42       1.0  0.49250  0.79084  0.40662  1.0000 0.1134497309
H   H43       1.0  0.20916  0.50750  0.90662  1.0000 0.1134497309
H   H44       1.0  0.50750  0.20916  0.59338  1.0000 0.1134497309
H   H45       1.0  0.98278  0.59756  0.14938  1.0000 0.1134497309
H   H46       1.0  0.59756  0.98278  0.35062  1.0000 0.1134497309
H   H47       1.0  0.01722  0.40244  0.85062  1.0000 0.1134497309
H   H48       1.0  0.40244  0.01722  0.64938  1.0000 0.1134497309
H   H49       1.0  0.16756  0.01994  0.15093  1.0000 0.1193635145
H   H50       1.0  0.01994  0.16756  0.34907  1.0000 0.1193635145
H   H51       1.0  0.83244  0.98006  0.84907  1.0000 0.1193635145
H   H52       1.0  0.98006  0.83244  0.65093  1.0000 0.1193635145
H   H53       1.0  0.98140  0.91746  0.09248  1.0000 0.1193635145
H   H54       1.0  0.91746  0.98140  0.40752  1.0000 0.1193635145
H   H55       1.0  0.01860  0.08254  0.90752  1.0000 0.1193635145
H   H56       1.0  0.08254  0.01860  0.59248  1.0000 0.1193635145
H   H57       1.0  0.16482  0.43694  0.44342  1.0000 0.1134497309
H   H58       1.0  0.43694  0.16482  0.05658  1.0000 0.1134497309
H   H59       1.0  0.83518  0.56306  0.55658  1.0000 0.1134497309
H   H60       1.0  0.56306  0.83518  0.94342  1.0000 0.1134497309
H   H61       1.0  0.91623  0.31955  0.44442  1.0000 0.1314030975
H   H62       1.0  0.31955  0.91623  0.05558  1.0000 0.1314030975
H   H63       1.0  0.08377  0.68045  0.55558  1.0000 0.1314030975
H   H64       1.0  0.68045  0.08377  0.94442  1.0000 0.1314030975
H   H65       1.0  0.75143  0.98453  0.53630  1.0000 0.1314030975
H   H66       1.0  0.98452  0.75142  0.96370  1.0000 0.1314030975
H   H67       1.0  0.24857  0.01547  0.46370  1.0000 0.1314030975
H   H68       1.0  0.01548  0.24857  0.03630  1.0000 0.1314030975
H   H69       1.0  0.00351  0.11317  0.53467  1.0000 0.1193635145
H   H70       1.0  0.11317  0.00351  0.96533  1.0000 0.1193635145
H   H71       1.0  0.99649  0.88683  0.46533  1.0000 0.1193635145
H   H72       1.0  0.88683  0.99649  0.03467  1.0000 0.1193635145
H   H73       1.0  0.50287  0.83273  0.50917  1.0000 0.1193635145
H   H74       1.0  0.83272  0.50287  0.99083  1.0000 0.1193635145
H   H75       1.0  0.49713  0.16728  0.49083  1.0000 0.1193635145
H   H76       1.0  0.16728  0.49713  0.00917  1.0000 0.1193635145
H   H77       1.0  0.74197  0.27841  0.48343  1.0000 0.1193635145
H   H78       1.0  0.27841  0.74197  0.01657  1.0000 0.1193635145
H   H79       1.0  0.25803  0.72159  0.51657  1.0000 0.1193635145
H   H80       1.0  0.72159  0.25803  0.98343  1.0000 0.1193635145
C   C1        1.0  0.43730  0.34190  0.42950  1.0000 0.5777752637
C   C2        1.0  0.34190  0.43730  0.07050  1.0000 0.5777752637
C   C3        1.0  0.56270  0.65810  0.57050  1.0000 0.5777752637
C   C4        1.0  0.65810  0.56270  0.92950  1.0000 0.5777752637
C   C5        1.0  0.40850  0.25410  0.38930  1.0000 -0.035908299
C   C6        1.0  0.25410  0.40850  0.11070  1.0000 -0.035908299
C   C7        1.0  0.59150  0.74590  0.61070  1.0000 -0.035908299
C   C8        1.0  0.74590  0.59150  0.88930  1.0000 -0.035908299
C   C9        1.0  0.27140  0.15420  0.36100  1.0000 -0.1085015744
C   C10       1.0  0.15420  0.27140  0.13900  1.0000 -0.1085015744
C   C11       1.0  0.72860  0.84580  0.63900  1.0000 -0.1085015744
C   C12       1.0  0.84580  0.72860  0.86100  1.0000 -0.1085015744
C   C13       1.0  0.24680  0.07500  0.32330  1.0000 -0.1506950934
C   C14       1.0  0.07500  0.24680  0.17670  1.0000 -0.1506950934
C   C15       1.0  0.75320  0.92500  0.67670  1.0000 -0.1506950934
C   C16       1.0  0.92500  0.75320  0.82330  1.0000 -0.1506950934
C   C17       1.0  0.35720  0.09300  0.31190  1.0000 0.0771262492
C   C18       1.0  0.09300  0.35720  0.18810  1.0000 0.0771262492
C   C19       1.0  0.64280  0.90700  0.68810  1.0000 0.0771262492
C   C20       1.0  0.90700  0.64280  0.81190  1.0000 0.0771262492
C   C21       1.0  0.49360  0.19080  0.34120  1.0000 -0.1506950934
C   C22       1.0  0.19080  0.49360  0.15880  1.0000 -0.1506950934
C   C23       1.0  0.50640  0.80920  0.65880  1.0000 -0.1506950934
C   C24       1.0  0.80920  0.50640  0.84120  1.0000 -0.1506950934
C   C25       1.0  0.51780  0.27020  0.37860  1.0000 -0.1085015744
C   C26       1.0  0.27020  0.51780  0.12140  1.0000 -0.1085015744
C   C27       1.0  0.48220  0.72980  0.62140  1.0000 -0.1085015744
C   C28       1.0  0.72980  0.48220  0.87860  1.0000 -0.1085015744
C   C29       1.0  0.33270  0.01050  0.27090  1.0000 0.0916400802
C   C30       1.0  0.01050  0.33270  0.22910  1.0000 0.0916400802
C   C31       1.0  0.66730  0.98950  0.72910  1.0000 0.0916400802
C   C32       1.0  0.98950  0.66730  0.77090  1.0000 0.0916400802
C   C33       1.0  0.41360  0.98620  0.26780  1.0000 -0.2179599924
C   C34       1.0  0.98620  0.41360  0.23220  1.0000 -0.2179599924
C   C35       1.0  0.58640  0.01380  0.73220  1.0000 -0.2179599924
C   C36       1.0  0.01380  0.58640  0.76780  1.0000 -0.2179599924
C   C37       1.0  0.39480  0.91140  0.22980  1.0000 0.1859137132
C   C38       1.0  0.91140  0.39480  0.27020  1.0000 0.1859137132
C   C39       1.0  0.60520  0.08860  0.77020  1.0000 0.1859137132
C   C40       1.0  0.08860  0.60520  0.72980  1.0000 0.1859137132
C   C41       1.0  0.29300  0.86120  0.19340  1.0000 -0.2333185807
C   C42       1.0  0.86120  0.29300  0.30660  1.0000 -0.2333185807
C   C43       1.0  0.70700  0.13880  0.80660  1.0000 -0.2333185807
C   C44       1.0  0.13880  0.70700  0.69340  1.0000 -0.2333185807
C   C45       1.0  0.20740  0.87880  0.19490  1.0000 0.0771262492
C   C46       1.0  0.87880  0.20740  0.30510  1.0000 0.0771262492
C   C47       1.0  0.79260  0.12120  0.80510  1.0000 0.0771262492
C   C48       1.0  0.12120  0.79260  0.69490  1.0000 0.0771262492
C   C49       1.0  0.22920  0.95480  0.23320  1.0000 -0.2179599924
C   C50       1.0  0.95480  0.22920  0.26680  1.0000 -0.2179599924
C   C51       1.0  0.77080  0.04520  0.76680  1.0000 -0.2179599924
C   C52       1.0  0.04520  0.77080  0.73320  1.0000 -0.2179599924
C   C53       1.0  0.48840  0.89260  0.22780  1.0000 -0.462624161
C   C54       1.0  0.89260  0.48840  0.27220  1.0000 -0.462624161
C   C55       1.0  0.51160  0.10740  0.77220  1.0000 -0.462624161
C   C56       1.0  0.10740  0.51160  0.72780  1.0000 -0.462624161
C   C57       1.0  0.73130  0.61930  0.05520  1.0000 0.5777752637
C   C58       1.0  0.61930  0.73130  0.44480  1.0000 0.5777752637
C   C59       1.0  0.26870  0.38070  0.94480  1.0000 0.5777752637
C   C60       1.0  0.38070  0.26870  0.55520  1.0000 0.5777752637
C   C61       1.0  0.86050  0.69130  0.08870  1.0000 -0.0509213735
C   C62       1.0  0.69130  0.86050  0.41130  1.0000 -0.0509213735
C   C63       1.0  0.13950  0.30870  0.91130  1.0000 -0.0509213735
C   C64       1.0  0.30870  0.13950  0.58870  1.0000 -0.0509213735
C   C65       1.0  0.86660  0.59960  0.10520  1.0000 -0.0969946593
C   C66       1.0  0.59960  0.86660  0.39480  1.0000 -0.0969946593
C   C67       1.0  0.13340  0.40040  0.89480  1.0000 -0.0969946593
C   C68       1.0  0.40040  0.13340  0.60520  1.0000 -0.0969946593
C   C69       1.0  0.98110  0.66210  0.13860  1.0000 -0.1557680801
C   C70       1.0  0.66210  0.98110  0.36140  1.0000 -0.1557680801
C   C71       1.0  0.01890  0.33790  0.86140  1.0000 -0.1557680801
C   C72       1.0  0.33790  0.01890  0.63860  1.0000 -0.1557680801
C   C73       1.0  0.09360  0.81860  0.15650  1.0000 0.0744929067
C   C74       1.0  0.81860  0.09360  0.34350  1.0000 0.0744929067
C   C75       1.0  0.90640  0.18140  0.84350  1.0000 0.0744929067
C   C76       1.0  0.18140  0.90640  0.65650  1.0000 0.0744929067
C   C77       1.0  0.09140  0.91260  0.13920  1.0000 -0.1557680801
C   C78       1.0  0.91260  0.09140  0.36080  1.0000 -0.1557680801
C   C79       1.0  0.90860  0.08740  0.86080  1.0000 -0.1557680801
C   C80       1.0  0.08740  0.90860  0.63920  1.0000 -0.1557680801
C   C81       1.0  0.97810  0.85010  0.10490  1.0000 -0.0936889112
C   C82       1.0  0.85010  0.97810  0.39510  1.0000 -0.0936889112
C   C83       1.0  0.02190  0.14990  0.89510  1.0000 -0.0936889112
C   C84       1.0  0.14990  0.02190  0.60490  1.0000 -0.0936889112
C   C85       1.0  0.08060  0.34580  0.46360  1.0000 0.0916400802
C   C86       1.0  0.34580  0.08060  0.03640  1.0000 0.0916400802
C   C87       1.0  0.91940  0.65420  0.53640  1.0000 0.0916400802
C   C88       1.0  0.65420  0.91940  0.96360  1.0000 0.0916400802
C   C89       1.0  0.93150  0.27530  0.46380  1.0000 -0.2052165553
C   C90       1.0  0.27530  0.93150  0.03620  1.0000 -0.2052165553
C   C91       1.0  0.06850  0.72470  0.53620  1.0000 -0.2052165553
C   C92       1.0  0.72470  0.06850  0.96380  1.0000 -0.2052165553
C   C93       1.0  0.80510  0.14050  0.49220  1.0000 0.1193635145
C   C94       1.0  0.14050  0.80510  0.00780  1.0000 0.1193635145
C   C95       1.0  0.19490  0.85950  0.50780  1.0000 0.1193635145
C   C96       1.0  0.85950  0.19490  0.99220  1.0000 0.1193635145
C   C97       1.0  0.83590  0.08050  0.51760  1.0000 -0.1887451694
C   C98       1.0  0.08050  0.83590  0.98240  1.0000 -0.1887451694
C   C99       1.0  0.16410  0.91950  0.48240  1.0000 -0.1887451694
C   C100      1.0  0.91950  0.16410  0.01760  1.0000 -0.1887451694
C   C101      1.0  0.98640  0.15700  0.51640  1.0000 0.0916400802
C   C102      1.0  0.15700  0.98640  0.98360  1.0000 0.0916400802
C   C103      1.0  0.01360  0.84300  0.48360  1.0000 0.0916400802
C   C104      1.0  0.84300  0.01360  0.01640  1.0000 0.0916400802
C   C105      1.0  0.50290  0.90170  0.50540  1.0000 -0.1316385851
C   C106      1.0  0.90170  0.50290  0.99460  1.0000 -0.1316385851
C   C107      1.0  0.49710  0.09830  0.49460  1.0000 -0.1316385851
C   C108      1.0  0.09830  0.49710  0.00540  1.0000 -0.1316385851
C   C109      1.0  0.64800  0.06700  0.49540  1.0000 0.0616545841
C   C110      1.0  0.06700  0.64800  0.00460  1.0000 0.0616545841
C   C111      1.0  0.35200  0.93300  0.50460  1.0000 0.0616545841
C   C112      1.0  0.93300  0.35200  0.99540  1.0000 0.0616545841
C   C113      1.0  0.64330  0.16450  0.49020  1.0000 -0.1401144848
C   C114      1.0  0.16450  0.64330  0.00980  1.0000 -0.1401144848
C   C115      1.0  0.35670  0.83550  0.50980  1.0000 -0.1401144848
C   C116      1.0  0.83550  0.35670  0.99020  1.0000 -0.1401144848
N   N1        1.0  0.11010  0.29130  0.49030  1.0000 -0.2179599924
N   N2        1.0  0.29130  0.11010  0.00970  1.0000 -0.2179599924
N   N3        1.0  0.88990  0.70870  0.50970  1.0000 -0.2179599924
N   N4        1.0  0.70870  0.88990  0.99030  1.0000 -0.2179599924
O   O1        1.0  0.32736  0.31384  0.43876  1.0000 -0.5308905229
O   O2        1.0  0.31384  0.32736  0.06124  1.0000 -0.5308905229
O   O3        1.0  0.67264  0.68616  0.56124  1.0000 -0.5308905229
O   O4        1.0  0.68616  0.67264  0.93876  1.0000 -0.5308905229
O   O5        1.0  0.57101  0.43959  0.45098  1.0000 -0.5394071227
O   O6        1.0  0.43959  0.57101  0.04902  1.0000 -0.5394071227
O   O7        1.0  0.42899  0.56041  0.54902  1.0000 -0.5394071227
O   O8        1.0  0.56041  0.42899  0.95098  1.0000 -0.5394071227
O   O9        1.0  0.74184  0.71216  0.03720  1.0000 -0.5497821853
O   O10       1.0  0.71216  0.74184  0.46280  1.0000 -0.5497821853
O   O11       1.0  0.25816  0.28784  0.96280  1.0000 -0.5497821853
O   O12       1.0  0.28784  0.25816  0.53720  1.0000 -0.5497821853
O   O13       1.0  0.61384  0.46756  0.04704  1.0000 -0.5394071227
O   O14       1.0  0.46756  0.61384  0.45296  1.0000 -0.5394071227
O   O15       1.0  0.38616  0.53244  0.95296  1.0000 -0.5497821853
O   O16       1.0  0.53244  0.38616  0.54704  1.0000 -0.5497821853
