# DDEC6 charges by PACMAN v1.1 (https://github.com/mtap-research/PACMAN-charge/)
data_2023[Cu][sql]2[ASR]4
_chemical_formula_sum              "Cu2 H32 C48 N4 O12"
_cell_length_a       10.7289
_cell_length_b       11.2298
_cell_length_c       12.193
_cell_angle_alpha    77.8
_cell_angle_beta     76.673
_cell_angle_gamma    83.343

_symmetry_space_group_name_H-M    "P 1"
_symmetry_Int_Tables_number       1

loop_
  _symmetry_equiv_pos_as_xyz
  'x, y, z'

loop_
  _atom_site_type_symbol
  _atom_site_label
  _atom_site_symmetry_multiplicity
  _atom_site_fract_x
  _atom_site_fract_y
  _atom_site_fract_z
  _atom_site_occupancy
  _atom_site_charge
Cu  Cu1       1.0  0.30555  0.31158  0.79402  1.0000 0.7194047269
Cu  Cu2       1.0  0.69445  0.68842  0.20598  1.0000 0.7194047269
H   H1        1.0  0.90993  0.11018  0.91040  1.0000 0.1205190802
H   H2        1.0  0.47866  0.08007  0.82644  1.0000 0.1109359685
H   H3        1.0  0.65059  0.47170  0.88651  1.0000 0.1298424509
H   H4        1.0  0.48698  0.50725  0.73394  1.0000 0.1109359685
H   H5        1.0  0.12036  0.51783  0.87500  1.0000 0.1109359685
H   H6        1.0  0.11605  0.72492  0.87057  1.0000 0.1391644027
H   H7        1.0  0.74734  0.62768  0.89739  1.0000 0.1298424509
H   H8        1.0  0.87526  0.68867  0.83362  1.0000 0.1205190802
H   H9        1.0  0.13183  0.92902  0.76050  1.0000 0.1298424509
H   H10       1.0  0.48194  0.87332  0.83211  1.0000 0.1391644027
H   H11       1.0  0.49447  0.71025  0.73668  1.0000 0.1298424509
H   H12       1.0  0.80155  0.95389  0.96668  1.0000 0.1109359685
H   H13       1.0  0.68799  0.89567  0.94082  1.0000 0.1298424509
H   H14       1.0  0.14177  0.13346  0.74892  1.0000 0.1109359685
H   H15       1.0  0.72726  0.65900  0.56712  1.0000 0.227040514
H   H16       1.0  0.92187  0.94583  0.63311  1.0000 0.2087465248
H   H17       1.0  0.09007  0.88982  0.08960  1.0000 0.1205190802
H   H18       1.0  0.52134  0.91993  0.17356  1.0000 0.1109359685
H   H19       1.0  0.34941  0.52830  0.11349  1.0000 0.1298424509
H   H20       1.0  0.51302  0.49275  0.26606  1.0000 0.1109359685
H   H21       1.0  0.87964  0.48217  0.12500  1.0000 0.1109359685
H   H22       1.0  0.88395  0.27508  0.12943  1.0000 0.1391644027
H   H23       1.0  0.25266  0.37232  0.10261  1.0000 0.1298424509
H   H24       1.0  0.12474  0.31133  0.16638  1.0000 0.1205190802
H   H25       1.0  0.86817  0.07098  0.23950  1.0000 0.1298424509
H   H26       1.0  0.51806  0.12668  0.16789  1.0000 0.1391644027
H   H27       1.0  0.50553  0.28975  0.26332  1.0000 0.1298424509
H   H28       1.0  0.19845  0.04611  0.03332  1.0000 0.1109359685
H   H29       1.0  0.31201  0.10433  0.05918  1.0000 0.1298424509
H   H30       1.0  0.85823  0.86654  0.25108  1.0000 0.1109359685
H   H31       1.0  0.27274  0.34100  0.43288  1.0000 0.227040514
H   H32       1.0  0.07813  0.05417  0.36689  1.0000 0.2087465248
C   C1        1.0  0.05260  0.29440  0.88600  1.0000 0.5510060784
C   C2        1.0  0.85850  0.18280  0.90270  1.0000 -0.2533629689
C   C3        1.0  0.65120  0.28900  0.90070  1.0000 -0.0867027346
C   C4        1.0  0.40810  0.04920  0.81270  1.0000 0.1109359685
C   C5        1.0  0.70330  0.39980  0.88820  1.0000 -0.2413366664
C   C6        1.0  0.41210  0.55110  0.76300  1.0000 0.0791345179
C   C7        1.0  0.91150  0.29360  0.88750  1.0000 -0.0867027346
C   C8        1.0  0.30430  0.74260  0.80200  1.0000 0.1109359685
C   C9        1.0  0.83380  0.40260  0.87810  1.0000 0.2087465248
C   C10       1.0  0.30660  0.87500  0.79830  1.0000 0.1205190802
C   C11       1.0  0.19570  0.55750  0.84470  1.0000 0.1109359685
C   C12       1.0  0.72950  0.18050  0.90610  1.0000 0.2087465248
C   C13       1.0  0.50990  0.28640  0.90510  1.0000 0.5641738769
C   C14       1.0  0.19280  0.68240  0.84350  1.0000 -0.1800385568
C   C15       1.0  0.82300  0.62260  0.83660  1.0000 -0.0479578975
C   C16       1.0  0.20420  0.95740  0.77350  1.0000 -0.1931646172
C   C17       1.0  0.41050  0.92390  0.81690  1.0000 -0.1741018001
C   C18       1.0  0.41680  0.67370  0.76280  1.0000 -0.1800385568
C   C19       1.0  0.74370  0.96270  0.91450  1.0000 -0.0574392344
C   C20       1.0  0.20990  0.08040  0.76830  1.0000 0.0791345179
C   C21       1.0  0.78300  0.63840  0.72630  1.0000 0.0578473636
C   C22       1.0  0.81840  0.95580  0.79960  1.0000 0.0690824051
C   C23       1.0  0.75170  0.64990  0.63700  1.0000 -0.3546377424
C   C24       1.0  0.87600  0.95030  0.70700  1.0000 -0.3367632482
C   C25       1.0  0.94740  0.70560  0.11400  1.0000 0.5510060784
C   C26       1.0  0.14150  0.81720  0.09730  1.0000 -0.2533629689
C   C27       1.0  0.34880  0.71100  0.09930  1.0000 -0.0867027346
C   C28       1.0  0.59190  0.95080  0.18730  1.0000 0.1109359685
C   C29       1.0  0.29670  0.60020  0.11180  1.0000 -0.2413366664
C   C30       1.0  0.58790  0.44890  0.23700  1.0000 0.0791345179
C   C31       1.0  0.08850  0.70640  0.11250  1.0000 -0.0867027346
C   C32       1.0  0.69570  0.25740  0.19800  1.0000 0.1109359685
C   C33       1.0  0.16620  0.59740  0.12190  1.0000 0.2087465248
C   C34       1.0  0.69340  0.12500  0.20170  1.0000 0.1205190802
C   C35       1.0  0.80430  0.44250  0.15530  1.0000 0.1109359685
C   C36       1.0  0.27050  0.81950  0.09390  1.0000 0.2087465248
C   C37       1.0  0.49010  0.71360  0.09490  1.0000 0.5641738769
C   C38       1.0  0.80720  0.31760  0.15650  1.0000 -0.1800385568
C   C39       1.0  0.17700  0.37740  0.16340  1.0000 -0.0479578975
C   C40       1.0  0.79580  0.04260  0.22650  1.0000 -0.1931646172
C   C41       1.0  0.58950  0.07610  0.18310  1.0000 -0.1741018001
C   C42       1.0  0.58320  0.32630  0.23720  1.0000 -0.1800385568
C   C43       1.0  0.25630  0.03730  0.08550  1.0000 -0.0574392344
C   C44       1.0  0.79010  0.91960  0.23170  1.0000 0.0791345179
C   C45       1.0  0.21700  0.36160  0.27370  1.0000 0.0578473636
C   C46       1.0  0.18160  0.04420  0.20040  1.0000 0.0690824051
C   C47       1.0  0.24830  0.35010  0.36300  1.0000 -0.3568477038
C   C48       1.0  0.12400  0.04970  0.29300  1.0000 -0.3367632482
N   N1        1.0  0.30280  0.49270  0.80380  1.0000 -0.2217038426
N   N2        1.0  0.30900  0.12710  0.79000  1.0000 -0.2264412123
N   N3        1.0  0.69720  0.50730  0.19620  1.0000 -0.2217038426
N   N4        1.0  0.69100  0.87290  0.21000  1.0000 -0.2264412123
O   O1        1.0  0.12360  0.33333  0.78930  1.0000 -0.5179284218
O   O2        1.0  0.48340  0.28950  0.80730  1.0000 -0.5420600328
O   O3        1.0  0.66690  0.07640  0.91730  1.0000 -0.1931646172
O   O4        1.0  0.89460  0.50820  0.86350  1.0000 -0.1800385568
O   O5        1.0  0.08990  0.25330  0.97540  1.0000 -0.5329011682
O   O6        1.0  0.43260  0.28280  0.99690  1.0000 -0.5420600328
O   O7        1.0  0.87640  0.66667  0.21070  1.0000 -0.5179284218
O   O8        1.0  0.51660  0.71050  0.19270  1.0000 -0.5420600328
O   O9        1.0  0.33310  0.92360  0.08270  1.0000 -0.1931646172
O   O10       1.0  0.10540  0.49180  0.13650  1.0000 -0.1800385568
O   O11       1.0  0.91010  0.74670  0.02460  1.0000 -0.5329011682
O   O12       1.0  0.56740  0.71720  0.00310  1.0000 -0.5420600328
