# DDEC6 charges by PACMAN v1.1 (https://github.com/mtap-research/PACMAN-charge/)
data_2023[Cu][nan]3[ASR]8
_chemical_formula_sum              "Cu12 H108 C210 N12 O48"
_cell_length_a       24.4238
_cell_length_b       24.4238
_cell_length_c       24.4238
_cell_angle_alpha    100.592
_cell_angle_beta     100.592
_cell_angle_gamma    100.592

_symmetry_space_group_name_H-M    "P 1"
_symmetry_Int_Tables_number       1

loop_
  _symmetry_equiv_pos_as_xyz
  'x, y, z'

loop_
  _atom_site_type_symbol
  _atom_site_label
  _atom_site_symmetry_multiplicity
  _atom_site_fract_x
  _atom_site_fract_y
  _atom_site_fract_z
  _atom_site_occupancy
  _atom_site_charge
Cu  Cu1       1.0  0.20200  0.93931  0.35056  1.0000 0.868211579
Cu  Cu2       1.0  0.93931  0.35056  0.20200  1.0000 0.868211579
Cu  Cu3       1.0  0.35056  0.20200  0.93931  1.0000 0.868211579
Cu  Cu4       1.0  0.79800  0.06069  0.64944  1.0000 0.868211579
Cu  Cu5       1.0  0.06069  0.64944  0.79800  1.0000 0.868211579
Cu  Cu6       1.0  0.64944  0.79800  0.06069  1.0000 0.868211579
Cu  Cu7       1.0  0.74567  0.85346  0.04451  1.0000 0.868211579
Cu  Cu8       1.0  0.85346  0.04451  0.74567  1.0000 0.868211579
Cu  Cu9       1.0  0.04451  0.74567  0.85346  1.0000 0.868211579
Cu  Cu10      1.0  0.25433  0.14654  0.95549  1.0000 0.868211579
Cu  Cu11      1.0  0.14654  0.95549  0.25433  1.0000 0.868211579
Cu  Cu12      1.0  0.95549  0.25433  0.14654  1.0000 0.868211579
H   H1        1.0  0.55629  0.10241  0.21032  1.0000 0.1293341288
H   H2        1.0  0.10241  0.21032  0.55629  1.0000 0.1293341288
H   H3        1.0  0.21032  0.55629  0.10241  1.0000 0.1293341288
H   H4        1.0  0.44371  0.89759  0.78968  1.0000 0.1293341288
H   H5        1.0  0.89759  0.78968  0.44371  1.0000 0.1293341288
H   H6        1.0  0.78968  0.44371  0.89759  1.0000 0.1293341288
H   H7        1.0  0.51408  0.17791  0.35253  1.0000 0.1293341288
H   H8        1.0  0.17791  0.35253  0.51408  1.0000 0.1293341288
H   H9        1.0  0.35253  0.51408  0.17791  1.0000 0.1293341288
H   H10       1.0  0.48592  0.82209  0.64747  1.0000 0.1293341288
H   H11       1.0  0.82209  0.64747  0.48592  1.0000 0.1293341288
H   H12       1.0  0.64747  0.48592  0.82209  1.0000 0.1293341288
H   H13       1.0  0.68001  0.17476  0.35281  1.0000 0.1293341288
H   H14       1.0  0.17476  0.35281  0.68001  1.0000 0.1293341288
H   H15       1.0  0.35281  0.68001  0.17476  1.0000 0.1293341288
H   H16       1.0  0.31999  0.82524  0.64719  1.0000 0.1293341288
H   H17       1.0  0.82524  0.64719  0.31999  1.0000 0.1293341288
H   H18       1.0  0.64719  0.31999  0.82524  1.0000 0.1293341288
H   H19       1.0  0.60699  0.18539  0.44868  1.0000 0.1107432362
H   H20       1.0  0.18539  0.44868  0.60699  1.0000 0.1107432362
H   H21       1.0  0.44868  0.60699  0.18539  1.0000 0.1107432362
H   H22       1.0  0.39301  0.81461  0.55132  1.0000 0.1107432362
H   H23       1.0  0.81461  0.55132  0.39301  1.0000 0.1107432362
H   H24       1.0  0.55132  0.39301  0.81461  1.0000 0.1107432362
H   H25       1.0  0.65733  0.22921  0.43518  1.0000 0.1107432362
H   H26       1.0  0.22921  0.43518  0.65733  1.0000 0.1107432362
H   H27       1.0  0.43518  0.65733  0.22921  1.0000 0.1107432362
H   H28       1.0  0.34267  0.77079  0.56482  1.0000 0.1107432362
H   H29       1.0  0.77079  0.56482  0.34267  1.0000 0.1107432362
H   H30       1.0  0.56482  0.34267  0.77079  1.0000 0.1107432362
H   H31       1.0  0.59531  0.24293  0.43124  1.0000 0.1107432362
H   H32       1.0  0.24293  0.43124  0.59531  1.0000 0.1107432362
H   H33       1.0  0.43124  0.59531  0.24293  1.0000 0.1107432362
H   H34       1.0  0.40469  0.75707  0.56876  1.0000 0.1107432362
H   H35       1.0  0.75707  0.56876  0.40469  1.0000 0.1107432362
H   H36       1.0  0.56876  0.40469  0.75707  1.0000 0.1107432362
H   H37       1.0  0.45800  0.08014  0.34327  1.0000 0.1408742605
H   H38       1.0  0.08014  0.34327  0.45800  1.0000 0.1408742605
H   H39       1.0  0.34327  0.45800  0.08014  1.0000 0.1408742605
H   H40       1.0  0.54200  0.91986  0.65673  1.0000 0.1408742605
H   H41       1.0  0.91986  0.65673  0.54200  1.0000 0.1408742605
H   H42       1.0  0.65673  0.54200  0.91986  1.0000 0.1408742605
H   H43       1.0  0.37064  0.03019  0.35412  1.0000 0.1293341288
H   H44       1.0  0.03019  0.35412  0.37064  1.0000 0.1293341288
H   H45       1.0  0.35412  0.37064  0.03019  1.0000 0.1293341288
H   H46       1.0  0.62936  0.96981  0.64588  1.0000 0.1293341288
H   H47       1.0  0.96981  0.64588  0.62936  1.0000 0.1293341288
H   H48       1.0  0.64588  0.62936  0.96981  1.0000 0.1293341288
H   H49       1.0  0.28769  0.05115  0.20284  1.0000 0.1408742605
H   H50       1.0  0.05115  0.20284  0.28769  1.0000 0.1408742605
H   H51       1.0  0.20284  0.28769  0.05115  1.0000 0.1408742605
H   H52       1.0  0.71231  0.94885  0.79716  1.0000 0.1408742605
H   H53       1.0  0.94885  0.79716  0.71231  1.0000 0.1408742605
H   H54       1.0  0.79716  0.71231  0.94885  1.0000 0.1408742605
H   H55       1.0  0.31816  0.10326  0.11571  1.0000 0.1408742605
H   H56       1.0  0.10326  0.11571  0.31816  1.0000 0.1408742605
H   H57       1.0  0.11571  0.31816  0.10326  1.0000 0.1408742605
H   H58       1.0  0.68184  0.89674  0.88429  1.0000 0.1408742605
H   H59       1.0  0.89674  0.88429  0.68184  1.0000 0.1408742605
H   H60       1.0  0.88429  0.68184  0.89674  1.0000 0.1408742605
H   H61       1.0  0.46430  0.18633  0.08611  1.0000 0.1293341288
H   H62       1.0  0.18633  0.08611  0.46430  1.0000 0.1293341288
H   H63       1.0  0.08611  0.46430  0.18633  1.0000 0.1293341288
H   H64       1.0  0.53570  0.81367  0.91389  1.0000 0.1293341288
H   H65       1.0  0.81367  0.91389  0.53570  1.0000 0.1293341288
H   H66       1.0  0.91389  0.53570  0.81367  1.0000 0.1293341288
H   H67       1.0  0.51849  0.17820  0.17191  1.0000 0.1293341288
H   H68       1.0  0.17820  0.17191  0.51849  1.0000 0.1293341288
H   H69       1.0  0.17191  0.51849  0.17820  1.0000 0.1293341288
H   H70       1.0  0.48151  0.82180  0.82809  1.0000 0.1293341288
H   H71       1.0  0.82180  0.82809  0.48151  1.0000 0.1293341288
H   H72       1.0  0.82809  0.48151  0.82180  1.0000 0.1293341288
H   H73       1.0  0.59378  0.01480  0.22828  1.0000 0.1293341288
H   H74       1.0  0.01480  0.22828  0.59378  1.0000 0.1293341288
H   H75       1.0  0.22828  0.59378  0.01480  1.0000 0.1293341288
H   H76       1.0  0.40622  0.98520  0.77172  1.0000 0.1293341288
H   H77       1.0  0.98520  0.77172  0.40622  1.0000 0.1293341288
H   H78       1.0  0.77172  0.40622  0.98520  1.0000 0.1293341288
H   H79       1.0  0.60790  0.93372  0.17140  1.0000 0.1293341288
H   H80       1.0  0.93372  0.17140  0.60790  1.0000 0.1293341288
H   H81       1.0  0.17140  0.60790  0.93372  1.0000 0.1293341288
H   H82       1.0  0.39210  0.06628  0.82860  1.0000 0.1293341288
H   H83       1.0  0.06628  0.82860  0.39210  1.0000 0.1293341288
H   H84       1.0  0.82860  0.39210  0.06628  1.0000 0.1293341288
H   H85       1.0  0.74886  0.02394  0.13719  1.0000 0.1408742605
H   H86       1.0  0.02394  0.13719  0.74886  1.0000 0.1408742605
H   H87       1.0  0.13719  0.74886  0.02394  1.0000 0.1408742605
H   H88       1.0  0.25114  0.97606  0.86281  1.0000 0.1408742605
H   H89       1.0  0.97606  0.86281  0.25114  1.0000 0.1408742605
H   H90       1.0  0.86281  0.25114  0.97606  1.0000 0.1408742605
H   H91       1.0  0.80911  0.13885  0.16639  1.0000 0.1408742605
H   H92       1.0  0.13885  0.16639  0.80911  1.0000 0.1408742605
H   H93       1.0  0.16639  0.80911  0.13885  1.0000 0.1408742605
H   H94       1.0  0.19089  0.86115  0.83361  1.0000 0.1408742605
H   H95       1.0  0.86115  0.83361  0.19089  1.0000 0.1408742605
H   H96       1.0  0.83361  0.19089  0.86115  1.0000 0.1408742605
H   H97       1.0  0.79115  0.28607  0.26026  1.0000 0.1232600584
H   H98       1.0  0.28607  0.26026  0.79115  1.0000 0.1232600584
H   H99       1.0  0.26026  0.79115  0.28607  1.0000 0.1232600584
H   H100      1.0  0.20885  0.71393  0.73974  1.0000 0.1232600584
H   H101      1.0  0.71393  0.73974  0.20885  1.0000 0.1232600584
H   H102      1.0  0.73974  0.20885  0.71393  1.0000 0.1232600584
H   H103      1.0  0.71111  0.23740  0.28681  1.0000 0.1408742605
H   H104      1.0  0.23740  0.28681  0.71111  1.0000 0.1408742605
H   H105      1.0  0.28681  0.71111  0.23740  1.0000 0.1408742605
H   H106      1.0  0.28889  0.76260  0.71319  1.0000 0.1408742605
H   H107      1.0  0.76260  0.71319  0.28889  1.0000 0.1408742605
H   H108      1.0  0.71319  0.28889  0.76260  1.0000 0.1408742605
C   C1        1.0  0.56746  0.12242  0.24926  1.0000 -0.270638951
C   C2        1.0  0.12242  0.24926  0.56746  1.0000 -0.270638951
C   C3        1.0  0.24926  0.56746  0.12242  1.0000 -0.270638951
C   C4        1.0  0.43254  0.87758  0.75074  1.0000 -0.270638951
C   C5        1.0  0.87758  0.75074  0.43254  1.0000 -0.270638951
C   C6        1.0  0.75074  0.43254  0.87758  1.0000 -0.270638951
C   C7        1.0  0.52838  0.13822  0.27836  1.0000 0.1408742605
C   C8        1.0  0.13822  0.27836  0.52838  1.0000 0.1408742605
C   C9        1.0  0.27836  0.52838  0.13822  1.0000 0.1408742605
C   C10       1.0  0.47162  0.86178  0.72164  1.0000 0.1408742605
C   C11       1.0  0.86178  0.72164  0.47162  1.0000 0.1408742605
C   C12       1.0  0.72164  0.47162  0.86178  1.0000 0.1408742605
C   C13       1.0  0.59896  0.18179  0.36302  1.0000 0.1408742605
C   C14       1.0  0.18179  0.36302  0.59896  1.0000 0.1408742605
C   C15       1.0  0.36302  0.59896  0.18179  1.0000 0.1408742605
C   C16       1.0  0.40104  0.81821  0.63698  1.0000 0.1408742605
C   C17       1.0  0.81821  0.63698  0.40104  1.0000 0.1408742605
C   C18       1.0  0.63698  0.40104  0.81821  1.0000 0.1408742605
C   C19       1.0  0.54278  0.16747  0.33395  1.0000 -0.2592709446
C   C20       1.0  0.16747  0.33395  0.54278  1.0000 -0.2592709446
C   C21       1.0  0.33395  0.54278  0.16747  1.0000 -0.2592709446
C   C22       1.0  0.45722  0.83253  0.66605  1.0000 -0.2592709446
C   C23       1.0  0.83253  0.66605  0.45722  1.0000 -0.2592709446
C   C24       1.0  0.66605  0.45722  0.83253  1.0000 -0.2592709446
C   C25       1.0  0.62337  0.13640  0.27810  1.0000 0.1467475778
C   C26       1.0  0.13640  0.27810  0.62337  1.0000 0.1467475778
C   C27       1.0  0.27810  0.62337  0.13640  1.0000 0.1408742605
C   C28       1.0  0.37663  0.86360  0.72190  1.0000 0.1467475778
C   C29       1.0  0.86360  0.72190  0.37663  1.0000 0.1467475778
C   C30       1.0  0.72190  0.37663  0.86360  1.0000 0.1467475778
C   C31       1.0  0.64077  0.16554  0.33386  1.0000 -0.270638951
C   C32       1.0  0.16554  0.33386  0.64077  1.0000 -0.270638951
C   C33       1.0  0.33386  0.64077  0.16554  1.0000 -0.270638951
C   C34       1.0  0.35923  0.83446  0.66614  1.0000 -0.270638951
C   C35       1.0  0.83446  0.66614  0.35923  1.0000 -0.270638951
C   C36       1.0  0.66614  0.35923  0.83446  1.0000 -0.270638951
C   C37       1.0  0.61620  0.21250  0.42490  1.0000 -0.4228712205
C   C38       1.0  0.21250  0.42490  0.61620  1.0000 -0.4228712205
C   C39       1.0  0.42490  0.61620  0.21250  1.0000 -0.4228712205
C   C40       1.0  0.38380  0.78750  0.57510  1.0000 -0.4228712205
C   C41       1.0  0.78750  0.57510  0.38380  1.0000 -0.4228712205
C   C42       1.0  0.57510  0.38380  0.78750  1.0000 -0.4228712205
C   C43       1.0  0.42288  0.09439  0.26578  1.0000 0.1232600584
C   C44       1.0  0.09439  0.26578  0.42288  1.0000 0.1232600584
C   C45       1.0  0.26578  0.42288  0.09439  1.0000 0.1232600584
C   C46       1.0  0.57712  0.90561  0.73422  1.0000 0.1293341288
C   C47       1.0  0.90561  0.73422  0.57712  1.0000 0.1293341288
C   C48       1.0  0.73422  0.57712  0.90561  1.0000 0.1293341288
C   C49       1.0  0.42377  0.07427  0.31504  1.0000 -0.1905094841
C   C50       1.0  0.07427  0.31504  0.42377  1.0000 -0.1905094841
C   C51       1.0  0.31504  0.42377  0.07427  1.0000 -0.1905094841
C   C52       1.0  0.57623  0.92573  0.68496  1.0000 -0.1905094841
C   C53       1.0  0.92573  0.68496  0.57623  1.0000 -0.1905094841
C   C54       1.0  0.68496  0.57623  0.92573  1.0000 -0.1905094841
C   C55       1.0  0.37160  0.04494  0.32085  1.0000 -0.0681915453
C   C56       1.0  0.04494  0.32085  0.37160  1.0000 -0.0681915453
C   C57       1.0  0.32085  0.37160  0.04494  1.0000 -0.0681915453
C   C58       1.0  0.62840  0.95506  0.67915  1.0000 -0.0681915453
C   C59       1.0  0.95506  0.67915  0.62840  1.0000 -0.0681915453
C   C60       1.0  0.67915  0.62840  0.95506  1.0000 -0.0681915453
C   C61       1.0  0.32068  0.03596  0.28064  1.0000 -0.0397721699
C   C62       1.0  0.03596  0.28064  0.32068  1.0000 -0.0397721699
C   C63       1.0  0.28064  0.32068  0.03596  1.0000 -0.0397721699
C   C64       1.0  0.67932  0.96404  0.71936  1.0000 -0.0397721699
C   C65       1.0  0.96404  0.71936  0.67932  1.0000 -0.0397721699
C   C66       1.0  0.71936  0.67932  0.96404  1.0000 -0.0397721699
C   C67       1.0  0.32174  0.05691  0.23127  1.0000 -0.1169475053
C   C68       1.0  0.05691  0.23127  0.32174  1.0000 -0.1169475053
C   C69       1.0  0.23127  0.32174  0.05691  1.0000 -0.1169475053
C   C70       1.0  0.67826  0.94309  0.76873  1.0000 -0.1169475053
C   C71       1.0  0.94309  0.76873  0.67826  1.0000 -0.1169475053
C   C72       1.0  0.76873  0.67826  0.94309  1.0000 -0.1169475053
C   C73       1.0  0.37349  0.08627  0.22450  1.0000 -0.0180913584
C   C74       1.0  0.08627  0.22450  0.37349  1.0000 -0.0180913584
C   C75       1.0  0.22450  0.37349  0.08627  1.0000 -0.0180913584
C   C76       1.0  0.62651  0.91373  0.77550  1.0000 -0.0180913584
C   C77       1.0  0.91373  0.77550  0.62651  1.0000 -0.0180913584
C   C78       1.0  0.77550  0.62651  0.91373  1.0000 -0.0180913584
C   C79       1.0  0.38916  0.11259  0.17846  1.0000 -0.0180913584
C   C80       1.0  0.11259  0.17846  0.38916  1.0000 -0.0180913584
C   C81       1.0  0.17846  0.38916  0.11259  1.0000 -0.0180913584
C   C82       1.0  0.61084  0.88741  0.82154  1.0000 -0.0180913584
C   C83       1.0  0.88741  0.82154  0.61084  1.0000 -0.0180913584
C   C84       1.0  0.82154  0.61084  0.88741  1.0000 -0.0180913584
C   C85       1.0  0.35830  0.11819  0.12698  1.0000 -0.1085393087
C   C86       1.0  0.11819  0.12698  0.35830  1.0000 -0.1085393087
C   C87       1.0  0.12698  0.35830  0.11819  1.0000 -0.1085393087
C   C88       1.0  0.64170  0.88181  0.87302  1.0000 -0.1085393087
C   C89       1.0  0.88181  0.87302  0.64170  1.0000 -0.1085393087
C   C90       1.0  0.87302  0.64170  0.88181  1.0000 -0.1085393087
C   C91       1.0  0.38675  0.14584  0.09215  1.0000 -0.0506366711
C   C92       1.0  0.14584  0.09215  0.38675  1.0000 -0.0506366711
C   C93       1.0  0.09215  0.38675  0.14584  1.0000 -0.0506366711
C   C94       1.0  0.61325  0.85416  0.90785  1.0000 -0.0506366711
C   C95       1.0  0.85416  0.90785  0.61325  1.0000 -0.0506366711
C   C96       1.0  0.90785  0.61325  0.85416  1.0000 -0.0506366711
C   C97       1.0  0.44546  0.16727  0.11038  1.0000 -0.0638471208
C   C98       1.0  0.16727  0.11038  0.44546  1.0000 -0.0638471208
C   C99       1.0  0.11038  0.44546  0.16727  1.0000 -0.0638471208
C   C100      1.0  0.55454  0.83273  0.88962  1.0000 -0.0638471208
C   C101      1.0  0.83273  0.88962  0.55454  1.0000 -0.0638471208
C   C102      1.0  0.88962  0.55454  0.83273  1.0000 -0.0638471208
C   C103      1.0  0.47838  0.16300  0.16090  1.0000 -0.2058377945
C   C104      1.0  0.16300  0.16090  0.47838  1.0000 -0.2058377945
C   C105      1.0  0.16090  0.47838  0.16300  1.0000 -0.2058377945
C   C106      1.0  0.52162  0.83700  0.83910  1.0000 -0.2058377945
C   C107      1.0  0.83700  0.83910  0.52162  1.0000 -0.2058377945
C   C108      1.0  0.83910  0.52162  0.83700  1.0000 -0.2058377945
C   C109      1.0  0.44797  0.13428  0.19516  1.0000 0.1293341288
C   C110      1.0  0.13428  0.19516  0.44797  1.0000 0.1293341288
C   C111      1.0  0.19516  0.44797  0.13428  1.0000 0.1293341288
C   C112      1.0  0.55203  0.86572  0.80484  1.0000 0.1293341288
C   C113      1.0  0.86572  0.80484  0.55203  1.0000 0.1293341288
C   C114      1.0  0.80484  0.55203  0.86572  1.0000 0.1293341288
C   C115      1.0  0.26643  0.00455  0.28944  1.0000 0.5787776253
C   C116      1.0  0.00455  0.28944  0.26643  1.0000 0.5787776253
C   C117      1.0  0.28944  0.26643  0.00455  1.0000 0.5787776253
C   C118      1.0  0.73357  0.99545  0.71056  1.0000 0.5787776253
C   C119      1.0  0.99545  0.71056  0.73357  1.0000 0.5787776253
C   C120      1.0  0.71056  0.73357  0.99545  1.0000 0.5787776253
C   C121      1.0  0.35584  0.15489  0.03868  1.0000 0.5787776253
C   C122      1.0  0.15489  0.03868  0.35584  1.0000 0.5787776253
C   C123      1.0  0.03868  0.35584  0.15489  1.0000 0.5787776253
C   C124      1.0  0.64416  0.84511  0.96132  1.0000 0.5787776253
C   C125      1.0  0.84511  0.96132  0.64416  1.0000 0.5787776253
C   C126      1.0  0.96132  0.64416  0.84511  1.0000 0.5787776253
C   C127      1.0  0.66389  0.06690  0.21597  1.0000 0.1408742605
C   C128      1.0  0.06690  0.21597  0.66389  1.0000 0.1408742605
C   C129      1.0  0.21597  0.66389  0.06690  1.0000 0.1408742605
C   C130      1.0  0.33611  0.93310  0.78403  1.0000 0.1408742605
C   C131      1.0  0.93310  0.78403  0.33611  1.0000 0.1408742605
C   C132      1.0  0.78403  0.33611  0.93310  1.0000 0.1408742605
C   C133      1.0  0.62500  0.01660  0.21000  1.0000 -0.1991534664
C   C134      1.0  0.01660  0.21000  0.62500  1.0000 -0.1991534664
C   C135      1.0  0.21000  0.62500  0.01660  1.0000 -0.1991534664
C   C136      1.0  0.37500  0.98340  0.79000  1.0000 -0.1991534664
C   C137      1.0  0.98340  0.79000  0.37500  1.0000 -0.1991534664
C   C138      1.0  0.79000  0.37500  0.98340  1.0000 -0.1991534664
C   C139      1.0  0.63383  0.96930  0.17617  1.0000 -0.0681915453
C   C140      1.0  0.96930  0.17617  0.63383  1.0000 -0.0681915453
C   C141      1.0  0.17617  0.63383  0.96930  1.0000 -0.0681915453
C   C142      1.0  0.36617  0.03070  0.82383  1.0000 -0.0681915453
C   C143      1.0  0.03070  0.82383  0.36617  1.0000 -0.0681915453
C   C144      1.0  0.82383  0.36617  0.03070  1.0000 -0.0681915453
C   C145      1.0  0.67907  0.97029  0.14818  1.0000 -0.0506366711
C   C146      1.0  0.97029  0.14818  0.67907  1.0000 -0.0506366711
C   C147      1.0  0.14818  0.67907  0.97029  1.0000 -0.0506366711
C   C148      1.0  0.32093  0.02971  0.85182  1.0000 -0.0506366711
C   C149      1.0  0.02971  0.85182  0.32093  1.0000 -0.0506366711
C   C150      1.0  0.85182  0.32093  0.02971  1.0000 -0.0506366711
C   C151      1.0  0.71774  0.02211  0.15561  1.0000 -0.1085393087
C   C152      1.0  0.02211  0.15561  0.71774  1.0000 -0.1085393087
C   C153      1.0  0.15561  0.71774  0.02211  1.0000 -0.1043835812
C   C154      1.0  0.28226  0.97789  0.84439  1.0000 -0.1085393087
C   C155      1.0  0.97789  0.84439  0.28226  1.0000 -0.1085393087
C   C156      1.0  0.84439  0.28226  0.97789  1.0000 -0.1085393087
C   C157      1.0  0.71075  0.07007  0.18934  1.0000 -0.0180913584
C   C158      1.0  0.07007  0.18934  0.71075  1.0000 -0.0180913584
C   C159      1.0  0.18934  0.71075  0.07007  1.0000 -0.0180913584
C   C160      1.0  0.28925  0.92993  0.81066  1.0000 -0.0180913584
C   C161      1.0  0.92993  0.81066  0.28925  1.0000 -0.0180913584
C   C162      1.0  0.81066  0.28925  0.92993  1.0000 -0.0180913584
C   C163      1.0  0.74179  0.12913  0.20514  1.0000 -0.0143065988
C   C164      1.0  0.12913  0.20514  0.74179  1.0000 -0.0143065988
C   C165      1.0  0.20514  0.74179  0.12913  1.0000 -0.0143065988
C   C166      1.0  0.25821  0.87087  0.79486  1.0000 -0.0143065988
C   C167      1.0  0.87087  0.79486  0.25821  1.0000 -0.0143065988
C   C168      1.0  0.79486  0.25821  0.87087  1.0000 -0.0143065988
C   C169      1.0  0.78935  0.15871  0.19055  1.0000 -0.1085393087
C   C170      1.0  0.15871  0.19055  0.78935  1.0000 -0.1085393087
C   C171      1.0  0.19055  0.78935  0.15871  1.0000 -0.1085393087
C   C172      1.0  0.21065  0.84129  0.80945  1.0000 -0.1085393087
C   C173      1.0  0.84129  0.80945  0.21065  1.0000 -0.1085393087
C   C174      1.0  0.80945  0.21065  0.84129  1.0000 -0.1085393087
C   C175      1.0  0.80776  0.21747  0.21151  1.0000 -0.0506366711
C   C176      1.0  0.21747  0.21151  0.80776  1.0000 -0.0506366711
C   C177      1.0  0.21151  0.80776  0.21747  1.0000 -0.0506366711
C   C178      1.0  0.19224  0.78253  0.78849  1.0000 -0.0506366711
C   C179      1.0  0.78253  0.78849  0.19224  1.0000 -0.0506366711
C   C180      1.0  0.78849  0.19224  0.78253  1.0000 -0.0506366711
C   C181      1.0  0.77844  0.24583  0.24652  1.0000 -0.0638471208
C   C182      1.0  0.24583  0.24652  0.77844  1.0000 -0.0638471208
C   C183      1.0  0.24652  0.77844  0.24583  1.0000 -0.0638471208
C   C184      1.0  0.22156  0.75417  0.75348  1.0000 -0.0638471208
C   C185      1.0  0.75417  0.75348  0.22156  1.0000 -0.0638471208
C   C186      1.0  0.75348  0.22156  0.75417  1.0000 -0.0638471208
C   C187      1.0  0.73062  0.21742  0.26242  1.0000 -0.1905094841
C   C188      1.0  0.21742  0.26242  0.73062  1.0000 -0.1905094841
C   C189      1.0  0.26242  0.73062  0.21742  1.0000 -0.1905094841
C   C190      1.0  0.26938  0.78258  0.73758  1.0000 -0.1905094841
C   C191      1.0  0.78258  0.73758  0.26938  1.0000 -0.1905094841
C   C192      1.0  0.73758  0.26938  0.78258  1.0000 -0.1905094841
C   C193      1.0  0.71335  0.15989  0.24146  1.0000 0.1293341288
C   C194      1.0  0.15989  0.24146  0.71335  1.0000 0.1293341288
C   C195      1.0  0.24146  0.71335  0.15989  1.0000 0.1293341288
C   C196      1.0  0.28665  0.84011  0.75854  1.0000 0.1293341288
C   C197      1.0  0.84011  0.75854  0.28665  1.0000 0.1293341288
C   C198      1.0  0.75854  0.28665  0.84011  1.0000 0.1293341288
C   C199      1.0  0.68504  0.91776  0.11260  1.0000 0.5787776253
C   C200      1.0  0.91776  0.11260  0.68504  1.0000 0.5787776253
C   C201      1.0  0.11260  0.68504  0.91776  1.0000 0.5787776253
C   C202      1.0  0.31496  0.08224  0.88740  1.0000 0.5787776253
C   C203      1.0  0.08224  0.88740  0.31496  1.0000 0.5787776253
C   C204      1.0  0.88740  0.31496  0.08224  1.0000 0.5787776253
C   C205      1.0  0.85844  0.24898  0.19733  1.0000 0.5787776253
C   C206      1.0  0.24898  0.19733  0.85844  1.0000 0.5787776253
C   C207      1.0  0.19733  0.85844  0.24898  1.0000 0.5787776253
C   C208      1.0  0.14156  0.75102  0.80267  1.0000 0.5787776253
C   C209      1.0  0.75102  0.80267  0.14156  1.0000 0.5787776253
C   C210      1.0  0.80267  0.14156  0.75102  1.0000 0.5787776253
N   N1        1.0  0.46866  0.12338  0.24810  1.0000 -0.0879314426
N   N2        1.0  0.12338  0.24810  0.46866  1.0000 -0.0879314426
N   N3        1.0  0.24810  0.46866  0.12338  1.0000 -0.0879314426
N   N4        1.0  0.53134  0.87662  0.75190  1.0000 -0.0879314426
N   N5        1.0  0.87662  0.75190  0.53134  1.0000 -0.0879314426
N   N6        1.0  0.75190  0.53134  0.87662  1.0000 -0.0879314426
N   N7        1.0  0.66667  0.12059  0.24833  1.0000 -0.0879314426
N   N8        1.0  0.12059  0.24833  0.66667  1.0000 -0.0879314426
N   N9        1.0  0.24833  0.66667  0.12059  1.0000 -0.0879314426
N   N10       1.0  0.33333  0.87941  0.75167  1.0000 -0.0879314426
N   N11       1.0  0.87941  0.75167  0.33333  1.0000 -0.0879314426
N   N12       1.0  0.75167  0.33333  0.87941  1.0000 -0.0879314426
O   O1        1.0  0.26845  0.98698  0.33553  1.0000 -0.5290740931
O   O2        1.0  0.98698  0.33553  0.26845  1.0000 -0.5225799255
O   O3        1.0  0.33553  0.26845  0.98698  1.0000 -0.5225799255
O   O4        1.0  0.73155  0.01302  0.66447  1.0000 -0.5225799255
O   O5        1.0  0.01302  0.66447  0.73155  1.0000 -0.5290740931
O   O6        1.0  0.66447  0.73155  0.01302  1.0000 -0.5225799255
O   O7        1.0  0.22165  0.99696  0.25031  1.0000 -0.5290740931
O   O8        1.0  0.99696  0.25031  0.22165  1.0000 -0.5225799255
O   O9        1.0  0.25031  0.22165  0.99696  1.0000 -0.5225799255
O   O10       1.0  0.77835  0.00304  0.74969  1.0000 -0.5225799255
O   O11       1.0  0.00304  0.74969  0.77835  1.0000 -0.5225799255
O   O12       1.0  0.74969  0.77835  0.00304  1.0000 -0.5225799255
O   O13       1.0  0.30187  0.13629  0.02473  1.0000 -0.5225799255
O   O14       1.0  0.13629  0.02473  0.30187  1.0000 -0.5225799255
O   O15       1.0  0.02473  0.30187  0.13629  1.0000 -0.5225799255
O   O16       1.0  0.69813  0.86371  0.97527  1.0000 -0.5225799255
O   O17       1.0  0.86371  0.97527  0.69813  1.0000 -0.5225799255
O   O18       1.0  0.97527  0.69813  0.86371  1.0000 -0.5225799255
O   O19       1.0  0.38444  0.18072  0.00879  1.0000 -0.5225799255
O   O20       1.0  0.18072  0.00879  0.38444  1.0000 -0.5225799255
O   O21       1.0  0.00879  0.38444  0.18072  1.0000 -0.5225799255
O   O22       1.0  0.61556  0.81928  0.99121  1.0000 -0.5225799255
O   O23       1.0  0.81928  0.99121  0.61556  1.0000 -0.5225799255
O   O24       1.0  0.99121  0.61556  0.81928  1.0000 -0.5225799255
O   O25       1.0  0.72844  0.92087  0.08886  1.0000 -0.5290740931
O   O26       1.0  0.92087  0.08886  0.72844  1.0000 -0.5290740931
O   O27       1.0  0.08886  0.72844  0.92087  1.0000 -0.5290740931
O   O28       1.0  0.27156  0.07913  0.91114  1.0000 -0.5290740931
O   O29       1.0  0.07913  0.91114  0.27156  1.0000 -0.5290740931
O   O30       1.0  0.91114  0.27156  0.07913  1.0000 -0.5290740931
O   O31       1.0  0.64819  0.87163  0.10657  1.0000 -0.5290740931
O   O32       1.0  0.87163  0.10657  0.64819  1.0000 -0.5290740931
O   O33       1.0  0.10657  0.64819  0.87163  1.0000 -0.5290740931
O   O34       1.0  0.35181  0.12837  0.89343  1.0000 -0.5290740931
O   O35       1.0  0.12837  0.89343  0.35181  1.0000 -0.5290740931
O   O36       1.0  0.89343  0.35181  0.12837  1.0000 -0.5290740931
O   O37       1.0  0.87304  0.30208  0.21777  1.0000 -0.5144977652
O   O38       1.0  0.30208  0.21777  0.87304  1.0000 -0.5144977652
O   O39       1.0  0.21777  0.87304  0.30208  1.0000 -0.5144977652
O   O40       1.0  0.12696  0.69792  0.78223  1.0000 -0.5144977652
O   O41       1.0  0.69792  0.78223  0.12696  1.0000 -0.5144977652
O   O42       1.0  0.78223  0.12696  0.69792  1.0000 -0.5144977652
O   O43       1.0  0.88415  0.22049  0.16540  1.0000 -0.5225799255
O   O44       1.0  0.22049  0.16540  0.88415  1.0000 -0.5225799255
O   O45       1.0  0.16540  0.88415  0.22049  1.0000 -0.5225799255
O   O46       1.0  0.11585  0.77951  0.83460  1.0000 -0.5225799255
O   O47       1.0  0.77951  0.83460  0.11585  1.0000 -0.5225799255
O   O48       1.0  0.83460  0.11585  0.77951  1.0000 -0.5225799255
