# DDEC6 charges by PACMAN v1.1 (https://github.com/mtap-research/PACMAN-charge/)
data_2023[Pr][nan]3[ASR]1
_chemical_formula_sum              "Pr4 H12 C36 O24"
_cell_length_a       10.3941
_cell_length_b       10.3941
_cell_length_c       14.1312
_cell_angle_alpha    90
_cell_angle_beta     90
_cell_angle_gamma    90

_symmetry_space_group_name_H-M    "P 1"
_symmetry_Int_Tables_number       1

loop_
  _symmetry_equiv_pos_as_xyz
  'x, y, z'

loop_
  _atom_site_type_symbol
  _atom_site_label
  _atom_site_symmetry_multiplicity
  _atom_site_fract_x
  _atom_site_fract_y
  _atom_site_fract_z
  _atom_site_occupancy
  _atom_site_charge
Pr  Pr1       1.0  0.87639  0.86818  0.36408  1.0000 2.1300992729
Pr  Pr2       1.0  0.12361  0.13182  0.86408  1.0000 2.1300992729
Pr  Pr3       1.0  0.13182  0.87639  0.11408  1.0000 2.1300992729
Pr  Pr4       1.0  0.86818  0.12361  0.61408  1.0000 2.1300992729
H   H1        1.0  0.12408  0.00776  0.48984  1.0000 0.1113348739
H   H2        1.0  0.87592  0.99224  0.98984  1.0000 0.1113348739
H   H3        1.0  0.99224  0.12408  0.23984  1.0000 0.1113348739
H   H4        1.0  0.00776  0.87592  0.73984  1.0000 0.1113348739
H   H5        1.0  0.45083  0.01643  0.64115  1.0000 0.1407587161
H   H6        1.0  0.54917  0.98357  0.14115  1.0000 0.1407587161
H   H7        1.0  0.98357  0.45083  0.39115  1.0000 0.1407587161
H   H8        1.0  0.01643  0.54917  0.89115  1.0000 0.1407587161
H   H9        1.0  0.45821  0.91341  0.36722  1.0000 0.1407587161
H   H10       1.0  0.54179  0.08659  0.86722  1.0000 0.1407587161
H   H11       1.0  0.08659  0.45821  0.11722  1.0000 0.1407587161
H   H12       1.0  0.91341  0.54179  0.61722  1.0000 0.1407587161
C   C1        1.0  0.21250  0.99510  0.49390  1.0000 -0.1161715867
C   C2        1.0  0.78750  0.00490  0.99390  1.0000 -0.1161715867
C   C3        1.0  0.00490  0.21250  0.24390  1.0000 -0.1161715867
C   C4        1.0  0.99510  0.78750  0.74390  1.0000 -0.1161715867
C   C5        1.0  0.27580  0.01740  0.57960  1.0000 -0.0244753839
C   C6        1.0  0.72420  0.98260  0.07960  1.0000 -0.0244753839
C   C7        1.0  0.98260  0.27580  0.32960  1.0000 -0.0244753839
C   C8        1.0  0.01740  0.72420  0.82960  1.0000 -0.0244753839
C   C9        1.0  0.40790  0.00270  0.58430  1.0000 -0.0908501422
C   C10       1.0  0.59210  0.99730  0.08430  1.0000 -0.0908501422
C   C11       1.0  0.99730  0.40790  0.33430  1.0000 -0.0908501422
C   C12       1.0  0.00270  0.59210  0.83430  1.0000 -0.0908501422
C   C13       1.0  0.21170  0.92620  0.32510  1.0000 0.6252614619
C   C14       1.0  0.78830  0.07380  0.82510  1.0000 0.6252614619
C   C15       1.0  0.07380  0.21170  0.07510  1.0000 0.6252614619
C   C16       1.0  0.92620  0.78830  0.57510  1.0000 0.6247502329
C   C17       1.0  0.20540  0.04900  0.66940  1.0000 0.6120100679
C   C18       1.0  0.79460  0.95100  0.16940  1.0000 0.6120100679
C   C19       1.0  0.95100  0.20540  0.41940  1.0000 0.6120100679
C   C20       1.0  0.04900  0.79460  0.91940  1.0000 0.6120100679
C   C21       1.0  0.62160  0.95780  0.50680  1.0000 0.655555165
C   C22       1.0  0.37840  0.04220  0.00680  1.0000 0.655555165
C   C23       1.0  0.04220  0.62160  0.25680  1.0000 0.655555165
C   C24       1.0  0.95780  0.37840  0.75680  1.0000 0.655555165
C   C25       1.0  0.41260  0.94060  0.42020  1.0000 -0.0908501422
C   C26       1.0  0.58740  0.05940  0.92020  1.0000 -0.0908501422
C   C27       1.0  0.05940  0.41260  0.17020  1.0000 -0.0908501422
C   C28       1.0  0.94060  0.58740  0.67020  1.0000 -0.0908501422
C   C29       1.0  0.47650  0.96730  0.50390  1.0000 -0.0360557662
C   C30       1.0  0.52350  0.03270  0.00390  1.0000 -0.0360557662
C   C31       1.0  0.03270  0.47650  0.25390  1.0000 -0.0360557662
C   C32       1.0  0.96730  0.52350  0.75390  1.0000 -0.0360557662
C   C33       1.0  0.27920  0.95480  0.41580  1.0000 -0.0360557662
C   C34       1.0  0.72080  0.04520  0.91580  1.0000 -0.0360557662
C   C35       1.0  0.04520  0.27920  0.16580  1.0000 -0.0360557662
C   C36       1.0  0.95480  0.72080  0.66580  1.0000 -0.0360557662
O   O1        1.0  0.09550  0.10360  0.66640  1.0000 -0.7417127726
O   O2        1.0  0.90450  0.89640  0.16640  1.0000 -0.7417127726
O   O3        1.0  0.89640  0.09550  0.41640  1.0000 -0.7417127726
O   O4        1.0  0.10360  0.90450  0.91640  1.0000 -0.7417127726
O   O5        1.0  0.27610  0.89270  0.25412  1.0000 -0.606684172
O   O6        1.0  0.72390  0.10730  0.75412  1.0000 -0.606684172
O   O7        1.0  0.10730  0.27610  0.00412  1.0000 -0.606684172
O   O8        1.0  0.89270  0.72390  0.50412  1.0000 -0.606684172
O   O9        1.0  0.67700  0.00490  0.57750  1.0000 -0.6732099144
O   O10       1.0  0.32300  0.99510  0.07750  1.0000 -0.6732099144
O   O11       1.0  0.99510  0.67700  0.32750  1.0000 -0.6732099144
O   O12       1.0  0.00490  0.32300  0.82750  1.0000 -0.6732099144
O   O13       1.0  0.09060  0.93880  0.32090  1.0000 -0.7417127726
O   O14       1.0  0.90940  0.06120  0.82090  1.0000 -0.7417127726
O   O15       1.0  0.06120  0.09060  0.07090  1.0000 -0.7417127726
O   O16       1.0  0.93880  0.90940  0.57090  1.0000 -0.7417127726
O   O17       1.0  0.67570  0.90400  0.43921  1.0000 -0.6611161022
O   O18       1.0  0.32430  0.09600  0.93921  1.0000 -0.6611161022
O   O19       1.0  0.09600  0.67570  0.18921  1.0000 -0.6611161022
O   O20       1.0  0.90400  0.32430  0.68921  1.0000 -0.6611161022
O   O21       1.0  0.25770  0.02240  0.74564  1.0000 -0.5967559455
O   O22       1.0  0.74230  0.97760  0.24564  1.0000 -0.5967559455
O   O23       1.0  0.97760  0.25770  0.49564  1.0000 -0.5967559455
O   O24       1.0  0.02240  0.74230  0.99564  1.0000 -0.5967559455
