# DDEC6 charges by PACMAN v1.1 (https://github.com/mtap-research/PACMAN-charge/)
data_2023[Dy][hcb]2[ASR]2
_chemical_formula_sum              "Dy2 H12 C22 Br6 O16"
_cell_length_a       10.7805
_cell_length_b       10.786
_cell_length_c       12.4475
_cell_angle_alpha    96.366
_cell_angle_beta     102.191
_cell_angle_gamma    113.955

_symmetry_space_group_name_H-M    "P 1"
_symmetry_Int_Tables_number       1

loop_
  _symmetry_equiv_pos_as_xyz
  'x, y, z'

loop_
  _atom_site_type_symbol
  _atom_site_label
  _atom_site_symmetry_multiplicity
  _atom_site_fract_x
  _atom_site_fract_y
  _atom_site_fract_z
  _atom_site_occupancy
  _atom_site_charge
Dy  Dy1       1.0  0.52540  0.73622  0.73523  1.0000 1.9435018743
Dy  Dy2       1.0  0.47460  0.26378  0.26477  1.0000 1.9435018743
H   H1        1.0  0.56700  0.62200  0.52260  1.0000 0.3635205472
H   H2        1.0  0.43300  0.37800  0.47740  1.0000 0.3635205472
H   H3        1.0  0.84760  0.86100  0.82600  1.0000 0.3728999639
H   H4        1.0  0.15240  0.13900  0.17400  1.0000 0.3728999639
H   H5        1.0  0.91201  0.72779  0.73128  1.0000 0.1103048319
H   H6        1.0  0.08799  0.27221  0.26872  1.0000 0.1103048319
H   H7        1.0  0.85625  0.80993  0.65269  1.0000 0.1186883966
H   H8        1.0  0.14375  0.19007  0.34731  1.0000 0.1186883966
H   H9        1.0  0.73703  0.57955  0.55863  1.0000 0.1103048319
H   H10       1.0  0.26297  0.42045  0.44137  1.0000 0.1103048319
H   H11       1.0  0.69781  0.53213  0.66694  1.0000 0.1186883966
H   H12       1.0  0.30219  0.46787  0.33306  1.0000 0.1186883966
C   C1        1.0  0.44780  0.93630  0.88170  1.0000 0.2811677202
C   C2        1.0  0.55220  0.06370  0.11830  1.0000 0.2811677202
C   C3        1.0  0.41080  0.04860  0.04440  1.0000 0.2718916306
C   C4        1.0  0.58920  0.95140  0.95560  1.0000 0.2718916306
C   C5        1.0  0.36330  0.89240  0.43680  1.0000 -0.1940860381
C   C6        1.0  0.63670  0.10760  0.56320  1.0000 -0.1940860381
C   C7        1.0  0.52570  0.51450  0.89250  1.0000 0.2622144962
C   C8        1.0  0.47430  0.48550  0.10750  1.0000 0.2622144962
C   C9        1.0  0.43960  0.86630  0.52810  1.0000 0.2811677202
C   C10       1.0  0.56040  0.13370  0.47190  1.0000 0.2811677202
C   C11       1.0  0.54410  0.40800  0.05280  1.0000 0.2811677202
C   C12       1.0  0.45590  0.59200  0.94720  1.0000 0.2811677202
C   C13       1.0  0.41250  0.01910  0.40440  1.0000 0.2718916306
C   C14       1.0  0.58750  0.98090  0.59560  1.0000 0.2718916306
C   C15       1.0  0.56610  0.42690  0.94740  1.0000 -0.1717565214
C   C16       1.0  0.43390  0.57310  0.05260  1.0000 -0.1717565214
C   C17       1.0  0.82960  0.74070  0.69770  1.0000 -0.0228863187
C   C18       1.0  0.17040  0.25930  0.30230  1.0000 -0.0228863187
C   C19       1.0  0.36920  0.98730  0.93190  1.0000 -0.1615992343
C   C20       1.0  0.63080  0.01270  0.06810  1.0000 -0.1615992343
C   C21       1.0  0.71240  0.60540  0.62540  1.0000 -0.0228863187
C   C22       1.0  0.28760  0.39460  0.37460  1.0000 -0.0228863187
Br  Br1       1.0  0.19942  0.97638  0.83847  1.0000 -0.0415982479
Br  Br2       1.0  0.80058  0.02362  0.16153  1.0000 -0.0415982479
Br  Br3       1.0  0.65314  0.33239  0.87878  1.0000 -0.0415982479
Br  Br4       1.0  0.34686  0.66761  0.12122  1.0000 -0.0415982479
Br  Br5       1.0  0.18230  0.75115  0.35242  1.0000 -0.0132779867
Br  Br6       1.0  0.81770  0.24885  0.64758  1.0000 -0.0132779867
O   O1        1.0  0.57910  0.33200  0.10800  1.0000 -0.4698353564
O   O2        1.0  0.42090  0.66800  0.89200  1.0000 -0.4698353564
O   O3        1.0  0.34800  0.05190  0.32510  1.0000 -0.5009077048
O   O4        1.0  0.65200  0.94810  0.67490  1.0000 -0.5009077048
O   O5        1.0  0.41640  0.87720  0.78020  1.0000 -0.5083020484
O   O6        1.0  0.58360  0.12280  0.21980  1.0000 -0.5083020484
O   O7        1.0  0.34470  0.09750  0.09380  1.0000 -0.5229430055
O   O8        1.0  0.65530  0.90250  0.90620  1.0000 -0.5229430055
O   O9        1.0  0.58500  0.62350  0.59360  1.0000 -0.548866049
O   O10       1.0  0.41500  0.37650  0.40640  1.0000 -0.548866049
O   O11       1.0  0.40020  0.75480  0.56060  1.0000 -0.5398937321
O   O12       1.0  0.59980  0.24520  0.43940  1.0000 -0.5398937321
O   O13       1.0  0.77710  0.78560  0.78450  1.0000 -0.4870792186
O   O14       1.0  0.22290  0.21440  0.21550  1.0000 -0.4870792186
O   O15       1.0  0.54100  0.54120  0.79770  1.0000 -0.5398937321
O   O16       1.0  0.45900  0.45880  0.20230  1.0000 -0.5398937321
