# DDEC6 charges by PACMAN v1.1 (https://github.com/mtap-research/PACMAN-charge/)
data_2023[Al][nan]3[ASR]2
_chemical_formula_sum              "Al6 H48 C66 O30"
_cell_length_a       21.9343
_cell_length_b       21.9343
_cell_length_c       6.6246
_cell_angle_alpha    90
_cell_angle_beta     90
_cell_angle_gamma    120

_symmetry_space_group_name_H-M    "P 1"
_symmetry_Int_Tables_number       1

loop_
  _symmetry_equiv_pos_as_xyz
  'x, y, z'

loop_
  _atom_site_type_symbol
  _atom_site_label
  _atom_site_symmetry_multiplicity
  _atom_site_fract_x
  _atom_site_fract_y
  _atom_site_fract_z
  _atom_site_occupancy
  _atom_site_charge
Al  Al1       1.0  0.17181  0.17183  0.50620  1.0000 1.6062711961
Al  Al2       1.0  0.82817  0.99998  0.50620  1.0000 1.6062711961
Al  Al3       1.0  0.00002  0.82819  0.50620  1.0000 1.6062711961
Al  Al4       1.0  0.17183  0.17181  0.00620  1.0000 1.6062711961
Al  Al5       1.0  0.82819  0.00002  0.00620  1.0000 1.6062711961
Al  Al6       1.0  0.99998  0.82817  0.00620  1.0000 1.6062711961
H   H1        1.0  0.23892  0.38488  0.56009  1.0000 0.1224646176
H   H2        1.0  0.61512  0.85404  0.56009  1.0000 0.1224646176
H   H3        1.0  0.14596  0.76108  0.56009  1.0000 0.1224646176
H   H4        1.0  0.38488  0.23892  0.06009  1.0000 0.1224646176
H   H5        1.0  0.76108  0.14596  0.06009  1.0000 0.1224646176
H   H6        1.0  0.85404  0.61512  0.06009  1.0000 0.1224646176
H   H7        1.0  0.27811  0.50448  0.55761  1.0000 0.1224646176
H   H8        1.0  0.49552  0.77363  0.55761  1.0000 0.1224646176
H   H9        1.0  0.22637  0.72189  0.55761  1.0000 0.1224646176
H   H10       1.0  0.50448  0.27811  0.05761  1.0000 0.1224646176
H   H11       1.0  0.72189  0.22637  0.05761  1.0000 0.1224646176
H   H12       1.0  0.77363  0.49552  0.05761  1.0000 0.1224646176
H   H13       1.0  0.27937  0.50534  0.95529  1.0000 0.1224646176
H   H14       1.0  0.49466  0.77403  0.95529  1.0000 0.1224646176
H   H15       1.0  0.22597  0.72063  0.95529  1.0000 0.1224646176
H   H16       1.0  0.50534  0.27937  0.45529  1.0000 0.1224646176
H   H17       1.0  0.72063  0.22597  0.45529  1.0000 0.1224646176
H   H18       1.0  0.77403  0.49466  0.45529  1.0000 0.1224646176
H   H19       1.0  0.23741  0.38401  0.95434  1.0000 0.1224646176
H   H20       1.0  0.61599  0.85340  0.95434  1.0000 0.1224646176
H   H21       1.0  0.14660  0.76259  0.95434  1.0000 0.1224646176
H   H22       1.0  0.38401  0.23741  0.45434  1.0000 0.1224646176
H   H23       1.0  0.76259  0.14660  0.45434  1.0000 0.1224646176
H   H24       1.0  0.85340  0.61599  0.45434  1.0000 0.1224646176
H   H25       1.0  0.44030  0.60407  0.11812  1.0000 0.1277970269
H   H26       1.0  0.39593  0.83623  0.11812  1.0000 0.1277970269
H   H27       1.0  0.16377  0.55970  0.11812  1.0000 0.1277970269
H   H28       1.0  0.60407  0.44030  0.61812  1.0000 0.1277970269
H   H29       1.0  0.55970  0.16377  0.61812  1.0000 0.1277970269
H   H30       1.0  0.83623  0.39593  0.61812  1.0000 0.1277970269
H   H31       1.0  0.41605  0.57388  0.34160  1.0000 0.1277970269
H   H32       1.0  0.42612  0.84217  0.34160  1.0000 0.1277970269
H   H33       1.0  0.15783  0.58395  0.34160  1.0000 0.1277970269
H   H34       1.0  0.57388  0.41605  0.84160  1.0000 0.1277970269
H   H35       1.0  0.58395  0.15783  0.84160  1.0000 0.1277970269
H   H36       1.0  0.84217  0.42612  0.84160  1.0000 0.1277970269
H   H37       1.0  0.47929  0.65271  0.30929  1.0000 0.1277970269
H   H38       1.0  0.34729  0.82658  0.30929  1.0000 0.1277970269
H   H39       1.0  0.17342  0.52071  0.30929  1.0000 0.1277970269
H   H40       1.0  0.65271  0.47929  0.80929  1.0000 0.1277970269
H   H41       1.0  0.52071  0.17342  0.80929  1.0000 0.1277970269
H   H42       1.0  0.82658  0.34729  0.80929  1.0000 0.1277970269
H   H43       1.0  0.99893  0.10809  0.25675  1.0000 0.1804482824
H   H44       1.0  0.89191  0.89084  0.25675  1.0000 0.1804482824
H   H45       1.0  0.10916  0.00107  0.25675  1.0000 0.1804482824
H   H46       1.0  0.10809  0.99893  0.75675  1.0000 0.1804482824
H   H47       1.0  0.00107  0.10916  0.75675  1.0000 0.1804482824
H   H48       1.0  0.89084  0.89191  0.75675  1.0000 0.1804482824
C   C1        1.0  0.21038  0.29530  0.25690  1.0000 0.615644086
C   C2        1.0  0.70470  0.91508  0.25690  1.0000 0.615644086
C   C3        1.0  0.08492  0.78962  0.25690  1.0000 0.615644086
C   C4        1.0  0.29530  0.21038  0.75690  1.0000 0.615644086
C   C5        1.0  0.78962  0.08492  0.75690  1.0000 0.615644086
C   C6        1.0  0.91508  0.70470  0.75690  1.0000 0.615644086
C   C7        1.0  0.23521  0.37287  0.25620  1.0000 -0.0337468536
C   C8        1.0  0.62713  0.86234  0.25620  1.0000 -0.0337468536
C   C9        1.0  0.13766  0.76479  0.25620  1.0000 -0.0337468536
C   C10       1.0  0.37287  0.23521  0.75620  1.0000 -0.0337468536
C   C11       1.0  0.76479  0.13766  0.75620  1.0000 -0.0337468536
C   C12       1.0  0.86234  0.62713  0.75620  1.0000 -0.0337468536
C   C13       1.0  0.24700  0.40900  0.43520  1.0000 -0.0818718586
C   C14       1.0  0.59100  0.83800  0.43520  1.0000 -0.0818718586
C   C15       1.0  0.16200  0.75300  0.43520  1.0000 -0.0818718586
C   C16       1.0  0.40900  0.24700  0.93520  1.0000 -0.0818718586
C   C17       1.0  0.75300  0.16200  0.93520  1.0000 -0.0818718586
C   C18       1.0  0.83800  0.59100  0.93520  1.0000 -0.0818718586
C   C19       1.0  0.27060  0.48010  0.43330  1.0000 -0.1640835883
C   C20       1.0  0.51990  0.79050  0.43330  1.0000 -0.1640835883
C   C21       1.0  0.20950  0.72940  0.43330  1.0000 -0.1640835883
C   C22       1.0  0.48010  0.27060  0.93330  1.0000 -0.1640835883
C   C23       1.0  0.72940  0.20950  0.93330  1.0000 -0.1640835883
C   C24       1.0  0.79050  0.51990  0.93330  1.0000 -0.1652425938
C   C25       1.0  0.28324  0.51628  0.25660  1.0000 0.0994930006
C   C26       1.0  0.48372  0.76696  0.25660  1.0000 0.0994930006
C   C27       1.0  0.23304  0.71676  0.25660  1.0000 0.0994930006
C   C28       1.0  0.51628  0.28324  0.75660  1.0000 0.0994930006
C   C29       1.0  0.71676  0.23304  0.75660  1.0000 0.0994930006
C   C30       1.0  0.76696  0.48372  0.75660  1.0000 0.0994930006
C   C31       1.0  0.27110  0.48080  0.07960  1.0000 -0.1640835883
C   C32       1.0  0.51920  0.79030  0.07960  1.0000 -0.1640835883
C   C33       1.0  0.20970  0.72890  0.07960  1.0000 -0.1640835883
C   C34       1.0  0.48080  0.27110  0.57960  1.0000 -0.1640835883
C   C35       1.0  0.72890  0.20970  0.57960  1.0000 -0.1640835883
C   C36       1.0  0.79030  0.51920  0.57960  1.0000 -0.1640835883
C   C37       1.0  0.24640  0.40850  0.07890  1.0000 -0.0818718586
C   C38       1.0  0.59150  0.83790  0.07890  1.0000 -0.0818718586
C   C39       1.0  0.16210  0.75360  0.07890  1.0000 -0.0818718586
C   C40       1.0  0.40850  0.24640  0.57890  1.0000 -0.0818718586
C   C41       1.0  0.75360  0.16210  0.57890  1.0000 -0.0818718586
C   C42       1.0  0.83790  0.59150  0.57890  1.0000 -0.0818718586
C   C43       1.0  0.30914  0.59480  0.25640  1.0000 -0.0630766614
C   C44       1.0  0.40520  0.71434  0.25640  1.0000 -0.0630766614
C   C45       1.0  0.28566  0.69086  0.25640  1.0000 -0.0630766614
C   C46       1.0  0.59480  0.30914  0.75640  1.0000 -0.0630766614
C   C47       1.0  0.69086  0.28566  0.75640  1.0000 -0.0630766614
C   C48       1.0  0.71434  0.40520  0.75640  1.0000 -0.0630766614
C   C49       1.0  0.38143  0.64240  0.25620  1.0000 0.0785347707
C   C50       1.0  0.35760  0.73903  0.25620  1.0000 0.0785347707
C   C51       1.0  0.26097  0.61857  0.25620  1.0000 0.0785347707
C   C52       1.0  0.64240  0.38143  0.75620  1.0000 0.0785347707
C   C53       1.0  0.61857  0.26097  0.75620  1.0000 0.0785347707
C   C54       1.0  0.73903  0.35760  0.75620  1.0000 0.0785347707
C   C55       1.0  0.43400  0.61590  0.25630  1.0000 -0.4362931066
C   C56       1.0  0.38410  0.81810  0.25630  1.0000 -0.4362931066
C   C57       1.0  0.18190  0.56600  0.25630  1.0000 -0.4362931066
C   C58       1.0  0.61590  0.43400  0.75630  1.0000 -0.4362931066
C   C59       1.0  0.56600  0.18190  0.75630  1.0000 -0.4362931066
C   C60       1.0  0.81810  0.38410  0.75630  1.0000 -0.4362931066
C   C61       1.0  0.04874  0.12904  0.25670  1.0000 0.514535237
C   C62       1.0  0.87096  0.91970  0.25670  1.0000 0.5158188349
C   C63       1.0  0.08030  0.95126  0.25670  1.0000 0.5158188349
C   C64       1.0  0.12904  0.04874  0.75670  1.0000 0.5158188349
C   C65       1.0  0.95126  0.08030  0.75670  1.0000 0.5158188349
C   C66       1.0  0.91970  0.87096  0.75670  1.0000 0.5158188349
O   O1        1.0  0.07830  0.14155  0.42400  1.0000 -0.4929626945
O   O2        1.0  0.85845  0.93675  0.42400  1.0000 -0.4929626945
O   O3        1.0  0.06325  0.92170  0.42400  1.0000 -0.4929626945
O   O4        1.0  0.14155  0.07830  0.92400  1.0000 -0.4929626945
O   O5        1.0  0.92170  0.06325  0.92400  1.0000 -0.4929626945
O   O6        1.0  0.93675  0.85845  0.92400  1.0000 -0.4929626945
O   O7        1.0  0.07839  0.14145  0.08860  1.0000 -0.4929626945
O   O8        1.0  0.85855  0.93694  0.08860  1.0000 -0.4929626945
O   O9        1.0  0.06306  0.92161  0.08860  1.0000 -0.4929626945
O   O10       1.0  0.14145  0.07839  0.58860  1.0000 -0.4929626945
O   O11       1.0  0.92161  0.06306  0.58860  1.0000 -0.4929626945
O   O12       1.0  0.93694  0.85855  0.58860  1.0000 -0.4929626945
O   O13       1.0  0.20077  0.26594  0.42470  1.0000 -0.5085420125
O   O14       1.0  0.73406  0.93483  0.42470  1.0000 -0.5085420125
O   O15       1.0  0.06517  0.79923  0.42470  1.0000 -0.5085420125
O   O16       1.0  0.26594  0.20077  0.92470  1.0000 -0.5085420125
O   O17       1.0  0.79923  0.06517  0.92470  1.0000 -0.5085420125
O   O18       1.0  0.93483  0.73406  0.92470  1.0000 -0.5085420125
O   O19       1.0  0.20075  0.26584  0.08750  1.0000 -0.5170092994
O   O20       1.0  0.73416  0.93491  0.08750  1.0000 -0.5170092994
O   O21       1.0  0.06509  0.79925  0.08750  1.0000 -0.5170092994
O   O22       1.0  0.26584  0.20075  0.58750  1.0000 -0.5170092994
O   O23       1.0  0.79925  0.06509  0.58750  1.0000 -0.5170092994
O   O24       1.0  0.93491  0.73416  0.58750  1.0000 -0.5170092994
O   O25       1.0  0.19423  0.15171  0.25640  1.0000 -0.9325484051
O   O26       1.0  0.84829  0.04252  0.25640  1.0000 -0.9325484051
O   O27       1.0  0.95748  0.80577  0.25640  1.0000 -0.9325484051
O   O28       1.0  0.15171  0.19423  0.75640  1.0000 -0.9325484051
O   O29       1.0  0.80577  0.95748  0.75640  1.0000 -0.9325484051
O   O30       1.0  0.04252  0.84829  0.75640  1.0000 -0.9325484051
