# DDEC6 charges by PACMAN v1.1 (https://github.com/mtap-research/PACMAN-charge/)
data_2023[Eu][nan]2[ASR]4
_chemical_formula_sum              "Eu4 H52 C92 N8 O24"
_cell_length_a       17.8771
_cell_length_b       17.8771
_cell_length_c       22.84
_cell_angle_alpha    52.6405
_cell_angle_beta     127.359
_cell_angle_gamma    150.931

_symmetry_space_group_name_H-M    "P 1"
_symmetry_Int_Tables_number       1

loop_
  _symmetry_equiv_pos_as_xyz
  'x, y, z'

loop_
  _atom_site_type_symbol
  _atom_site_label
  _atom_site_symmetry_multiplicity
  _atom_site_fract_x
  _atom_site_fract_y
  _atom_site_fract_z
  _atom_site_occupancy
  _atom_site_charge
Eu  Eu1       1.0  0.26497  0.28095  0.47673  1.0000 2.0497437245
Eu  Eu2       1.0  0.28095  0.26497  0.02327  1.0000 2.0497437245
Eu  Eu3       1.0  0.73503  0.71905  0.52327  1.0000 2.0497437245
Eu  Eu4       1.0  0.71905  0.73503  0.97673  1.0000 2.0497437245
H   H1        1.0  0.17359  0.49519  0.95548  1.0000 0.1185478188
H   H2        1.0  0.49519  0.17359  0.54452  1.0000 0.1185478188
H   H3        1.0  0.82641  0.50481  0.04452  1.0000 0.1185478188
H   H4        1.0  0.50481  0.82641  0.45548  1.0000 0.1185478188
H   H5        1.0  0.02271  0.48125  0.94179  1.0000 0.1006249743
H   H6        1.0  0.48125  0.02271  0.55821  1.0000 0.1006249743
H   H7        1.0  0.97729  0.51875  0.05821  1.0000 0.1006249743
H   H8        1.0  0.51875  0.97729  0.44179  1.0000 0.1006249743
H   H9        1.0  0.99488  0.35236  0.14712  1.0000 0.1103024347
H   H10       1.0  0.35236  0.99488  0.35288  1.0000 0.1103024347
H   H11       1.0  0.00512  0.64764  0.85288  1.0000 0.1103024347
H   H12       1.0  0.64764  0.00512  0.64712  1.0000 0.1103024347
H   H13       1.0  0.05870  0.29052  0.27587  1.0000 0.1185478188
H   H14       1.0  0.29052  0.05870  0.22413  1.0000 0.1185478188
H   H15       1.0  0.94130  0.70948  0.72413  1.0000 0.1185478188
H   H16       1.0  0.70948  0.94130  0.77587  1.0000 0.1185478188
H   H17       1.0  0.46657  0.37621  0.66784  1.0000 0.1185478188
H   H18       1.0  0.37621  0.46657  0.83216  1.0000 0.1185478188
H   H19       1.0  0.53343  0.62379  0.33216  1.0000 0.1291401202
H   H20       1.0  0.62379  0.53343  0.16784  1.0000 0.1185478188
H   H21       1.0  0.68771  0.43549  0.80590  1.0000 0.1291401202
H   H22       1.0  0.43549  0.68771  0.69410  1.0000 0.1291401202
H   H23       1.0  0.31229  0.56451  0.19410  1.0000 0.1291401202
H   H24       1.0  0.56451  0.31229  0.30590  1.0000 0.1291401202
H   H25       1.0  0.53732  0.42834  0.78224  1.0000 0.1103024347
H   H26       1.0  0.42834  0.53732  0.71776  1.0000 0.1103024347
H   H27       1.0  0.46268  0.57166  0.21776  1.0000 0.1103024347
H   H28       1.0  0.57166  0.46268  0.28224  1.0000 0.1103024347
H   H29       1.0  0.42136  0.30872  0.87408  1.0000 0.1103024347
H   H30       1.0  0.30872  0.42136  0.62592  1.0000 0.1103024347
H   H31       1.0  0.57864  0.69128  0.12592  1.0000 0.1103024347
H   H32       1.0  0.69128  0.57864  0.37408  1.0000 0.1103024347
H   H33       1.0  0.45367  0.19395  0.99115  1.0000 0.1396532855
H   H34       1.0  0.19395  0.45367  0.50885  1.0000 0.1396532855
H   H35       1.0  0.54633  0.80605  0.00885  1.0000 0.1396532855
H   H36       1.0  0.80605  0.54633  0.49115  1.0000 0.1396532855
H   H37       1.0  0.60000  0.87102  0.28269  1.0000 0.1185478188
H   H38       1.0  0.87102  0.60000  0.21731  1.0000 0.1185478188
H   H39       1.0  0.40000  0.12898  0.71731  1.0000 0.1185478188
H   H40       1.0  0.12898  0.40000  0.78269  1.0000 0.1185478188
H   H41       1.0  0.53674  0.93938  0.15536  1.0000 0.1185478188
H   H42       1.0  0.93938  0.53674  0.34464  1.0000 0.1185478188
H   H43       1.0  0.46326  0.06062  0.84464  1.0000 0.1185478188
H   H44       1.0  0.06062  0.46326  0.65536  1.0000 0.1185478188
H   H45       1.0  0.76437  0.06305  0.08315  1.0000 0.1006249743
H   H46       1.0  0.06305  0.76437  0.41685  1.0000 0.1006249743
H   H47       1.0  0.23563  0.93695  0.91685  1.0000 0.1006249743
H   H48       1.0  0.93695  0.23563  0.58315  1.0000 0.1006249743
H   H49       1.0  0.90488  0.06968  0.09095  1.0000 0.1185478188
H   H50       1.0  0.06968  0.90488  0.40905  1.0000 0.1185478188
H   H51       1.0  0.09512  0.93032  0.90905  1.0000 0.1185478188
H   H52       1.0  0.93032  0.09512  0.59095  1.0000 0.1185478188
C   C1        1.0  0.05408  0.28312  0.02416  1.0000 -0.0016806499
C   C2        1.0  0.28312  0.05408  0.47584  1.0000 -0.0016806499
C   C3        1.0  0.94592  0.71688  0.97584  1.0000 -0.0016806499
C   C4        1.0  0.71688  0.94592  0.52416  1.0000 -0.0016806499
C   C5        1.0  0.14509  0.28751  0.02859  1.0000 0.57084508
C   C6        1.0  0.28751  0.14509  0.47141  1.0000 0.57084508
C   C7        1.0  0.85491  0.71249  0.97141  1.0000 0.57084508
C   C8        1.0  0.71249  0.85491  0.52859  1.0000 0.57084508
C   C9        1.0  0.08973  0.40707  0.98010  1.0000 -0.1011760668
C   C10       1.0  0.40707  0.08973  0.51990  1.0000 -0.1011760668
C   C11       1.0  0.91027  0.59293  0.01990  1.0000 -0.1011760668
C   C12       1.0  0.59293  0.91027  0.48010  1.0000 -0.1011760668
C   C13       1.0  0.00036  0.39944  0.97281  1.0000 -0.1379667395
C   C14       1.0  0.39944  0.00036  0.52719  1.0000 -0.1379667395
C   C15       1.0  0.99964  0.60056  0.02719  1.0000 -0.1379667395
C   C16       1.0  0.60056  0.99964  0.47281  1.0000 -0.1379667395
C   C17       1.0  0.87794  0.27146  0.01117  1.0000 0.0385850295
C   C18       1.0  0.27146  0.87794  0.48883  1.0000 0.0385850295
C   C19       1.0  0.12206  0.72854  0.98883  1.0000 0.0385850295
C   C20       1.0  0.72854  0.12206  0.51117  1.0000 0.0385850295
C   C21       1.0  0.78123  0.26497  0.99963  1.0000 0.1291401202
C   C22       1.0  0.26497  0.78123  0.50037  1.0000 0.1291401202
C   C23       1.0  0.21877  0.73503  0.00037  1.0000 0.1291401202
C   C24       1.0  0.73503  0.21877  0.49963  1.0000 0.1291401202
C   C25       1.0  0.71673  0.19967  0.05759  1.0000 0.1291401202
C   C26       1.0  0.19967  0.71673  0.44241  1.0000 0.1291401202
C   C27       1.0  0.28327  0.80033  0.94241  1.0000 0.1291401202
C   C28       1.0  0.80033  0.28327  0.55759  1.0000 0.1291401202
C   C29       1.0  0.75902  0.15298  0.13822  1.0000 0.0385850295
C   C30       1.0  0.15298  0.75902  0.36178  1.0000 0.0385850295
C   C31       1.0  0.24098  0.84702  0.86178  1.0000 0.0385850295
C   C32       1.0  0.84702  0.24098  0.63822  1.0000 0.0385850295
C   C33       1.0  0.91561  0.25699  0.17455  1.0000 -0.1379667395
C   C34       1.0  0.25699  0.91561  0.32545  1.0000 -0.1379667395
C   C35       1.0  0.08439  0.74301  0.82545  1.0000 -0.1379667395
C   C36       1.0  0.74301  0.08439  0.67455  1.0000 -0.1379667395
C   C37       1.0  0.95387  0.21893  0.25153  1.0000 -0.0909008631
C   C38       1.0  0.21893  0.95387  0.24847  1.0000 -0.0909008631
C   C39       1.0  0.04613  0.78107  0.74847  1.0000 -0.0909008631
C   C40       1.0  0.78107  0.04613  0.75153  1.0000 -0.0909008631
C   C41       1.0  0.83574  0.07386  0.29242  1.0000 -0.0322083482
C   C42       1.0  0.07386  0.83574  0.20758  1.0000 -0.0322083482
C   C43       1.0  0.16426  0.92614  0.70758  1.0000 -0.0322083482
C   C44       1.0  0.92614  0.16426  0.79242  1.0000 -0.0322083482
C   C45       1.0  0.87711  0.03029  0.37547  1.0000 0.6679273373
C   C46       1.0  0.03029  0.87711  0.12453  1.0000 0.6679273373
C   C47       1.0  0.12289  0.96971  0.62453  1.0000 0.6679273373
C   C48       1.0  0.96971  0.12289  0.87547  1.0000 0.6679273373
C   C49       1.0  0.53183  0.46157  0.63298  1.0000 0.4973939037
C   C50       1.0  0.46157  0.53183  0.86702  1.0000 0.4973939037
C   C51       1.0  0.46817  0.53843  0.36702  1.0000 0.4973939037
C   C52       1.0  0.53843  0.46817  0.13298  1.0000 0.4973939037
C   C53       1.0  0.66549  0.31871  0.91571  1.0000 0.1536937258
C   C54       1.0  0.31871  0.66549  0.58429  1.0000 0.1536937258
C   C55       1.0  0.33451  0.68129  0.08429  1.0000 0.1536937258
C   C56       1.0  0.68129  0.33451  0.41571  1.0000 0.1536937258
C   C57       1.0  0.64223  0.38757  0.84339  1.0000 -0.1781113172
C   C58       1.0  0.38757  0.64223  0.65661  1.0000 -0.1781113172
C   C59       1.0  0.35777  0.61243  0.15661  1.0000 -0.1781113172
C   C60       1.0  0.61243  0.35777  0.34339  1.0000 -0.1781113172
C   C61       1.0  0.55228  0.38272  0.82952  1.0000 -0.1011760668
C   C62       1.0  0.38272  0.55228  0.67048  1.0000 -0.1011760668
C   C63       1.0  0.44772  0.61728  0.17048  1.0000 -0.1011760668
C   C64       1.0  0.61728  0.44772  0.32952  1.0000 -0.1011760668
C   C65       1.0  0.48204  0.31036  0.88501  1.0000 -0.08015612
C   C66       1.0  0.31036  0.48204  0.61499  1.0000 -0.08015612
C   C67       1.0  0.51796  0.68964  0.11499  1.0000 -0.08015612
C   C68       1.0  0.68964  0.51796  0.38501  1.0000 -0.08015612
C   C69       1.0  0.50135  0.24225  0.95478  1.0000 -0.1619624072
C   C70       1.0  0.24225  0.50135  0.54522  1.0000 -0.1619624072
C   C71       1.0  0.49865  0.75775  0.04522  1.0000 -0.1619624072
C   C72       1.0  0.75775  0.49865  0.45478  1.0000 -0.1619624072
C   C73       1.0  0.59408  0.24532  0.97165  1.0000 0.1396532855
C   C74       1.0  0.24532  0.59408  0.52835  1.0000 0.1396532855
C   C75       1.0  0.40592  0.75468  0.02835  1.0000 0.1396532855
C   C76       1.0  0.75468  0.40592  0.47165  1.0000 0.1396532855
C   C77       1.0  0.67934  0.96866  0.25580  1.0000 -0.1011760668
C   C78       1.0  0.96866  0.67934  0.24420  1.0000 -0.1011760668
C   C79       1.0  0.32066  0.03134  0.74420  1.0000 -0.1011760668
C   C80       1.0  0.03134  0.32066  0.75580  1.0000 -0.1011760668
C   C81       1.0  0.64152  0.00908  0.17933  1.0000 -0.1379667395
C   C82       1.0  0.00908  0.64152  0.32067  1.0000 -0.1379667395
C   C83       1.0  0.35848  0.99092  0.82067  1.0000 -0.1379667395
C   C84       1.0  0.99092  0.35848  0.67933  1.0000 -0.1379667395
C   C85       1.0  0.84466  0.14874  0.05643  1.0000 -0.1472361558
C   C86       1.0  0.14874  0.84466  0.44357  1.0000 -0.1472361558
C   C87       1.0  0.15534  0.85126  0.94357  1.0000 -0.1472361558
C   C88       1.0  0.85126  0.15534  0.55643  1.0000 -0.1472361558
C   C89       1.0  0.93033  0.15367  0.06186  1.0000 -0.1011760668
C   C90       1.0  0.15367  0.93033  0.43814  1.0000 -0.1011760668
C   C91       1.0  0.06967  0.84633  0.93814  1.0000 -0.1011760668
C   C92       1.0  0.84633  0.06967  0.56186  1.0000 -0.1011760668
N   N1        1.0  0.75638  0.32442  0.93062  1.0000 -0.2954072305
N   N2        1.0  0.32442  0.75638  0.56938  1.0000 -0.2954072305
N   N3        1.0  0.24362  0.67558  0.06938  1.0000 -0.2954072305
N   N4        1.0  0.67558  0.24362  0.43062  1.0000 -0.2954072305
N   N5        1.0  0.62193  0.18627  0.04277  1.0000 -0.2900185162
N   N6        1.0  0.18627  0.62193  0.45723  1.0000 -0.2900185162
N   N7        1.0  0.37807  0.81373  0.95723  1.0000 -0.2900185162
N   N8        1.0  0.81373  0.37807  0.54277  1.0000 -0.2900185162
O   O1        1.0  0.09112  0.16128  0.05755  1.0000 -0.636429357
O   O2        1.0  0.16128  0.09112  0.44245  1.0000 -0.636429357
O   O3        1.0  0.90888  0.83872  0.94245  1.0000 -0.636429357
O   O4        1.0  0.83872  0.90888  0.55755  1.0000 -0.636429357
O   O5        1.0  0.01696  0.13544  0.40760  1.0000 -0.6896587783
O   O6        1.0  0.13544  0.01696  0.09240  1.0000 -0.6896587783
O   O7        1.0  0.98304  0.86456  0.59240  1.0000 -0.6896587783
O   O8        1.0  0.86456  0.98304  0.90760  1.0000 -0.6896587783
O   O9        1.0  0.47483  0.44857  0.56538  1.0000 -0.7131124014
O   O10       1.0  0.44857  0.47483  0.93462  1.0000 -0.7164758915
O   O11       1.0  0.52517  0.55143  0.43462  1.0000 -0.7131124014
O   O12       1.0  0.55143  0.52517  0.06538  1.0000 -0.7131124014
O   O13       1.0  0.67111  0.58349  0.65455  1.0000 -0.5337011391
O   O14       1.0  0.58349  0.67111  0.84545  1.0000 -0.5337011391
O   O15       1.0  0.32889  0.41651  0.34545  1.0000 -0.5337011391
O   O16       1.0  0.41651  0.32889  0.15455  1.0000 -0.5337011391
O   O17       1.0  0.76847  0.89113  0.40703  1.0000 -0.6561271423
O   O18       1.0  0.89113  0.76847  0.09297  1.0000 -0.6561271423
O   O19       1.0  0.23153  0.10887  0.59297  1.0000 -0.6561271423
O   O20       1.0  0.10887  0.23153  0.90703  1.0000 -0.6561271423
O   O21       1.0  0.26858  0.41102  0.00327  1.0000 -0.6034372175
O   O22       1.0  0.41102  0.26858  0.49673  1.0000 -0.6034372175
O   O23       1.0  0.73142  0.58898  0.99673  1.0000 -0.6034372175
O   O24       1.0  0.58898  0.73142  0.50327  1.0000 -0.6034372175
