# DDEC6 charges by PACMAN v1.1 (https://github.com/mtap-research/PACMAN-charge/)
data_2023[Zr][kgd]2[ASR]1
_chemical_formula_sum              "Zr6 H30 C42 N2 O26"
_cell_length_a       17.194
_cell_length_b       17.194
_cell_length_c       7.01
_cell_angle_alpha    90
_cell_angle_beta     90
_cell_angle_gamma    120

_symmetry_space_group_name_H-M    "P 1"
_symmetry_Int_Tables_number       1

loop_
  _symmetry_equiv_pos_as_xyz
  'x, y, z'

loop_
  _atom_site_type_symbol
  _atom_site_label
  _atom_site_symmetry_multiplicity
  _atom_site_fract_x
  _atom_site_fract_y
  _atom_site_fract_z
  _atom_site_occupancy
  _atom_site_charge
Zr  Zr1       1.0  0.97397  0.87076  0.15934  1.0000 2.1673794426
Zr  Zr2       1.0  0.89679  0.02603  0.15934  1.0000 2.1673794426
Zr  Zr3       1.0  0.12924  0.10321  0.15934  1.0000 2.1622774638
Zr  Zr4       1.0  0.02603  0.12924  0.84066  1.0000 2.1622774638
Zr  Zr5       1.0  0.10321  0.97397  0.84066  1.0000 2.1622774638
Zr  Zr6       1.0  0.87076  0.89679  0.84066  1.0000 2.1622774638
H   H1        1.0  0.37924  0.80283  0.99464  1.0000 0.1113627367
H   H2        1.0  0.29434  0.87768  0.92394  1.0000 0.1113627367
H   H3        1.0  0.18779  0.64519  0.43124  1.0000 0.1113627367
H   H4        1.0  0.10106  0.71939  0.35975  1.0000 0.1113627367
H   H5        1.0  0.80398  0.74950  0.24958  1.0000 0.4000928738
H   H6        1.0  0.42359  0.62076  0.99464  1.0000 0.1113627367
H   H7        1.0  0.58334  0.70566  0.92394  1.0000 0.1113627367
H   H8        1.0  0.45740  0.81221  0.43124  1.0000 0.1153401248
H   H9        1.0  0.61833  0.89894  0.35975  1.0000 0.1113627367
H   H10       1.0  0.94552  0.19602  0.24958  1.0000 0.4000928738
H   H11       1.0  0.19717  0.57641  0.99464  1.0000 0.1113627367
H   H12       1.0  0.12232  0.41666  0.92394  1.0000 0.1113627367
H   H13       1.0  0.35481  0.54260  0.43124  1.0000 0.1113627367
H   H14       1.0  0.28061  0.38167  0.35975  1.0000 0.1113627367
H   H15       1.0  0.25050  0.05448  0.24958  1.0000 0.4000928738
H   H16       1.0  0.62076  0.19717  0.00536  1.0000 0.1113627367
H   H17       1.0  0.70566  0.12232  0.07606  1.0000 0.1113627367
H   H18       1.0  0.81221  0.35481  0.56876  1.0000 0.1153401248
H   H19       1.0  0.89894  0.28061  0.64025  1.0000 0.1113627367
H   H20       1.0  0.19602  0.25050  0.75042  1.0000 0.4000928738
H   H21       1.0  0.57641  0.37924  0.00536  1.0000 0.1113627367
H   H22       1.0  0.41666  0.29434  0.07606  1.0000 0.1113627367
H   H23       1.0  0.54260  0.18779  0.56876  1.0000 0.1153401248
H   H24       1.0  0.38167  0.10106  0.64025  1.0000 0.1113627367
H   H25       1.0  0.05448  0.80398  0.75042  1.0000 0.4000928738
H   H26       1.0  0.80283  0.42359  0.00536  1.0000 0.1113627367
H   H27       1.0  0.87768  0.58334  0.07606  1.0000 0.1113627367
H   H28       1.0  0.64519  0.45740  0.56876  1.0000 0.1153401248
H   H29       1.0  0.71939  0.61833  0.64025  1.0000 0.1113627367
H   H30       1.0  0.74950  0.94552  0.75042  1.0000 0.4000928738
C   C1        1.0  0.31990  0.78588  0.07842  1.0000 -0.1839461712
C   C2        1.0  0.27074  0.82788  0.03661  1.0000 -0.0847543279
C   C3        1.0  0.21171  0.69689  0.32259  1.0000 -0.1934232507
C   C4        1.0  0.16220  0.73878  0.28049  1.0000 -0.0729857882
C   C5        1.0  0.19057  0.80348  0.13466  1.0000 -0.0882952213
C   C6        1.0  0.29004  0.71912  0.21978  1.0000 0.18647765
C   C7        1.0  0.13668  0.84492  0.08348  1.0000 0.6087857025
C   C8        1.0  0.46598  0.68010  0.07842  1.0000 -0.1839461712
C   C9        1.0  0.55714  0.72926  0.03661  1.0000 -0.0847543279
C   C10       1.0  0.48518  0.78829  0.32259  1.0000 -0.1934232507
C   C11       1.0  0.57658  0.83780  0.28049  1.0000 -0.0729857882
C   C12       1.0  0.61291  0.80943  0.13466  1.0000 -0.0882952213
C   C13       1.0  0.42908  0.70996  0.21978  1.0000 0.18647765
C   C14       1.0  0.70824  0.86332  0.08348  1.0000 0.6087857025
C   C15       1.0  0.21412  0.53402  0.07842  1.0000 -0.1839461712
C   C16       1.0  0.17212  0.44286  0.03661  1.0000 -0.0847543279
C   C17       1.0  0.30311  0.51482  0.32259  1.0000 -0.1934232507
C   C18       1.0  0.26122  0.42342  0.28049  1.0000 -0.0729857882
C   C19       1.0  0.19652  0.38709  0.13466  1.0000 -0.0882952213
C   C20       1.0  0.28088  0.57092  0.21978  1.0000 0.18647765
C   C21       1.0  0.15508  0.29176  0.08348  1.0000 0.6087857025
C   C22       1.0  0.68010  0.21412  0.92158  1.0000 -0.1839461712
C   C23       1.0  0.72926  0.17212  0.96339  1.0000 -0.0847543279
C   C24       1.0  0.78829  0.30311  0.67741  1.0000 -0.1934232507
C   C25       1.0  0.83780  0.26122  0.71951  1.0000 -0.0729857882
C   C26       1.0  0.80943  0.19652  0.86534  1.0000 -0.0882952213
C   C27       1.0  0.70996  0.28088  0.78022  1.0000 0.18647765
C   C28       1.0  0.86332  0.15508  0.91652  1.0000 0.6087857025
C   C29       1.0  0.53402  0.31990  0.92158  1.0000 -0.1839461712
C   C30       1.0  0.44286  0.27074  0.96339  1.0000 -0.0847543279
C   C31       1.0  0.51482  0.21171  0.67741  1.0000 -0.1934232507
C   C32       1.0  0.42342  0.16220  0.71951  1.0000 -0.0729857882
C   C33       1.0  0.38709  0.19057  0.86534  1.0000 -0.0882952213
C   C34       1.0  0.57092  0.29004  0.78022  1.0000 0.18647765
C   C35       1.0  0.29176  0.13668  0.91652  1.0000 0.6087857025
C   C36       1.0  0.78588  0.46598  0.92158  1.0000 -0.1839461712
C   C37       1.0  0.82788  0.55714  0.96339  1.0000 -0.0847543279
C   C38       1.0  0.69689  0.48518  0.67741  1.0000 -0.1934232507
C   C39       1.0  0.73878  0.57658  0.71951  1.0000 -0.0729857882
C   C40       1.0  0.80348  0.61291  0.86534  1.0000 -0.0882952213
C   C41       1.0  0.71912  0.42908  0.78022  1.0000 0.18647765
C   C42       1.0  0.84492  0.70824  0.91652  1.0000 0.6087857025
N   N1        1.0  0.33333  0.66667  0.24300  1.0000 -0.1934232507
N   N2        1.0  0.66667  0.33333  0.75700  1.0000 -0.1934232507
O   O1        1.0  0.06003  0.81632  0.16465  1.0000 -0.6060548288
O   O2        1.0  0.16873  0.90975  0.96109  1.0000 -0.4425691726
O   O3        1.0  0.86267  0.75747  0.29214  1.0000 -0.6865091585
O   O4        1.0  0.10788  0.97375  0.13504  1.0000 -1.0529523693
O   O5        1.0  0.75629  0.93997  0.16465  1.0000 -0.6060548288
O   O6        1.0  0.74102  0.83127  0.96109  1.0000 -0.4425691726
O   O7        1.0  0.89480  0.13733  0.29214  1.0000 -0.6865091585
O   O8        1.0  0.86587  0.89212  0.13504  1.0000 -1.0529523693
O   O9        1.0  0.18368  0.24371  0.16465  1.0000 -0.6060548288
O   O10       1.0  0.09025  0.25898  0.96109  1.0000 -0.4425691726
O   O11       1.0  0.24253  0.10520  0.29214  1.0000 -0.6865091585
O   O12       1.0  0.02625  0.13413  0.13504  1.0000 -1.0529523693
O   O13       1.0  0.93997  0.18368  0.83535  1.0000 -0.6060548288
O   O14       1.0  0.83127  0.09025  0.03891  1.0000 -0.4425691726
O   O15       1.0  0.13733  0.24253  0.70786  1.0000 -0.6865091585
O   O16       1.0  0.89212  0.02625  0.86496  1.0000 -1.0529523693
O   O17       1.0  0.24371  0.06003  0.83535  1.0000 -0.6060548288
O   O18       1.0  0.25898  0.16873  0.03891  1.0000 -0.4425691726
O   O19       1.0  0.10520  0.86267  0.70786  1.0000 -0.6865091585
O   O20       1.0  0.13413  0.10788  0.86496  1.0000 -1.0550087057
O   O21       1.0  0.81632  0.75629  0.83535  1.0000 -0.6060548288
O   O22       1.0  0.90975  0.74102  0.03891  1.0000 -0.4425691726
O   O23       1.0  0.75747  0.89480  0.70786  1.0000 -0.6865091585
O   O24       1.0  0.97375  0.86587  0.86496  1.0000 -1.0529523693
O   O25       1.0  0.00000  0.00000  0.28367  1.0000 -0.9959724508
O   O26       1.0  0.00000  0.00000  0.71633  1.0000 -0.9908043109
