# DDEC6 charges by PACMAN v1.1 (https://github.com/mtap-research/PACMAN-charge/)
data_2023[Cd][sql]2[ASR]2
_chemical_formula_sum              "Cd2 H32 C50 N6 O8"
_cell_length_a       9.4787
_cell_length_b       13.0542
_cell_length_c       13.1115
_cell_angle_alpha    116.602
_cell_angle_beta     99.204
_cell_angle_gamma    94.85

_symmetry_space_group_name_H-M    "P 1"
_symmetry_Int_Tables_number       1

loop_
  _symmetry_equiv_pos_as_xyz
  'x, y, z'

loop_
  _atom_site_type_symbol
  _atom_site_label
  _atom_site_symmetry_multiplicity
  _atom_site_fract_x
  _atom_site_fract_y
  _atom_site_fract_z
  _atom_site_occupancy
  _atom_site_charge
Cd  Cd1       1.0  0.71849  0.54419  0.02941  1.0000 0.9293903985
Cd  Cd2       1.0  0.28151  0.45581  0.97059  1.0000 0.9293903985
H   H1        1.0  0.58924  0.90866  0.56520  1.0000 0.1198754065
H   H2        1.0  0.41076  0.09134  0.43480  1.0000 0.1198754065
H   H3        1.0  0.21084  0.68023  0.43675  1.0000 0.1198754065
H   H4        1.0  0.78916  0.31977  0.56325  1.0000 0.1198754065
H   H5        1.0  0.66844  0.79648  0.39712  1.0000 0.1198754065
H   H6        1.0  0.33156  0.20352  0.60288  1.0000 0.1198754065
H   H7        1.0  0.61140  0.95351  0.84235  1.0000 0.1258190476
H   H8        1.0  0.38860  0.04649  0.15765  1.0000 0.1258190476
H   H9        1.0  0.16989  0.06625  0.86055  1.0000 0.1198754065
H   H10       1.0  0.83011  0.93375  0.13945  1.0000 0.1198754065
H   H11       1.0  0.97135  0.96291  0.86347  1.0000 0.1118505743
H   H12       1.0  0.02865  0.03709  0.13653  1.0000 0.1118505743
H   H13       1.0  0.49940  0.80621  0.87173  1.0000 0.1375173606
H   H14       1.0  0.50060  0.19379  0.12827  1.0000 0.1375173606
H   H15       1.0  0.83625  0.86433  0.93606  1.0000 0.1118505743
H   H16       1.0  0.16375  0.13567  0.06394  1.0000 0.1118505743
H   H17       1.0  0.43659  0.03909  0.64204  1.0000 0.1118505743
H   H18       1.0  0.56341  0.96091  0.35796  1.0000 0.1118505743
H   H19       1.0  0.32960  0.15574  0.79293  1.0000 0.1198754065
H   H20       1.0  0.67040  0.84426  0.20707  1.0000 0.1198754065
H   H21       1.0  0.54146  0.31853  0.05285  1.0000 0.1258190476
H   H22       1.0  0.45854  0.68147  0.94715  1.0000 0.1258190476
H   H23       1.0  0.29156  0.56812  0.26910  1.0000 0.1258190476
H   H24       1.0  0.70844  0.43188  0.73090  1.0000 0.1258190476
H   H25       1.0  0.18092  0.69195  0.73044  1.0000 0.1118505743
H   H26       1.0  0.81908  0.30805  0.26956  1.0000 0.1118505743
H   H27       1.0  0.04905  0.59525  0.80556  1.0000 0.1198754065
H   H28       1.0  0.95095  0.40475  0.19444  1.0000 0.1198754065
H   H29       1.0  0.77935  0.10197  0.85845  1.0000 0.1258190476
H   H30       1.0  0.22065  0.89803  0.14155  1.0000 0.1258190476
H   H31       1.0  0.84732  0.29548  0.87433  1.0000 0.1375173606
H   H32       1.0  0.15268  0.70452  0.12567  1.0000 0.1375173606
C   C1        1.0  0.38930  0.80785  0.51666  1.0000 0.0476668772
C   C2        1.0  0.61070  0.19215  0.48334  1.0000 0.0476668772
C   C3        1.0  0.52730  0.84020  0.50440  1.0000 -0.1613889805
C   C4        1.0  0.47270  0.15980  0.49560  1.0000 -0.1613889805
C   C5        1.0  0.33340  0.88433  0.61929  1.0000 0.201686477
C   C6        1.0  0.66667  0.11567  0.38071  1.0000 0.201686477
C   C7        1.0  0.30360  0.70508  0.42853  1.0000 -0.1313760228
C   C8        1.0  0.69640  0.29492  0.57147  1.0000 -0.1313760228
C   C9        1.0  0.57440  0.77320  0.40440  1.0000 -0.0997046999
C   C10       1.0  0.42560  0.22680  0.59560  1.0000 -0.0997046999
C   C11       1.0  0.56590  0.97271  0.90654  1.0000 -0.1613889805
C   C12       1.0  0.43410  0.02729  0.09346  1.0000 -0.1613889805
C   C13       1.0  0.21400  0.02073  0.79879  1.0000 -0.1848932527
C   C14       1.0  0.78600  0.97927  0.20121  1.0000 -0.1848932527
C   C15       1.0  0.56590  0.08791  0.98206  1.0000 0.156615799
C   C16       1.0  0.43410  0.91209  0.01794  1.0000 0.156615799
C   C17       1.0  0.18500  0.90012  0.74699  1.0000 0.201686477
C   C18       1.0  0.81500  0.09988  0.25301  1.0000 0.201686477
C   C19       1.0  0.98790  0.88804  0.85173  1.0000 -0.1613889805
C   C20       1.0  0.01210  0.11196  0.14827  1.0000 -0.1613889805
C   C21       1.0  0.49980  0.88531  0.92430  1.0000 -0.1518198572
C   C22       1.0  0.50020  0.11469  0.07570  1.0000 -0.1518198572
C   C23       1.0  0.09240  0.83804  0.79077  1.0000 0.0476668772
C   C24       1.0  0.90760  0.16196  0.20923  1.0000 0.0476668772
C   C25       1.0  0.90780  0.82948  0.89535  1.0000 -0.11697715
C   C26       1.0  0.09220  0.17052  0.10465  1.0000 -0.11697715
C   C27       1.0  0.36970  0.00458  0.66937  1.0000 -0.1974057056
C   C28       1.0  0.63030  0.99542  0.33063  1.0000 -0.1974057056
C   C29       1.0  0.30790  0.07332  0.75900  1.0000 -0.0293263712
C   C30       1.0  0.69210  0.92668  0.24100  1.0000 -0.0293263712
C   C31       1.0  0.93080  0.72098  0.88031  1.0000 -0.0217059165
C   C32       1.0  0.06920  0.27902  0.11969  1.0000 -0.0217059165
C   C33       1.0  0.61030  0.28888  0.00660  1.0000 0.1198754065
C   C34       1.0  0.38970  0.71112  0.99340  1.0000 0.1198754065
C   C35       1.0  0.35160  0.63831  0.32870  1.0000 -0.0927624016
C   C36       1.0  0.64840  0.36169  0.67130  1.0000 -0.0927624016
C   C37       1.0  0.48690  0.67307  0.31500  1.0000 -0.0293263712
C   C38       1.0  0.51310  0.32693  0.68500  1.0000 -0.0293263712
C   C39       1.0  0.85130  0.66104  0.93440  1.0000 0.5418129839
C   C40       1.0  0.14870  0.33896  0.06560  1.0000 0.5418129839
C   C41       1.0  0.53680  0.60508  0.20410  1.0000 0.570396749
C   C42       1.0  0.46320  0.39492  0.79590  1.0000 0.570396749
C   C43       1.0  0.11200  0.72830  0.77360  1.0000 -0.1313760228
C   C44       1.0  0.88800  0.27170  0.22640  1.0000 -0.1313760228
C   C45       1.0  0.03310  0.67040  0.81790  1.0000 -0.0927624016
C   C46       1.0  0.96690  0.32960  0.18210  1.0000 -0.0927624016
C   C47       1.0  0.74000  0.16940  0.90010  1.0000 -0.1100828372
C   C48       1.0  0.26000  0.83060  0.09990  1.0000 -0.1100828372
C   C49       1.0  0.77640  0.27536  0.90900  1.0000 -0.0293263712
C   C50       1.0  0.22360  0.72464  0.09100  1.0000 -0.0293263712
N   N1        1.0  0.24244  0.83239  0.65773  1.0000 -0.3380989156
N   N2        1.0  0.75756  0.16761  0.34227  1.0000 -0.3380989156
N   N3        1.0  0.63388  0.17771  0.96337  1.0000 -0.0013660189
N   N4        1.0  0.36612  0.82229  0.03663  1.0000 -0.0013660189
N   N5        1.0  0.69500  0.35040  0.97625  1.0000 -0.3063375674
N   N6        1.0  0.30500  0.64960  0.02375  1.0000 -0.3063375674
O   O1        1.0  0.87448  0.56017  0.91578  1.0000 -0.5550672732
O   O2        1.0  0.12552  0.43983  0.08422  1.0000 -0.5550672732
O   O3        1.0  0.46939  0.50467  0.13217  1.0000 -0.5732925854
O   O4        1.0  0.53061  0.49533  0.86783  1.0000 -0.5732925854
O   O5        1.0  0.76603  0.71080  0.99594  1.0000 -0.5454632364
O   O6        1.0  0.23397  0.28920  0.00406  1.0000 -0.5454632364
O   O7        1.0  0.64770  0.65344  0.19022  1.0000 -0.5391257725
O   O8        1.0  0.35230  0.34656  0.80978  1.0000 -0.5391257725
