# DDEC6 charges by PACMAN v1.1 (https://github.com/mtap-research/PACMAN-charge/)
data_2023[Zn][sql]2[ASR]7
_chemical_formula_sum              "Zn2 H36 C60 N8 O8"
_cell_length_a       6.741
_cell_length_b       12.681
_cell_length_c       17.366
_cell_angle_alpha    109.583
_cell_angle_beta     97.361
_cell_angle_gamma    88.989

_symmetry_space_group_name_H-M    "P 1"
_symmetry_Int_Tables_number       1

loop_
  _symmetry_equiv_pos_as_xyz
  'x, y, z'

loop_
  _atom_site_type_symbol
  _atom_site_label
  _atom_site_symmetry_multiplicity
  _atom_site_fract_x
  _atom_site_fract_y
  _atom_site_fract_z
  _atom_site_occupancy
  _atom_site_charge
Zn  Zn1       1.0  0.80684  0.98822  0.79730  1.0000 0.7492610375
Zn  Zn2       1.0  0.19316  0.01178  0.20270  1.0000 0.7492610375
H   H1        1.0  0.54649  0.83114  0.02316  1.0000 0.1109022805
H   H2        1.0  0.45351  0.16886  0.97684  1.0000 0.1109022805
H   H3        1.0  0.24664  0.86201  0.95499  1.0000 0.1195754464
H   H4        1.0  0.75336  0.13799  0.04501  1.0000 0.1195754464
H   H5        1.0  0.79171  0.98509  0.38027  1.0000 0.1195754464
H   H6        1.0  0.20829  0.01491  0.61973  1.0000 0.1195754464
H   H7        1.0  0.05106  0.27499  0.68318  1.0000 0.1279477337
H   H8        1.0  0.94894  0.72501  0.31682  1.0000 0.1279477337
H   H9        1.0  0.77571  0.80476  0.86401  1.0000 0.1195754464
H   H10       1.0  0.22429  0.19524  0.13599  1.0000 0.1195754464
H   H11       1.0  0.68060  0.37085  0.79372  1.0000 0.1403400922
H   H12       1.0  0.31940  0.62915  0.20628  1.0000 0.1403400922
H   H13       1.0  0.18285  0.18348  0.76319  1.0000 0.1403400922
H   H14       1.0  0.81715  0.81652  0.23681  1.0000 0.1403400922
H   H15       1.0  0.41690  0.87360  0.69296  1.0000 0.1195754464
H   H16       1.0  0.58310  0.12640  0.30704  1.0000 0.1195754464
H   H17       1.0  0.66216  0.96058  0.48806  1.0000 0.1195754464
H   H18       1.0  0.33784  0.03942  0.51194  1.0000 0.1195754464
H   H19       1.0  0.21654  0.71989  0.67288  1.0000 0.1403400922
H   H20       1.0  0.78346  0.28011  0.32712  1.0000 0.1403400922
H   H21       1.0  0.37689  0.05298  0.79555  1.0000 0.1109022805
H   H22       1.0  0.62311  0.94702  0.20445  1.0000 0.1109022805
H   H23       1.0  0.85881  0.23515  0.82770  1.0000 0.1195754464
H   H24       1.0  0.14119  0.76485  0.17230  1.0000 0.1195754464
H   H25       1.0  0.38156  0.50386  0.57304  1.0000 0.1195754464
H   H26       1.0  0.61844  0.49614  0.42696  1.0000 0.1195754464
H   H27       1.0  0.68458  0.54759  0.65587  1.0000 0.1109022805
H   H28       1.0  0.31542  0.45241  0.34413  1.0000 0.1109022805
H   H29       1.0  0.01249  0.58744  0.67726  1.0000 0.1403400922
H   H30       1.0  0.98751  0.41256  0.32274  1.0000 0.1403400922
H   H31       1.0  0.85230  0.23100  0.56047  1.0000 0.1195754464
H   H32       1.0  0.14770  0.76900  0.43953  1.0000 0.1195754464
H   H33       1.0  0.58876  0.64743  0.84659  1.0000 0.1403400922
H   H34       1.0  0.41124  0.35257  0.15341  1.0000 0.1403400922
H   H35       1.0  0.54997  0.18470  0.47709  1.0000 0.1279477337
H   H36       1.0  0.45003  0.81530  0.52291  1.0000 0.1279477337
C   C1        1.0  0.52730  0.89890  0.01380  1.0000 -0.1199823087
C   C2        1.0  0.47270  0.10110  0.98620  1.0000 -0.1199823087
C   C3        1.0  0.31750  0.01840  0.95820  1.0000 -0.0302692792
C   C4        1.0  0.68250  0.98160  0.04180  1.0000 -0.0302692792
C   C5        1.0  0.34760  0.91710  0.97280  1.0000 -0.1111082811
C   C6        1.0  0.65240  0.08290  0.02720  1.0000 -0.1111082811
C   C7        1.0  0.91940  0.98970  0.56840  1.0000 -0.0302692792
C   C8        1.0  0.08060  0.01030  0.43160  1.0000 -0.0302692792
C   C9        1.0  0.87640  0.99010  0.42810  1.0000 -0.1199823087
C   C10       1.0  0.12360  0.00990  0.57190  1.0000 -0.1199823087
C   C11       1.0  0.40750  0.29230  0.77230  1.0000 0.1109022805
C   C12       1.0  0.59250  0.70770  0.22770  1.0000 0.1109022805
C   C13       1.0  0.10380  0.34720  0.69710  1.0000 -0.2190405717
C   C14       1.0  0.89620  0.65280  0.30290  1.0000 -0.2190405717
C   C15       1.0  0.28720  0.37610  0.74500  1.0000 0.2021260569
C   C16       1.0  0.71280  0.62390  0.25500  1.0000 0.2021260569
C   C17       1.0  0.38110  0.66290  0.75660  1.0000 0.0919261584
C   C18       1.0  0.61890  0.33710  0.24340  1.0000 0.0919261584
C   C19       1.0  0.12680  0.03910  0.91200  1.0000 0.5464713732
C   C20       1.0  0.87320  0.96090  0.08800  1.0000 0.5464713732
C   C21       1.0  0.66340  0.78650  0.82450  1.0000 0.0919261584
C   C22       1.0  0.33660  0.21350  0.17550  1.0000 0.0919261584
C   C23       1.0  0.61570  0.30640  0.79310  1.0000 -0.1703852666
C   C24       1.0  0.38430  0.69360  0.20690  1.0000 -0.1703852666
C   C25       1.0  0.32090  0.19520  0.77470  1.0000 -0.1703852666
C   C26       1.0  0.67910  0.80480  0.22530  1.0000 -0.1703852666
C   C27       1.0  0.83040  0.97970  0.63970  1.0000 0.5582192699
C   C28       1.0  0.16960  0.02030  0.36030  1.0000 0.5582192699
C   C29       1.0  0.45170  0.82730  0.72400  1.0000 0.0919261584
C   C30       1.0  0.54830  0.17270  0.27600  1.0000 0.0919261584
C   C31       1.0  0.79800  0.97750  0.49330  1.0000 -0.1111082811
C   C32       1.0  0.20200  0.02250  0.50670  1.0000 -0.1111082811
C   C33       1.0  0.33090  0.73460  0.71140  1.0000 -0.1797646647
C   C34       1.0  0.66910  0.26540  0.28860  1.0000 -0.1797646647
C   C35       1.0  0.43890  0.11700  0.79400  1.0000 0.0995295653
C   C36       1.0  0.56110  0.88300  0.20600  1.0000 0.0995295653
C   C37       1.0  0.72140  0.22390  0.81250  1.0000 0.0797252925
C   C38       1.0  0.27860  0.77610  0.18750  1.0000 0.0797252925
C   C39       1.0  0.80150  0.39430  0.61660  1.0000 0.0797252925
C   C40       1.0  0.19850  0.60570  0.38340  1.0000 0.0797252925
C   C41       1.0  0.47570  0.44880  0.57070  1.0000 -0.1295327051
C   C42       1.0  0.52430  0.55120  0.42930  1.0000 -0.1295327051
C   C43       1.0  0.65770  0.47480  0.61990  1.0000 -0.1460138103
C   C44       1.0  0.34230  0.52520  0.38010  1.0000 -0.1460138103
C   C45       1.0  0.08170  0.53200  0.69260  1.0000 -0.2190405717
C   C46       1.0  0.91830  0.46800  0.30740  1.0000 -0.2190405717
C   C47       1.0  0.75740  0.28580  0.56290  1.0000 -0.1295327051
C   C48       1.0  0.24260  0.71420  0.43710  1.0000 -0.1295327051
C   C49       1.0  0.27140  0.55530  0.73890  1.0000 0.2021260569
C   C50       1.0  0.72860  0.44470  0.26110  1.0000 0.2021260569
C   C51       1.0  0.43350  0.33950  0.51760  1.0000 0.0450807446
C   C52       1.0  0.56650  0.66050  0.48240  1.0000 0.0450807446
C   C53       1.0  0.99840  0.42460  0.67000  1.0000 0.1195754464
C   C54       1.0  0.00160  0.57540  0.33000  1.0000 0.1195754464
C   C55       1.0  0.55080  0.69190  0.81440  1.0000 -0.1797646647
C   C56       1.0  0.44920  0.30810  0.18560  1.0000 -0.1797646647
C   C57       1.0  0.57640  0.25750  0.51310  1.0000 -0.1111082811
C   C58       1.0  0.42360  0.74250  0.48690  1.0000 -0.1111082811
C   C59       1.0  0.24390  0.31470  0.46610  1.0000 0.2600231329
C   C60       1.0  0.75610  0.68530  0.53390  1.0000 0.2600231329
N   N1        1.0  0.61680  0.85340  0.77910  1.0000 -0.2354641995
N   N2        1.0  0.38320  0.14660  0.22090  1.0000 -0.2354641995
N   N3        1.0  0.37300  0.47810  0.76590  1.0000 -0.342302545
N   N4        1.0  0.62700  0.52190  0.23410  1.0000 -0.342302545
N   N5        1.0  0.63760  0.12640  0.81080  1.0000 -0.230282112
N   N6        1.0  0.36240  0.87360  0.18920  1.0000 -0.230282112
N   N7        1.0  0.09470  0.29790  0.42550  1.0000 -0.3572621783
N   N8        1.0  0.90530  0.70210  0.57450  1.0000 -0.3572621783
O   O1        1.0  0.94980  0.99150  0.70660  1.0000 -0.5507341763
O   O2        1.0  0.05020  0.00850  0.29340  1.0000 -0.5507341763
O   O3        1.0  0.00710  0.95460  0.87610  1.0000 -0.5507341763
O   O4        1.0  0.99290  0.04540  0.12390  1.0000 -0.5507341763
O   O5        1.0  0.64560  0.96370  0.63380  1.0000 -0.5712730726
O   O6        1.0  0.35440  0.03630  0.36620  1.0000 -0.5712730726
O   O7        1.0  0.09370  0.13360  0.90650  1.0000 -0.5601096591
O   O8        1.0  0.90630  0.86640  0.09350  1.0000 -0.5601096591
