# DDEC6 charges by PACMAN v1.1 (https://github.com/mtap-research/PACMAN-charge/)
data_2023[Fe][sql]2[ASR]1
_chemical_formula_sum              "Fe4 H52 C72 N12 O16"
_cell_length_a       10.023
_cell_length_b       11.484
_cell_length_c       16.919
_cell_angle_alpha    90
_cell_angle_beta     103.032
_cell_angle_gamma    90

_symmetry_space_group_name_H-M    "P 1"
_symmetry_Int_Tables_number       1

loop_
  _symmetry_equiv_pos_as_xyz
  'x, y, z'

loop_
  _atom_site_type_symbol
  _atom_site_label
  _atom_site_symmetry_multiplicity
  _atom_site_fract_x
  _atom_site_fract_y
  _atom_site_fract_z
  _atom_site_occupancy
  _atom_site_charge
Fe  Fe1       1.0  0.11692  0.23941  0.66929  1.0000 0.8390011899
Fe  Fe2       1.0  0.88308  0.23941  0.83071  1.0000 0.8390011899
Fe  Fe3       1.0  0.88308  0.76059  0.33071  1.0000 0.8390011899
Fe  Fe4       1.0  0.11692  0.76059  0.16929  1.0000 0.8390011899
H   H1        1.0  0.57690  0.24720  0.66600  1.0000 0.1398843043
H   H2        1.0  0.42310  0.24720  0.83400  1.0000 0.1398843043
H   H3        1.0  0.97650  0.02890  0.56700  1.0000 0.1114151624
H   H4        1.0  0.02350  0.02890  0.93300  1.0000 0.1114151624
H   H5        1.0  0.98050  0.82930  0.55950  1.0000 0.1457384788
H   H6        1.0  0.01950  0.82930  0.94050  1.0000 0.1457384788
H   H7        1.0  0.33650  0.15630  0.44840  1.0000 0.121030877
H   H8        1.0  0.66350  0.15630  0.05160  1.0000 0.121030877
H   H9        1.0  0.23720  0.82520  0.78210  1.0000 0.121030877
H   H10       1.0  0.76280  0.82520  0.71790  1.0000 0.121030877
H   H11       1.0  0.74860  0.17330  0.47720  1.0000 0.121030877
H   H12       1.0  0.25140  0.17330  0.02280  1.0000 0.121030877
H   H13       1.0  0.23020  0.02420  0.78230  1.0000 0.1018306973
H   H14       1.0  0.76980  0.02420  0.71770  1.0000 0.1018306973
H   H15       1.0  0.95640  0.45080  0.57470  1.0000 0.1114151624
H   H16       1.0  0.04360  0.45080  0.92530  1.0000 0.1114151624
H   H17       1.0  0.95340  0.65020  0.57290  1.0000 0.1398843043
H   H18       1.0  0.04660  0.65020  0.92710  1.0000 0.1398843043
H   H19       1.0  0.46970  0.07530  0.35060  1.0000 0.269376561
H   H20       1.0  0.53030  0.07530  0.14940  1.0000 0.269376561
H   H21       1.0  0.50530  0.19160  0.33670  1.0000 0.2598356866
H   H22       1.0  0.49470  0.19160  0.16330  1.0000 0.2598356866
H   H23       1.0  0.27250  0.44730  0.75550  1.0000 0.1114151624
H   H24       1.0  0.72750  0.44730  0.74450  1.0000 0.1114151624
H   H25       1.0  0.27430  0.64730  0.76080  1.0000 0.121030877
H   H26       1.0  0.72570  0.64730  0.73920  1.0000 0.121030877
H   H27       1.0  0.42310  0.75280  0.33400  1.0000 0.1398843043
H   H28       1.0  0.57690  0.75280  0.16600  1.0000 0.1398843043
H   H29       1.0  0.02350  0.97110  0.43300  1.0000 0.1114151624
H   H30       1.0  0.97650  0.97110  0.06700  1.0000 0.1114151624
H   H31       1.0  0.01950  0.17070  0.44050  1.0000 0.1457384788
H   H32       1.0  0.98050  0.17070  0.05950  1.0000 0.1457384788
H   H33       1.0  0.66350  0.84370  0.55160  1.0000 0.121030877
H   H34       1.0  0.33650  0.84370  0.94840  1.0000 0.121030877
H   H35       1.0  0.76280  0.17480  0.21790  1.0000 0.121030877
H   H36       1.0  0.23720  0.17480  0.28210  1.0000 0.121030877
H   H37       1.0  0.25140  0.82670  0.52280  1.0000 0.121030877
H   H38       1.0  0.74860  0.82670  0.97720  1.0000 0.121030877
H   H39       1.0  0.76980  0.97580  0.21770  1.0000 0.1018306973
H   H40       1.0  0.23020  0.97580  0.28230  1.0000 0.1018306973
H   H41       1.0  0.04360  0.54920  0.42530  1.0000 0.1114151624
H   H42       1.0  0.95640  0.54920  0.07470  1.0000 0.1114151624
H   H43       1.0  0.04660  0.34980  0.42710  1.0000 0.1398843043
H   H44       1.0  0.95340  0.34980  0.07290  1.0000 0.1398843043
H   H45       1.0  0.53030  0.92470  0.64940  1.0000 0.269376561
H   H46       1.0  0.46970  0.92470  0.85060  1.0000 0.269376561
H   H47       1.0  0.49470  0.80840  0.66330  1.0000 0.2598356866
H   H48       1.0  0.50530  0.80840  0.83670  1.0000 0.2598356866
H   H49       1.0  0.72750  0.55270  0.24450  1.0000 0.1114151624
H   H50       1.0  0.27250  0.55270  0.25550  1.0000 0.1114151624
H   H51       1.0  0.72570  0.35270  0.23920  1.0000 0.121030877
H   H52       1.0  0.27430  0.35270  0.26080  1.0000 0.121030877
C   C1        1.0  0.56790  0.22480  0.61100  1.0000 -0.1576005556
C   C2        1.0  0.43210  0.22480  0.88900  1.0000 -0.1576005556
C   C3        1.0  0.43860  0.20310  0.56220  1.0000 -0.0029153849
C   C4        1.0  0.56140  0.20310  0.93780  1.0000 -0.0029153849
C   C5        1.0  0.82390  0.23440  0.63130  1.0000 0.5675608479
C   C6        1.0  0.17610  0.23440  0.86870  1.0000 0.5675608479
C   C7        1.0  0.68340  0.21380  0.57940  1.0000 -0.0273655821
C   C8        1.0  0.31660  0.21380  0.92060  1.0000 -0.0273655821
C   C9        1.0  0.03190  0.98680  0.61060  1.0000 0.0810495839
C   C10       1.0  0.96810  0.98680  0.88940  1.0000 0.0810495839
C   C11       1.0  0.10960  0.80150  0.66960  1.0000 0.121030877
C   C12       1.0  0.89040  0.80150  0.83040  1.0000 0.1114151624
C   C13       1.0  0.11330  0.67380  0.66740  1.0000 0.1018306973
C   C14       1.0  0.88670  0.67380  0.83260  1.0000 0.1018306973
C   C15       1.0  0.03280  0.86730  0.60620  1.0000 -0.1862624101
C   C16       1.0  0.96720  0.86730  0.89380  1.0000 -0.1862624101
C   C17       1.0  0.42490  0.17020  0.48160  1.0000 -0.234086696
C   C18       1.0  0.57510  0.17020  0.01840  1.0000 -0.234086696
C   C19       1.0  0.31340  0.21820  0.59520  1.0000 0.5449816548
C   C20       1.0  0.68660  0.21820  0.90480  1.0000 0.5449816548
C   C21       1.0  0.18390  0.86510  0.73660  1.0000 -0.2122230567
C   C22       1.0  0.81610  0.86510  0.76340  1.0000 -0.2122230567
C   C23       1.0  0.66930  0.18050  0.49880  1.0000 -0.204865966
C   C24       1.0  0.33070  0.18050  0.00120  1.0000 -0.204865966
C   C25       1.0  0.17920  0.98390  0.73630  1.0000 0.0810495839
C   C26       1.0  0.82080  0.98390  0.76370  1.0000 0.0810495839
C   C27       1.0  0.02410  0.49140  0.61320  1.0000 0.068758782
C   C28       1.0  0.97590  0.49140  0.88680  1.0000 0.068758782
C   C29       1.0  0.54070  0.15760  0.44930  1.0000 0.269376561
C   C30       1.0  0.45930  0.15760  0.05070  1.0000 0.269376561
C   C31       1.0  0.02080  0.61090  0.61230  1.0000 -0.1830553971
C   C32       1.0  0.97920  0.61090  0.88770  1.0000 -0.1830553971
C   C33       1.0  0.20500  0.48860  0.71730  1.0000 0.1018306973
C   C34       1.0  0.79500  0.48860  0.78270  1.0000 0.1018306973
C   C35       1.0  0.20690  0.60910  0.72070  1.0000 -0.2122230567
C   C36       1.0  0.79310  0.60910  0.77930  1.0000 -0.2122230567
C   C37       1.0  0.43210  0.77520  0.38900  1.0000 -0.1576005556
C   C38       1.0  0.56790  0.77520  0.11100  1.0000 -0.1576005556
C   C39       1.0  0.56140  0.79690  0.43780  1.0000 -0.0029153849
C   C40       1.0  0.43860  0.79690  0.06220  1.0000 -0.0029153849
C   C41       1.0  0.17610  0.76560  0.36870  1.0000 0.5675608479
C   C42       1.0  0.82390  0.76560  0.13130  1.0000 0.5675608479
C   C43       1.0  0.31660  0.78620  0.42060  1.0000 -0.0273655821
C   C44       1.0  0.68340  0.78620  0.07940  1.0000 -0.0273655821
C   C45       1.0  0.96810  0.01320  0.38940  1.0000 0.0810495839
C   C46       1.0  0.03190  0.01320  0.11060  1.0000 0.0810495839
C   C47       1.0  0.89040  0.19850  0.33040  1.0000 0.1114151624
C   C48       1.0  0.10960  0.19850  0.16960  1.0000 0.1114151624
C   C49       1.0  0.88670  0.32620  0.33260  1.0000 0.1018306973
C   C50       1.0  0.11330  0.32620  0.16740  1.0000 0.1018306973
C   C51       1.0  0.96720  0.13270  0.39380  1.0000 -0.1862624101
C   C52       1.0  0.03280  0.13270  0.10620  1.0000 -0.1862624101
C   C53       1.0  0.57510  0.82980  0.51840  1.0000 -0.234086696
C   C54       1.0  0.42490  0.82980  0.98160  1.0000 -0.234086696
C   C55       1.0  0.68660  0.78180  0.40480  1.0000 0.5449816548
C   C56       1.0  0.31340  0.78180  0.09520  1.0000 0.5449816548
C   C57       1.0  0.81610  0.13490  0.26340  1.0000 -0.2122230567
C   C58       1.0  0.18390  0.13490  0.23660  1.0000 -0.2122230567
C   C59       1.0  0.33070  0.81950  0.50120  1.0000 -0.204865966
C   C60       1.0  0.66930  0.81950  0.99880  1.0000 -0.204865966
C   C61       1.0  0.82080  0.01610  0.26370  1.0000 0.0810495839
C   C62       1.0  0.17920  0.01610  0.23630  1.0000 0.0810495839
C   C63       1.0  0.97590  0.50860  0.38680  1.0000 0.068758782
C   C64       1.0  0.02410  0.50860  0.11320  1.0000 0.068758782
C   C65       1.0  0.45930  0.84240  0.55070  1.0000 0.269376561
C   C66       1.0  0.54070  0.84240  0.94930  1.0000 0.269376561
C   C67       1.0  0.97920  0.38910  0.38770  1.0000 -0.1830553971
C   C68       1.0  0.02080  0.38910  0.11230  1.0000 -0.1830553971
C   C69       1.0  0.79500  0.51140  0.28270  1.0000 0.1018306973
C   C70       1.0  0.20500  0.51140  0.21730  1.0000 0.1018306973
C   C71       1.0  0.79310  0.39090  0.27930  1.0000 -0.2122230567
C   C72       1.0  0.20690  0.39090  0.22070  1.0000 -0.2122230567
N   N1        1.0  0.10600  0.04740  0.67412  1.0000 -0.2450604476
N   N2        1.0  0.89400  0.04740  0.82588  1.0000 -0.2450604476
N   N3        1.0  0.11670  0.42890  0.66514  1.0000 -0.2211424149
N   N4        1.0  0.88330  0.42890  0.83486  1.0000 -0.2211424149
N   N5        1.0  0.53080  0.13040  0.36750  1.0000 -0.5933079161
N   N6        1.0  0.46920  0.13040  0.13250  1.0000 -0.5933079161
N   N7        1.0  0.89400  0.95260  0.32588  1.0000 -0.2450604476
N   N8        1.0  0.10600  0.95260  0.17412  1.0000 -0.2450604476
N   N9        1.0  0.88330  0.57110  0.33486  1.0000 -0.2211424149
N   N10       1.0  0.11670  0.57110  0.16514  1.0000 -0.2211424149
N   N11       1.0  0.46920  0.86960  0.63250  1.0000 -0.5956314839
N   N12       1.0  0.53080  0.86960  0.86750  1.0000 -0.5956314839
O   O1        1.0  0.32880  0.22730  0.67180  1.0000 -0.5310786553
O   O2        1.0  0.67120  0.22730  0.82820  1.0000 -0.5310786553
O   O3        1.0  0.83740  0.24740  0.70582  1.0000 -0.5503748692
O   O4        1.0  0.16260  0.24740  0.79418  1.0000 -0.5503748692
O   O5        1.0  0.92350  0.23601  0.59669  1.0000 -0.5310786553
O   O6        1.0  0.07650  0.23601  0.90331  1.0000 -0.5310786553
O   O7        1.0  0.19710  0.22210  0.54928  1.0000 -0.5503748692
O   O8        1.0  0.80290  0.22210  0.95072  1.0000 -0.5503748692
O   O9        1.0  0.67120  0.77270  0.32820  1.0000 -0.5310786553
O   O10       1.0  0.32880  0.77270  0.17180  1.0000 -0.5310786553
O   O11       1.0  0.16260  0.75260  0.29418  1.0000 -0.5503748692
O   O12       1.0  0.83740  0.75260  0.20582  1.0000 -0.5503748692
O   O13       1.0  0.07650  0.76399  0.40331  1.0000 -0.5310786553
O   O14       1.0  0.92350  0.76399  0.09669  1.0000 -0.5310786553
O   O15       1.0  0.80290  0.77790  0.45072  1.0000 -0.5503748692
O   O16       1.0  0.19710  0.77790  0.04928  1.0000 -0.5503748692
