# DDEC6 charges by PACMAN v1.1 (https://github.com/mtap-research/PACMAN-charge/)
data_2023[Mg][bpq]3[ASR]1
_chemical_formula_sum              "Mg4 H32 C48 O20"
_cell_length_a       7.2214
_cell_length_b       13.6907
_cell_length_c       16.6606
_cell_angle_alpha    90
_cell_angle_beta     90
_cell_angle_gamma    90

_symmetry_space_group_name_H-M    "P 1"
_symmetry_Int_Tables_number       1

loop_
  _symmetry_equiv_pos_as_xyz
  'x, y, z'

loop_
  _atom_site_type_symbol
  _atom_site_label
  _atom_site_symmetry_multiplicity
  _atom_site_fract_x
  _atom_site_fract_y
  _atom_site_fract_z
  _atom_site_occupancy
  _atom_site_charge
Mg  Mg1       1.0  0.28874  0.26181  0.06436  1.0000 1.3559065703
Mg  Mg2       1.0  0.71126  0.73819  0.56436  1.0000 1.3559065703
Mg  Mg3       1.0  0.78874  0.23819  0.06436  1.0000 1.3559065703
Mg  Mg4       1.0  0.21126  0.76181  0.56436  1.0000 1.3559065703
H   H1        1.0  0.06300  0.11000  0.08500  1.0000 0.3402259666
H   H2        1.0  0.93700  0.89000  0.58500  1.0000 0.3402259666
H   H3        1.0  0.56300  0.39000  0.08500  1.0000 0.3402259666
H   H4        1.0  0.43700  0.61000  0.58500  1.0000 0.3402259666
H   H5        1.0  0.05800  0.14900  0.01400  1.0000 0.3234710935
H   H6        1.0  0.94200  0.85100  0.51400  1.0000 0.3234710935
H   H7        1.0  0.55800  0.35100  0.01400  1.0000 0.3234710935
H   H8        1.0  0.44200  0.64900  0.51400  1.0000 0.3234710935
H   H9        1.0  0.62718  0.95567  0.19577  1.0000 0.1206384406
H   H10       1.0  0.37282  0.04433  0.69577  1.0000 0.1206384406
H   H11       1.0  0.12718  0.54433  0.19577  1.0000 0.1206384406
H   H12       1.0  0.87282  0.45567  0.69577  1.0000 0.1206384406
H   H13       1.0  0.60566  0.84623  0.30352  1.0000 0.1206384406
H   H14       1.0  0.39434  0.15377  0.80352  1.0000 0.1206384406
H   H15       1.0  0.10566  0.65377  0.30352  1.0000 0.1206384406
H   H16       1.0  0.89434  0.34623  0.80352  1.0000 0.1206384406
H   H17       1.0  0.37492  0.24559  0.29361  1.0000 0.1270035598
H   H18       1.0  0.62508  0.75441  0.79361  1.0000 0.1270035598
H   H19       1.0  0.87492  0.25441  0.29361  1.0000 0.1270035598
H   H20       1.0  0.12508  0.74559  0.79361  1.0000 0.1270035598
H   H21       1.0  0.27323  0.29908  0.41801  1.0000 0.1085203914
H   H22       1.0  0.72677  0.70092  0.91801  1.0000 0.1085203914
H   H23       1.0  0.77323  0.20092  0.41801  1.0000 0.1085203914
H   H24       1.0  0.22677  0.79908  0.91801  1.0000 0.1085203914
H   H25       1.0  0.28932  0.19465  0.53014  1.0000 0.1085203914
H   H26       1.0  0.71068  0.80535  0.03014  1.0000 0.1085203914
H   H27       1.0  0.78932  0.30535  0.53014  1.0000 0.1085203914
H   H28       1.0  0.21068  0.69465  0.03014  1.0000 0.1085203914
H   H29       1.0  0.38625  0.03536  0.51630  1.0000 0.1206384406
H   H30       1.0  0.61375  0.96464  0.01630  1.0000 0.1206384406
H   H31       1.0  0.88625  0.46464  0.51630  1.0000 0.1206384406
H   H32       1.0  0.11375  0.53536  0.01630  1.0000 0.1206384406
C   C1        1.0  0.53010  0.13780  0.18000  1.0000 0.6267718467
C   C2        1.0  0.46990  0.86220  0.68000  1.0000 0.6267718467
C   C3        1.0  0.03010  0.36220  0.18000  1.0000 0.6267718467
C   C4        1.0  0.96990  0.63780  0.68000  1.0000 0.6267718467
C   C5        1.0  0.51570  0.07150  0.25235  1.0000 -0.0583892493
C   C6        1.0  0.48430  0.92850  0.75235  1.0000 -0.0583892493
C   C7        1.0  0.01570  0.42850  0.25235  1.0000 -0.0583892493
C   C8        1.0  0.98430  0.57150  0.75235  1.0000 -0.0583892493
C   C9        1.0  0.57670  0.97730  0.24534  1.0000 -0.1107967776
C   C10       1.0  0.42330  0.02270  0.74534  1.0000 -0.1107967776
C   C11       1.0  0.07670  0.52270  0.24534  1.0000 -0.1107967776
C   C12       1.0  0.92330  0.47730  0.74534  1.0000 -0.1107967776
C   C13       1.0  0.56600  0.91190  0.31040  1.0000 -0.1107967776
C   C14       1.0  0.43400  0.08810  0.81040  1.0000 -0.1107967776
C   C15       1.0  0.06600  0.58810  0.31040  1.0000 -0.1107967776
C   C16       1.0  0.93400  0.41190  0.81040  1.0000 -0.1107967776
C   C17       1.0  0.49890  0.94160  0.38350  1.0000 -0.0685183294
C   C18       1.0  0.50110  0.05840  0.88350  1.0000 -0.0685183294
C   C19       1.0  0.99890  0.55840  0.38350  1.0000 -0.0685183294
C   C20       1.0  0.00110  0.44160  0.88350  1.0000 -0.0685183294
C   C21       1.0  0.44130  0.04030  0.39460  1.0000 0.0582067845
C   C22       1.0  0.55870  0.95970  0.89460  1.0000 0.0582067845
C   C23       1.0  0.94130  0.45970  0.39460  1.0000 0.0582067845
C   C24       1.0  0.05870  0.54030  0.89460  1.0000 0.0582067845
C   C25       1.0  0.44370  0.10550  0.32734  1.0000 0.0582067845
C   C26       1.0  0.55630  0.89450  0.82734  1.0000 0.0582067845
C   C27       1.0  0.94370  0.39450  0.32734  1.0000 0.0582067845
C   C28       1.0  0.05630  0.60550  0.82734  1.0000 0.0582067845
C   C29       1.0  0.37800  0.20230  0.33810  1.0000 -0.1289722492
C   C30       1.0  0.62200  0.79770  0.83810  1.0000 -0.1289722492
C   C31       1.0  0.87800  0.29770  0.33810  1.0000 -0.1289722492
C   C32       1.0  0.12200  0.70230  0.83810  1.0000 -0.1289722492
C   C33       1.0  0.31880  0.23440  0.41200  1.0000 -0.0872080886
C   C34       1.0  0.68120  0.76560  0.91200  1.0000 -0.0872080886
C   C35       1.0  0.81880  0.26560  0.41200  1.0000 -0.0872080886
C   C36       1.0  0.18120  0.73440  0.91200  1.0000 -0.0872080886
C   C37       1.0  0.32570  0.17120  0.47880  1.0000 -0.0967344009
C   C38       1.0  0.67430  0.82880  0.97880  1.0000 -0.0967344009
C   C39       1.0  0.82570  0.32880  0.47880  1.0000 -0.0967344009
C   C40       1.0  0.17430  0.67120  0.97880  1.0000 -0.0967344009
C   C41       1.0  0.38390  0.07700  0.47070  1.0000 -0.1399797406
C   C42       1.0  0.61610  0.92300  0.97070  1.0000 -0.1399797406
C   C43       1.0  0.88390  0.42300  0.47070  1.0000 -0.1399797406
C   C44       1.0  0.11610  0.57700  0.97070  1.0000 -0.1399797406
C   C45       1.0  0.48310  0.86750  0.44999  1.0000 0.6236837152
C   C46       1.0  0.51690  0.13250  0.94999  1.0000 0.6236837152
C   C47       1.0  0.98310  0.63250  0.44999  1.0000 0.6236837152
C   C48       1.0  0.01690  0.36750  0.94999  1.0000 0.6236837152
O   O1        1.0  0.38370  0.17435  0.15344  1.0000 -0.6485330519
O   O2        1.0  0.61630  0.82565  0.65344  1.0000 -0.6485330519
O   O3        1.0  0.88370  0.32565  0.15344  1.0000 -0.6485330519
O   O4        1.0  0.11630  0.67435  0.65344  1.0000 -0.6485330519
O   O5        1.0  0.68910  0.14963  0.15220  1.0000 -0.6393494811
O   O6        1.0  0.31090  0.85037  0.65220  1.0000 -0.6393494811
O   O7        1.0  0.18910  0.35037  0.15220  1.0000 -0.6393494811
O   O8        1.0  0.81090  0.64963  0.65220  1.0000 -0.6393494811
O   O9        1.0  0.32340  0.85722  0.48069  1.0000 -0.6485330519
O   O10       1.0  0.67660  0.14278  0.98069  1.0000 -0.6485330519
O   O11       1.0  0.82340  0.64278  0.48069  1.0000 -0.6485330519
O   O12       1.0  0.17660  0.35722  0.98069  1.0000 -0.6485330519
O   O13       1.0  0.62380  0.82033  0.46799  1.0000 -0.6316668746
O   O14       1.0  0.37620  0.17967  0.96799  1.0000 -0.6316668746
O   O15       1.0  0.12380  0.67967  0.46799  1.0000 -0.6316668746
O   O16       1.0  0.87620  0.32033  0.96799  1.0000 -0.6316668746
O   O17       1.0  0.05170  0.16800  0.05640  1.0000 -0.7229543534
O   O18       1.0  0.94830  0.83200  0.55640  1.0000 -0.7229543534
O   O19       1.0  0.55170  0.33200  0.05640  1.0000 -0.7229543534
O   O20       1.0  0.44830  0.66800  0.55640  1.0000 -0.7229543534
