# DDEC6 charges by PACMAN v1.1 (https://github.com/mtap-research/PACMAN-charge/)
data_2023[CuPt][fof]3[ASR]1
_chemical_formula_sum              "Cu6 H18 Pt3 C42 N6 Cl12 O24"
_cell_length_a       15.2543
_cell_length_b       15.2543
_cell_length_c       15.2543
_cell_angle_alpha    75.6159
_cell_angle_beta     75.6159
_cell_angle_gamma    75.6159

_symmetry_space_group_name_H-M    "P 1"
_symmetry_Int_Tables_number       1

loop_
  _symmetry_equiv_pos_as_xyz
  'x, y, z'

loop_
  _atom_site_type_symbol
  _atom_site_label
  _atom_site_symmetry_multiplicity
  _atom_site_fract_x
  _atom_site_fract_y
  _atom_site_fract_z
  _atom_site_occupancy
  _atom_site_charge
Cu  Cu1       1.0  0.01175  0.01175  0.57981  1.0000 0.8796870102
Cu  Cu2       1.0  0.01175  0.57981  0.01175  1.0000 0.8796870102
Cu  Cu3       1.0  0.57981  0.01176  0.01175  1.0000 0.8796870102
Cu  Cu4       1.0  0.98825  0.98825  0.42019  1.0000 0.8796870102
Cu  Cu5       1.0  0.42019  0.98825  0.98825  1.0000 0.8796870102
Cu  Cu6       1.0  0.98824  0.42019  0.98825  1.0000 0.8796870102
H   H1        1.0  0.73249  0.02572  0.73249  1.0000 0.1468975434
H   H2        1.0  0.02572  0.73249  0.73249  1.0000 0.1468975434
H   H3        1.0  0.73249  0.73249  0.02572  1.0000 0.1468975434
H   H4        1.0  0.97428  0.26751  0.26751  1.0000 0.1468975434
H   H5        1.0  0.26751  0.97428  0.26751  1.0000 0.1468975434
H   H6        1.0  0.26751  0.26751  0.97428  1.0000 0.1468975434
H   H7        1.0  0.69684  0.00620  0.48470  1.0000 0.1187766059
H   H8        1.0  0.00620  0.48470  0.69684  1.0000 0.1187766059
H   H9        1.0  0.48470  0.69684  0.00620  1.0000 0.1187766059
H   H10       1.0  0.99380  0.30316  0.51530  1.0000 0.1187766059
H   H11       1.0  0.51530  0.99380  0.30316  1.0000 0.1187766059
H   H12       1.0  0.30316  0.51530  0.99380  1.0000 0.1187766059
H   H13       1.0  0.30316  0.99380  0.51530  1.0000 0.1187766059
H   H14       1.0  0.99380  0.51530  0.30316  1.0000 0.1187766059
H   H15       1.0  0.51530  0.30316  0.99380  1.0000 0.1187766059
H   H16       1.0  0.00620  0.69684  0.48470  1.0000 0.1187766059
H   H17       1.0  0.48470  0.00620  0.69684  1.0000 0.1187766059
H   H18       1.0  0.69684  0.48470  0.00620  1.0000 0.1187766059
Pt  Pt1       1.0  0.50000  0.00000  0.50000  1.0000 0.6806324809
Pt  Pt2       1.0  0.00000  0.50000  0.50000  1.0000 0.6806324809
Pt  Pt3       1.0  0.50000  0.50000  0.00000  1.0000 0.6718081026
C   C1        1.0  0.82850  0.01630  0.56100  1.0000 0.5856273442
C   C2        1.0  0.01630  0.56100  0.82850  1.0000 0.5856273442
C   C3        1.0  0.56100  0.82850  0.01630  1.0000 0.5845224648
C   C4        1.0  0.98370  0.17150  0.43900  1.0000 0.5856273442
C   C5        1.0  0.43900  0.98370  0.17150  1.0000 0.5856273442
C   C6        1.0  0.17150  0.43900  0.98370  1.0000 0.5856273442
C   C7        1.0  0.17150  0.98370  0.43900  1.0000 0.5856273442
C   C8        1.0  0.98370  0.43900  0.17150  1.0000 0.5856273442
C   C9        1.0  0.43900  0.17150  0.98370  1.0000 0.5856273442
C   C10       1.0  0.01630  0.82850  0.56100  1.0000 0.5856273442
C   C11       1.0  0.56100  0.01630  0.82850  1.0000 0.5856273442
C   C12       1.0  0.82850  0.56100  0.01630  1.0000 0.5845224648
C   C13       1.0  0.69415  0.02110  0.69415  1.0000 -0.049524437
C   C14       1.0  0.02110  0.69415  0.69415  1.0000 -0.049524437
C   C15       1.0  0.69415  0.69415  0.02110  1.0000 -0.049524437
C   C16       1.0  0.97890  0.30585  0.30585  1.0000 -0.049524437
C   C17       1.0  0.30585  0.97890  0.30585  1.0000 -0.049524437
C   C18       1.0  0.30585  0.30585  0.97890  1.0000 -0.049524437
C   C19       1.0  0.72880  0.01750  0.60220  1.0000 -0.049524437
C   C20       1.0  0.01750  0.60220  0.72880  1.0000 -0.049524437
C   C21       1.0  0.60220  0.72880  0.01750  1.0000 -0.049524437
C   C22       1.0  0.98250  0.27120  0.39780  1.0000 -0.049524437
C   C23       1.0  0.39780  0.98250  0.27120  1.0000 -0.049524437
C   C24       1.0  0.27120  0.39780  0.98250  1.0000 -0.049524437
C   C25       1.0  0.27120  0.98250  0.39780  1.0000 -0.049524437
C   C26       1.0  0.98250  0.39780  0.27120  1.0000 -0.049524437
C   C27       1.0  0.39780  0.27120  0.98250  1.0000 -0.049524437
C   C28       1.0  0.01750  0.72880  0.60220  1.0000 -0.049524437
C   C29       1.0  0.60220  0.01750  0.72880  1.0000 -0.049524437
C   C30       1.0  0.72880  0.60220  0.01750  1.0000 -0.049524437
C   C31       1.0  0.67210  0.01120  0.54730  1.0000 0.0808300942
C   C32       1.0  0.01120  0.54730  0.67210  1.0000 0.0808300942
C   C33       1.0  0.54730  0.67210  0.01120  1.0000 0.0808300942
C   C34       1.0  0.98880  0.32790  0.45270  1.0000 0.0808300942
C   C35       1.0  0.45270  0.98880  0.32790  1.0000 0.0808300942
C   C36       1.0  0.32790  0.45270  0.98880  1.0000 0.0808300942
C   C37       1.0  0.32790  0.98880  0.45270  1.0000 0.0808300942
C   C38       1.0  0.98880  0.45270  0.32790  1.0000 0.0808300942
C   C39       1.0  0.45270  0.32790  0.98880  1.0000 0.0808300942
C   C40       1.0  0.01120  0.67210  0.54730  1.0000 0.0808300942
C   C41       1.0  0.54730  0.01120  0.67210  1.0000 0.0808300942
C   C42       1.0  0.67210  0.54730  0.01120  1.0000 0.0808300942
N   N1        1.0  0.58200  0.01230  0.58200  1.0000 -0.1260537665
N   N2        1.0  0.01230  0.58200  0.58200  1.0000 -0.1242179682
N   N3        1.0  0.58200  0.58200  0.01230  1.0000 -0.1242179682
N   N4        1.0  0.98770  0.41800  0.41800  1.0000 -0.1260537665
N   N5        1.0  0.41800  0.98770  0.41800  1.0000 -0.1260537665
N   N6        1.0  0.41800  0.41800  0.98770  1.0000 -0.1242179682
Cl  Cl1       1.0  0.54403  0.12493  0.39553  1.0000 -0.2981055514
Cl  Cl2       1.0  0.12493  0.39553  0.54403  1.0000 -0.2981055514
Cl  Cl3       1.0  0.39553  0.54403  0.12493  1.0000 -0.2981055514
Cl  Cl4       1.0  0.87507  0.45597  0.60447  1.0000 -0.2981055514
Cl  Cl5       1.0  0.60447  0.87507  0.45597  1.0000 -0.2981055514
Cl  Cl6       1.0  0.45597  0.60447  0.87507  1.0000 -0.2981055514
Cl  Cl7       1.0  0.45597  0.87507  0.60447  1.0000 -0.2981055514
Cl  Cl8       1.0  0.87507  0.60447  0.45597  1.0000 -0.2981055514
Cl  Cl9       1.0  0.60447  0.45597  0.87507  1.0000 -0.2981055514
Cl  Cl10      1.0  0.12493  0.54403  0.39553  1.0000 -0.2981055514
Cl  Cl11      1.0  0.39553  0.12493  0.54403  1.0000 -0.2981055514
Cl  Cl12      1.0  0.54403  0.39553  0.12493  1.0000 -0.2981055514
O   O1        1.0  0.87764  0.02294  0.61394  1.0000 -0.5219151686
O   O2        1.0  0.02294  0.61394  0.87764  1.0000 -0.5219151686
O   O3        1.0  0.61394  0.87764  0.02294  1.0000 -0.5219151686
O   O4        1.0  0.97706  0.12236  0.38606  1.0000 -0.5219151686
O   O5        1.0  0.38606  0.97706  0.12236  1.0000 -0.5219151686
O   O6        1.0  0.12236  0.38606  0.97706  1.0000 -0.5219151686
O   O7        1.0  0.12236  0.97706  0.38606  1.0000 -0.5219151686
O   O8        1.0  0.97706  0.38606  0.12236  1.0000 -0.5219151686
O   O9        1.0  0.38606  0.12236  0.97706  1.0000 -0.5219151686
O   O10       1.0  0.02294  0.87764  0.61394  1.0000 -0.5219151686
O   O11       1.0  0.61394  0.02294  0.87764  1.0000 -0.5219151686
O   O12       1.0  0.87764  0.61394  0.02294  1.0000 -0.5219151686
O   O13       1.0  0.85732  0.00512  0.47892  1.0000 -0.5108896207
O   O14       1.0  0.00512  0.47892  0.85732  1.0000 -0.5108896207
O   O15       1.0  0.47892  0.85732  0.00512  1.0000 -0.5108896207
O   O16       1.0  0.99488  0.14268  0.52108  1.0000 -0.5108896207
O   O17       1.0  0.52108  0.99488  0.14268  1.0000 -0.5108896207
O   O18       1.0  0.14268  0.52108  0.99488  1.0000 -0.5108896207
O   O19       1.0  0.14268  0.99488  0.52108  1.0000 -0.5108896207
O   O20       1.0  0.99488  0.52108  0.14268  1.0000 -0.5108896207
O   O21       1.0  0.52108  0.14268  0.99488  1.0000 -0.5108896207
O   O22       1.0  0.00512  0.85732  0.47892  1.0000 -0.5108896207
O   O23       1.0  0.47892  0.00512  0.85732  1.0000 -0.5108896207
O   O24       1.0  0.85732  0.47892  0.00512  1.0000 -0.5108896207
