# DDEC6 charges by PACMAN v1.1 (https://github.com/mtap-research/PACMAN-charge/)
data_2023[Co][nia]3[ASR]1
_chemical_formula_sum              "Co3 P6 H64 C60 O18"
_cell_length_a       8.6071
_cell_length_b       16.0405
_cell_length_c       16.5237
_cell_angle_alpha    114.661
_cell_angle_beta     90.95
_cell_angle_gamma    105.16

_symmetry_space_group_name_H-M    "P 1"
_symmetry_Int_Tables_number       1

loop_
  _symmetry_equiv_pos_as_xyz
  'x, y, z'

loop_
  _atom_site_type_symbol
  _atom_site_label
  _atom_site_symmetry_multiplicity
  _atom_site_fract_x
  _atom_site_fract_y
  _atom_site_fract_z
  _atom_site_occupancy
  _atom_site_charge
Co  Co1       1.0  0.50000  0.00000  0.00000  1.0000 1.1457598281
Co  Co2       1.0  0.06233  0.09211  0.03467  1.0000 0.5128661466
Co  Co3       1.0  0.93767  0.90789  0.96533  1.0000 0.5128661466
P   P1        1.0  0.23001  0.01603  0.13491  1.0000 1.2194745016
P   P2        1.0  0.76999  0.98397  0.86509  1.0000 1.2194745016
P   P3        1.0  0.37440  0.15944  0.96043  1.0000 1.2194745016
P   P4        1.0  0.62560  0.84056  0.03957  1.0000 1.2194745016
P   P5        1.0  0.19916  0.83172  0.84929  1.0000 1.2263458443
P   P6        1.0  0.80084  0.16828  0.15071  1.0000 1.2263458443
H   H1        1.0  0.32287  0.91329  0.13138  1.0000 0.3798340035
H   H2        1.0  0.67713  0.08671  0.86862  1.0000 0.3798340035
H   H3        1.0  0.12839  0.11193  0.96037  1.0000 0.2949300778
H   H4        1.0  0.87161  0.88807  0.03963  1.0000 0.2952759933
H   H5        1.0  0.57349  0.20809  0.04770  1.0000 0.3701473471
H   H6        1.0  0.42651  0.79191  0.95230  1.0000 0.3701473471
H   H7        1.0  0.27987  0.95296  0.83686  1.0000 0.3701473471
H   H8        1.0  0.72013  0.04704  0.16314  1.0000 0.3701473471
H   H9        1.0  0.31744  0.19131  0.57319  1.0000 0.1202092457
H   H10       1.0  0.68256  0.80869  0.42681  1.0000 0.1202092457
H   H11       1.0  0.28725  0.43862  0.77278  1.0000 0.1202092457
H   H12       1.0  0.71275  0.56138  0.22722  1.0000 0.1202092457
H   H13       1.0  0.24574  0.40078  0.51489  1.0000 0.1202092457
H   H14       1.0  0.75426  0.59922  0.48511  1.0000 0.1202092457
H   H15       1.0  0.48760  0.13058  0.27775  1.0000 0.1202092457
H   H16       1.0  0.51240  0.86942  0.72225  1.0000 0.1202092457
H   H17       1.0  0.00088  0.07698  0.25428  1.0000 0.1202092457
H   H18       1.0  0.99912  0.92302  0.74572  1.0000 0.1202092457
H   H19       1.0  0.58530  0.32378  0.48744  1.0000 0.1327161414
H   H20       1.0  0.41470  0.67622  0.51256  1.0000 0.1327161414
H   H21       1.0  0.65850  0.25254  0.40860  1.0000 0.1400651556
H   H22       1.0  0.34150  0.74746  0.59140  1.0000 0.1400651556
H   H23       1.0  0.59310  0.22499  0.48698  1.0000 0.1400651556
H   H24       1.0  0.40690  0.77501  0.51302  1.0000 0.1400651556
H   H25       1.0  0.96276  0.19058  0.47554  1.0000 0.1327161414
H   H26       1.0  0.03724  0.80942  0.52446  1.0000 0.1327161414
H   H27       1.0  0.86783  0.14613  0.37582  1.0000 0.1492613837
H   H28       1.0  0.13217  0.85387  0.62418  1.0000 0.1492613837
H   H29       1.0  0.96306  0.25834  0.42675  1.0000 0.1327161414
H   H30       1.0  0.03694  0.74166  0.57325  1.0000 0.1327161414
H   H31       1.0  0.59764  0.25001  0.87392  1.0000 0.1202092457
H   H32       1.0  0.40236  0.74999  0.12608  1.0000 0.1202092457
H   H33       1.0  0.11202  0.17270  0.86664  1.0000 0.1202092457
H   H34       1.0  0.88798  0.82730  0.13336  1.0000 0.1202092457
H   H35       1.0  0.64668  0.27506  0.69942  1.0000 0.1327161414
H   H36       1.0  0.35332  0.72494  0.30058  1.0000 0.1327161414
H   H37       1.0  0.72232  0.34517  0.80225  1.0000 0.1400651556
H   H38       1.0  0.27768  0.65483  0.19775  1.0000 0.1400651556
H   H39       1.0  0.61413  0.37732  0.74759  1.0000 0.1327161414
H   H40       1.0  0.38587  0.62268  0.25241  1.0000 0.1327161414
H   H41       1.0  0.01682  0.29728  0.76956  1.0000 0.1327161414
H   H42       1.0  0.98318  0.70272  0.23044  1.0000 0.1327161414
H   H43       1.0  0.93926  0.19989  0.77860  1.0000 0.1400651556
H   H44       1.0  0.06074  0.80011  0.22140  1.0000 0.1400651556
H   H45       1.0  0.99612  0.19579  0.68564  1.0000 0.1327161414
H   H46       1.0  0.00388  0.80421  0.31436  1.0000 0.1327161414
H   H47       1.0  0.45812  0.75801  0.79341  1.0000 0.1202092457
H   H48       1.0  0.54188  0.24199  0.20659  1.0000 0.1202092457
H   H49       1.0  0.96980  0.64441  0.73555  1.0000 0.1202092457
H   H50       1.0  0.03020  0.35559  0.26445  1.0000 0.1202092457
H   H51       1.0  0.63291  0.66421  0.76004  1.0000 0.1492613837
H   H52       1.0  0.36709  0.33579  0.23996  1.0000 0.1492613837
H   H53       1.0  0.58067  0.59110  0.65570  1.0000 0.1400651556
H   H54       1.0  0.41933  0.40890  0.34430  1.0000 0.1400651556
H   H55       1.0  0.56156  0.55137  0.73032  1.0000 0.1327161414
H   H56       1.0  0.43844  0.44863  0.26968  1.0000 0.1327161414
H   H57       1.0  0.84334  0.48005  0.65973  1.0000 0.1400651556
H   H58       1.0  0.15666  0.51995  0.34027  1.0000 0.1400651556
H   H59       1.0  0.94328  0.41250  0.66910  1.0000 0.1400651556
H   H60       1.0  0.05672  0.58750  0.33090  1.0000 0.1400651556
H   H61       1.0  0.93804  0.42867  0.57997  1.0000 0.1400651556
H   H62       1.0  0.06196  0.57133  0.42003  1.0000 0.1400651556
H   H63       1.0  0.00986  0.88136  0.90124  1.0000 0.2057741803
H   H64       1.0  0.99014  0.11864  0.09876  1.0000 0.2057741803
C   C1        1.0  0.28000  0.28580  0.52950  1.0000 0.0932672095
C   C2        1.0  0.72000  0.71420  0.47050  1.0000 0.0932672095
C   C3        1.0  0.30310  0.25310  0.59250  1.0000 -0.218295874
C   C4        1.0  0.69690  0.74690  0.40750  1.0000 -0.218295874
C   C5        1.0  0.30570  0.30910  0.68400  1.0000 0.0932672095
C   C6        1.0  0.69430  0.69090  0.31600  1.0000 0.0932672095
C   C7        1.0  0.28660  0.40000  0.71080  1.0000 -0.218295874
C   C8        1.0  0.71340  0.60000  0.28920  1.0000 -0.218295874
C   C9        1.0  0.26670  0.43530  0.64900  1.0000 0.0932672095
C   C10       1.0  0.73330  0.56470  0.35100  1.0000 0.0932672095
C   C11       1.0  0.26170  0.37780  0.55790  1.0000 -0.213243383
C   C12       1.0  0.73830  0.62220  0.44210  1.0000 -0.213243383
C   C13       1.0  0.26820  0.22120  0.43130  1.0000 -0.0702345039
C   C14       1.0  0.73180  0.77880  0.56870  1.0000 -0.0702345039
C   C15       1.0  0.40960  0.20650  0.39470  1.0000 0.1492613837
C   C16       1.0  0.59040  0.79350  0.60530  1.0000 0.1492613837
C   C17       1.0  0.39290  0.14140  0.30380  1.0000 -0.1705081056
C   C18       1.0  0.60710  0.85860  0.69620  1.0000 -0.1705081056
C   C19       1.0  0.24140  0.09250  0.25080  1.0000 -0.1934186745
C   C20       1.0  0.75860  0.90750  0.74920  1.0000 -0.1934186745
C   C21       1.0  0.10500  0.11000  0.28970  1.0000 -0.1705081056
C   C22       1.0  0.89500  0.89000  0.71030  1.0000 -0.1705081056
C   C23       1.0  0.11620  0.17440  0.37930  1.0000 0.1492613837
C   C24       1.0  0.88380  0.82560  0.62070  1.0000 0.1492613837
C   C25       1.0  0.57610  0.25630  0.44920  1.0000 -0.478243022
C   C26       1.0  0.42390  0.74370  0.55080  1.0000 -0.478243022
C   C27       1.0  0.96400  0.19410  0.41770  1.0000 -0.478243022
C   C28       1.0  0.03600  0.80590  0.58230  1.0000 -0.4744312692
C   C29       1.0  0.32470  0.27140  0.75150  1.0000 -0.0550455864
C   C30       1.0  0.67530  0.72860  0.24850  1.0000 -0.0550455864
C   C31       1.0  0.47880  0.27830  0.78600  1.0000 0.1327161414
C   C32       1.0  0.52120  0.72170  0.21400  1.0000 0.1327161414
C   C33       1.0  0.49280  0.24470  0.84960  1.0000 -0.1591841134
C   C34       1.0  0.50720  0.75530  0.15040  1.0000 -0.1591841134
C   C35       1.0  0.35510  0.20310  0.87860  1.0000 -0.213243383
C   C36       1.0  0.64490  0.79690  0.12140  1.0000 -0.218295874
C   C37       1.0  0.20560  0.19920  0.84570  1.0000 -0.1705081056
C   C38       1.0  0.79440  0.80080  0.15430  1.0000 -0.1705081056
C   C39       1.0  0.18670  0.23310  0.78220  1.0000 0.1492613837
C   C40       1.0  0.81330  0.76690  0.21780  1.0000 0.1492613837
C   C41       1.0  0.62840  0.32280  0.75620  1.0000 -0.4611439112
C   C42       1.0  0.37160  0.67720  0.24380  1.0000 -0.4611439112
C   C43       1.0  0.02030  0.23140  0.75130  1.0000 -0.4611439112
C   C44       1.0  0.97970  0.76860  0.24870  1.0000 -0.4611439112
C   C45       1.0  0.24620  0.53330  0.68370  1.0000 -0.0702345039
C   C46       1.0  0.75380  0.46670  0.31630  1.0000 -0.0702345039
C   C47       1.0  0.38600  0.61370  0.72230  1.0000 0.1492613837
C   C48       1.0  0.61400  0.38630  0.27770  1.0000 0.1492613837
C   C49       1.0  0.36500  0.70330  0.76740  1.0000 -0.1591841134
C   C50       1.0  0.63500  0.29670  0.23260  1.0000 -0.1591841134
C   C51       1.0  0.21240  0.71560  0.77570  1.0000 -0.1849842894
C   C52       1.0  0.78760  0.28440  0.22430  1.0000 -0.1849842894
C   C53       1.0  0.07510  0.63600  0.73320  1.0000 -0.1705081056
C   C54       1.0  0.92490  0.36400  0.26680  1.0000 -0.1705081056
C   C55       1.0  0.09190  0.54530  0.68800  1.0000 0.1327161414
C   C56       1.0  0.90810  0.45470  0.31200  1.0000 0.1327161414
C   C57       1.0  0.55500  0.60430  0.71660  1.0000 -0.4744312692
C   C58       1.0  0.44500  0.39570  0.28340  1.0000 -0.4744312692
C   C59       1.0  0.94060  0.45890  0.64540  1.0000 -0.478243022
C   C60       1.0  0.05940  0.54110  0.35460  1.0000 -0.478243022
O   O1        1.0  0.37600  0.05570  0.10010  1.0000 -0.7664474177
O   O2        1.0  0.62400  0.94430  0.89990  1.0000 -0.7664474177
O   O3        1.0  0.06940  0.00450  0.08680  1.0000 -0.7154340672
O   O4        1.0  0.93060  0.99550  0.91320  1.0000 -0.7154340672
O   O5        1.0  0.22890  0.91520  0.12760  1.0000 -0.5821683335
O   O6        1.0  0.77110  0.08480  0.87240  1.0000 -0.5821683335
O   O7        1.0  0.21970  0.15860  0.00430  1.0000 -0.4920442032
O   O8        1.0  0.78030  0.84140  0.99570  1.0000 -0.4920442032
O   O9        1.0  0.52080  0.23530  0.03100  1.0000 -0.5591081309
O   O10       1.0  0.47920  0.76470  0.96900  1.0000 -0.5591081309
O   O11       1.0  0.41100  0.06530  0.92120  1.0000 -0.7638680863
O   O12       1.0  0.58900  0.93470  0.07880  1.0000 -0.7638680863
O   O13       1.0  0.02200  0.82010  0.86200  1.0000 -0.5821683335
O   O14       1.0  0.97800  0.17990  0.13800  1.0000 -0.5821683335
O   O15       1.0  0.31050  0.86970  0.93590  1.0000 -0.7496818233
O   O16       1.0  0.68950  0.13030  0.06410  1.0000 -0.7496818233
O   O17       1.0  0.25370  0.89630  0.80000  1.0000 -0.5965969789
O   O18       1.0  0.74630  0.10370  0.20000  1.0000 -0.5965969789
