# DDEC6 charges by PACMAN v1.1 (https://github.com/mtap-research/PACMAN-charge/)
data_2023[Zn][kgd]2[ASR]1
_chemical_formula_sum              "Zn1 H30 C60 N30 O12"
_cell_length_a       14.5214
_cell_length_b       14.5214
_cell_length_c       14.5214
_cell_angle_alpha    77.5834
_cell_angle_beta     77.5834
_cell_angle_gamma    77.5834

_symmetry_space_group_name_H-M    "P 1"
_symmetry_Int_Tables_number       1

loop_
  _symmetry_equiv_pos_as_xyz
  'x, y, z'

loop_
  _atom_site_type_symbol
  _atom_site_label
  _atom_site_symmetry_multiplicity
  _atom_site_fract_x
  _atom_site_fract_y
  _atom_site_fract_z
  _atom_site_occupancy
  _atom_site_charge
Zn  Zn1       1.0  0.50000  0.50000  0.50000  1.0000 0.6195388969
H   H1        1.0  0.40857  0.70956  0.38786  1.0000 0.1173166904
H   H2        1.0  0.70956  0.38786  0.40857  1.0000 0.1173166904
H   H3        1.0  0.38786  0.40857  0.70956  1.0000 0.1173166904
H   H4        1.0  0.59143  0.29044  0.61214  1.0000 0.1173166904
H   H5        1.0  0.29044  0.61214  0.59143  1.0000 0.1173166904
H   H6        1.0  0.61214  0.59143  0.29044  1.0000 0.1173166904
H   H7        1.0  0.20490  0.25703  0.45022  1.0000 0.1612654265
H   H8        1.0  0.25703  0.45022  0.20490  1.0000 0.1612654265
H   H9        1.0  0.45022  0.20490  0.25703  1.0000 0.1612654265
H   H10       1.0  0.79510  0.74297  0.54978  1.0000 0.1612654265
H   H11       1.0  0.74297  0.54978  0.79510  1.0000 0.1612654265
H   H12       1.0  0.54978  0.79510  0.74297  1.0000 0.1612654265
H   H13       1.0  0.50099  0.66667  0.63382  1.0000 0.1173166904
H   H14       1.0  0.66667  0.63382  0.50099  1.0000 0.1173166904
H   H15       1.0  0.63382  0.50099  0.66667  1.0000 0.1173166904
H   H16       1.0  0.49901  0.33339  0.36618  1.0000 0.1173166904
H   H17       1.0  0.33339  0.36618  0.49901  1.0000 0.1173166904
H   H18       1.0  0.36618  0.49901  0.33339  1.0000 0.1173166904
H   H19       1.0  0.44850  0.84061  0.58975  1.0000 0.1428223934
H   H20       1.0  0.84061  0.58975  0.44850  1.0000 0.1428223934
H   H21       1.0  0.58975  0.44850  0.84061  1.0000 0.1428223934
H   H22       1.0  0.55150  0.15939  0.41025  1.0000 0.1428223934
H   H23       1.0  0.15939  0.41025  0.55150  1.0000 0.1428223934
H   H24       1.0  0.41025  0.55150  0.15939  1.0000 0.1428223934
H   H25       1.0  0.08246  0.07713  0.30284  1.0000 0.1670249339
H   H26       1.0  0.07713  0.30284  0.08246  1.0000 0.1670249339
H   H27       1.0  0.30284  0.08246  0.07713  1.0000 0.1670249339
H   H28       1.0  0.91754  0.92287  0.69716  1.0000 0.1670249339
H   H29       1.0  0.92287  0.69716  0.91754  1.0000 0.1670249339
H   H30       1.0  0.69716  0.91754  0.92287  1.0000 0.1670249339
C   C1        1.0  0.32961  0.21921  0.36131  1.0000 0.2729734247
C   C2        1.0  0.21921  0.36131  0.32961  1.0000 0.2729734247
C   C3        1.0  0.36131  0.32961  0.21921  1.0000 0.2729734247
C   C4        1.0  0.67039  0.78079  0.63869  1.0000 0.2729734247
C   C5        1.0  0.78079  0.63869  0.67039  1.0000 0.2729734247
C   C6        1.0  0.63869  0.67039  0.78079  1.0000 0.2729734247
C   C7        1.0  0.42587  0.71997  0.44377  1.0000 0.1055783628
C   C8        1.0  0.71997  0.44377  0.42587  1.0000 0.1055783628
C   C9        1.0  0.44377  0.42587  0.71997  1.0000 0.1055783628
C   C10       1.0  0.57413  0.28003  0.55623  1.0000 0.1055783628
C   C11       1.0  0.28003  0.55623  0.57413  1.0000 0.1055783628
C   C12       1.0  0.55623  0.57413  0.28003  1.0000 0.1055783628
C   C13       1.0  0.24480  0.27540  0.39080  1.0000 -0.3044909501
C   C14       1.0  0.27540  0.39080  0.24480  1.0000 -0.3044909501
C   C15       1.0  0.39080  0.24480  0.27540  1.0000 -0.3044909501
C   C16       1.0  0.75520  0.72460  0.60920  1.0000 -0.3044909501
C   C17       1.0  0.72460  0.60920  0.75520  1.0000 -0.3044909501
C   C18       1.0  0.60920  0.75520  0.72460  1.0000 -0.3044909501
C   C19       1.0  0.47606  0.69796  0.57756  1.0000 -0.0451995682
C   C20       1.0  0.69796  0.57756  0.47606  1.0000 -0.0451995682
C   C21       1.0  0.57756  0.47606  0.69796  1.0000 -0.0451995682
C   C22       1.0  0.52394  0.30204  0.42244  1.0000 -0.0451995682
C   C23       1.0  0.30204  0.42244  0.52394  1.0000 -0.0451995682
C   C24       1.0  0.42244  0.52394  0.30204  1.0000 -0.0451995682
C   C25       1.0  0.29302  0.97802  0.30702  1.0000 0.545298868
C   C26       1.0  0.97802  0.30702  0.29302  1.0000 0.545298868
C   C27       1.0  0.30702  0.29302  0.97802  1.0000 0.545298868
C   C28       1.0  0.70698  0.02198  0.69298  1.0000 0.545298868
C   C29       1.0  0.02198  0.69298  0.70698  1.0000 0.545298868
C   C30       1.0  0.69298  0.70698  0.02198  1.0000 0.545298868
C   C31       1.0  0.37364  0.89544  0.41944  1.0000 0.4443209406
C   C32       1.0  0.89544  0.41944  0.37364  1.0000 0.4443209406
C   C33       1.0  0.41944  0.37364  0.89544  1.0000 0.4443209406
C   C34       1.0  0.62636  0.10456  0.58056  1.0000 0.4443209406
C   C35       1.0  0.10456  0.58056  0.62636  1.0000 0.4443209406
C   C36       1.0  0.58056  0.62636  0.10456  1.0000 0.4443209406
C   C37       1.0  0.34728  0.05228  0.39648  1.0000 0.5326753791
C   C38       1.0  0.05228  0.39648  0.34728  1.0000 0.5326753791
C   C39       1.0  0.39648  0.34728  0.05228  1.0000 0.5326753791
C   C40       1.0  0.65272  0.94772  0.60352  1.0000 0.5326753791
C   C41       1.0  0.94772  0.60352  0.65272  1.0000 0.5326753791
C   C42       1.0  0.60352  0.65272  0.94772  1.0000 0.5326753791
C   C43       1.0  0.44684  0.79314  0.55444  1.0000 -0.0916478549
C   C44       1.0  0.79314  0.55444  0.44684  1.0000 -0.0916478549
C   C45       1.0  0.55444  0.44684  0.79314  1.0000 -0.0916478549
C   C46       1.0  0.55316  0.20686  0.44556  1.0000 -0.0916478549
C   C47       1.0  0.20686  0.44556  0.55316  1.0000 -0.0916478549
C   C48       1.0  0.44556  0.55316  0.20686  1.0000 -0.0916478549
C   C49       1.0  0.11146  0.10836  0.24256  1.0000 -0.2935499911
C   C50       1.0  0.10836  0.24256  0.11146  1.0000 -0.2935499911
C   C51       1.0  0.24256  0.11146  0.10836  1.0000 -0.2935499911
C   C52       1.0  0.88854  0.89164  0.75744  1.0000 -0.2935499911
C   C53       1.0  0.89164  0.75744  0.88854  1.0000 -0.2935499911
C   C54       1.0  0.75744  0.88854  0.89164  1.0000 -0.2935499911
C   C55       1.0  0.19856  0.06846  0.19536  1.0000 0.2646625574
C   C56       1.0  0.06846  0.19536  0.19856  1.0000 0.2646625574
C   C57       1.0  0.19536  0.19856  0.06846  1.0000 0.2646625574
C   C58       1.0  0.80144  0.93154  0.80464  1.0000 0.2646625574
C   C59       1.0  0.93154  0.80464  0.80144  1.0000 0.2646625574
C   C60       1.0  0.80464  0.80144  0.93154  1.0000 0.2729734247
N   N1        1.0  0.46414  0.65204  0.50664  1.0000 -0.2774452631
N   N2        1.0  0.65204  0.50664  0.46414  1.0000 -0.2774452631
N   N3        1.0  0.50664  0.46414  0.65204  1.0000 -0.2774452631
N   N4        1.0  0.53586  0.34796  0.49336  1.0000 -0.2774452631
N   N5        1.0  0.34796  0.49336  0.53586  1.0000 -0.2774452631
N   N6        1.0  0.49336  0.53586  0.34796  1.0000 -0.2774452631
N   N7        1.0  0.30126  0.06186  0.32426  1.0000 -0.4853439593
N   N8        1.0  0.06186  0.32426  0.30126  1.0000 -0.4853439593
N   N9        1.0  0.32426  0.30126  0.06186  1.0000 -0.4853439593
N   N10       1.0  0.69874  0.93814  0.67574  1.0000 -0.4853439593
N   N11       1.0  0.93814  0.67574  0.69874  1.0000 -0.4853439593
N   N12       1.0  0.67574  0.69874  0.93814  1.0000 -0.4853439593
N   N13       1.0  0.38393  0.97243  0.44883  1.0000 -0.4736626013
N   N14       1.0  0.97243  0.44883  0.38393  1.0000 -0.4736626013
N   N15       1.0  0.44883  0.38393  0.97243  1.0000 -0.4736626013
N   N16       1.0  0.61607  0.02757  0.55117  1.0000 -0.4736626013
N   N17       1.0  0.02757  0.55117  0.61607  1.0000 -0.4736626013
N   N18       1.0  0.55117  0.61607  0.02757  1.0000 -0.4736626013
N   N19       1.0  0.41397  0.80797  0.46907  1.0000 -0.02436764
N   N20       1.0  0.80797  0.46907  0.41397  1.0000 -0.02436764
N   N21       1.0  0.46907  0.41397  0.80797  1.0000 -0.02436764
N   N22       1.0  0.58603  0.19203  0.53093  1.0000 -0.02436764
N   N23       1.0  0.19203  0.53093  0.58603  1.0000 -0.02436764
N   N24       1.0  0.53093  0.58603  0.19203  1.0000 -0.02436764
N   N25       1.0  0.33061  0.89071  0.34921  1.0000 -0.5100086395
N   N26       1.0  0.89071  0.34921  0.33061  1.0000 -0.5100086395
N   N27       1.0  0.34921  0.33061  0.89071  1.0000 -0.5100086395
N   N28       1.0  0.66939  0.10929  0.65079  1.0000 -0.5100086395
N   N29       1.0  0.10929  0.65079  0.66939  1.0000 -0.5100086395
N   N30       1.0  0.65079  0.66939  0.10929  1.0000 -0.5100086395
O   O1        1.0  0.35826  0.13256  0.42156  1.0000 -0.2332940016
O   O2        1.0  0.13256  0.42156  0.35826  1.0000 -0.2332940016
O   O3        1.0  0.42156  0.35826  0.13256  1.0000 -0.2332940016
O   O4        1.0  0.64174  0.86744  0.57844  1.0000 -0.2332940016
O   O5        1.0  0.86744  0.57844  0.64174  1.0000 -0.2332940016
O   O6        1.0  0.57844  0.64174  0.86744  1.0000 -0.2332940016
O   O7        1.0  0.24527  0.97777  0.23787  1.0000 -0.2368868256
O   O8        1.0  0.97777  0.23787  0.24527  1.0000 -0.2368868256
O   O9        1.0  0.23787  0.24527  0.97777  1.0000 -0.2368868256
O   O10       1.0  0.75473  0.02223  0.76213  1.0000 -0.2368868256
O   O11       1.0  0.02223  0.76213  0.75473  1.0000 -0.2368868256
O   O12       1.0  0.76213  0.75473  0.02223  1.0000 -0.2368868256
