# DDEC6 charges by PACMAN v1.1 (https://github.com/mtap-research/PACMAN-charge/)
data_2023[Zn][ant]3[ASR]1
_chemical_formula_sum              "Zn16 H120 C216 O52"
_cell_length_a       19.3678
_cell_length_b       19.3678
_cell_length_c       32.103
_cell_angle_alpha    73.093
_cell_angle_beta     106.907
_cell_angle_gamma    88.1235

_symmetry_space_group_name_H-M    "P 1"
_symmetry_Int_Tables_number       1

loop_
  _symmetry_equiv_pos_as_xyz
  'x, y, z'

loop_
  _atom_site_type_symbol
  _atom_site_label
  _atom_site_symmetry_multiplicity
  _atom_site_fract_x
  _atom_site_fract_y
  _atom_site_fract_z
  _atom_site_occupancy
  _atom_site_charge
Zn  Zn1       1.0  0.81870  0.89088  0.85516  1.0000 0.9709452192
Zn  Zn2       1.0  0.10912  0.18130  0.35516  1.0000 0.9709452192
Zn  Zn3       1.0  0.89451  0.95791  0.93311  1.0000 0.9243378142
Zn  Zn4       1.0  0.04209  0.10549  0.43311  1.0000 0.9243378142
Zn  Zn5       1.0  0.74788  0.04014  0.85913  1.0000 0.9243378142
Zn  Zn6       1.0  0.95986  0.25212  0.35913  1.0000 0.9243378142
Zn  Zn7       1.0  0.74826  0.89206  0.93301  1.0000 0.9417094836
Zn  Zn8       1.0  0.10794  0.25174  0.43301  1.0000 0.9417094836
Zn  Zn9       1.0  0.89088  0.81870  0.64484  1.0000 0.9709452192
Zn  Zn10      1.0  0.18130  0.10912  0.14484  1.0000 0.9709452192
Zn  Zn11      1.0  0.95791  0.89451  0.56689  1.0000 0.9243378142
Zn  Zn12      1.0  0.10549  0.04209  0.06689  1.0000 0.9243378142
Zn  Zn13      1.0  0.04014  0.74788  0.64087  1.0000 0.9243378142
Zn  Zn14      1.0  0.25212  0.95986  0.14087  1.0000 0.9243378142
Zn  Zn15      1.0  0.89206  0.74826  0.56699  1.0000 0.9417094836
Zn  Zn16      1.0  0.25174  0.10794  0.06699  1.0000 0.9417094836
H   H1        1.0  0.27570  0.97170  0.84090  1.0000 0.1140963103
H   H2        1.0  0.02830  0.72430  0.34090  1.0000 0.1140963103
H   H3        1.0  0.31690  0.05090  0.72320  1.0000 0.1140963103
H   H4        1.0  0.94910  0.68310  0.22320  1.0000 0.1140963103
H   H5        1.0  0.11520  0.01880  0.72200  1.0000 0.1140963103
H   H6        1.0  0.98120  0.88480  0.22200  1.0000 0.1140963103
H   H7        1.0  0.06630  0.93070  0.76660  1.0000 0.119684291
H   H8        1.0  0.06930  0.93370  0.26660  1.0000 0.119684291
H   H9        1.0  0.98320  0.90280  0.80350  1.0000 0.119684291
H   H10       1.0  0.09720  0.01680  0.30350  1.0000 0.119684291
H   H11       1.0  0.09550  0.98130  0.90150  1.0000 0.119684291
H   H12       1.0  0.01870  0.90450  0.40150  1.0000 0.119684291
H   H13       1.0  0.18140  0.00700  0.86560  1.0000 0.119684291
H   H14       1.0  0.99300  0.81860  0.36560  1.0000 0.119684291
H   H15       1.0  0.39620  0.91240  0.86330  1.0000 0.119684291
H   H16       1.0  0.08760  0.60380  0.36330  1.0000 0.119684291
H   H17       1.0  0.51500  0.90800  0.90060  1.0000 0.119684291
H   H18       1.0  0.09200  0.48500  0.40060  1.0000 0.1269562641
H   H19       1.0  0.52960  0.08880  0.80550  1.0000 0.1269562641
H   H20       1.0  0.91120  0.47040  0.30550  1.0000 0.1269562641
H   H21       1.0  0.40950  0.09610  0.76850  1.0000 0.119684291
H   H22       1.0  0.90390  0.59050  0.26850  1.0000 0.119684291
H   H23       1.0  0.23430  0.15690  0.65500  1.0000 0.119684291
H   H24       1.0  0.84310  0.76570  0.15500  1.0000 0.119684291
H   H25       1.0  0.19110  0.19650  0.57590  1.0000 0.119684291
H   H26       1.0  0.80350  0.80890  0.07590  1.0000 0.119684291
H   H27       1.0  0.10020  0.01400  0.57530  1.0000 0.119684291
H   H28       1.0  0.98600  0.89980  0.07530  1.0000 0.1269562641
H   H29       1.0  0.13360  0.97780  0.65410  1.0000 0.119684291
H   H30       1.0  0.02220  0.86640  0.15410  1.0000 0.119684291
H   H31       1.0  0.85650  0.41870  0.95320  1.0000 0.119684291
H   H32       1.0  0.58130  0.14350  0.45320  1.0000 0.119684291
H   H33       1.0  0.89580  0.45860  0.07330  1.0000 0.1140963103
H   H34       1.0  0.54140  0.10420  0.57330  1.0000 0.1140963103
H   H35       1.0  0.91570  0.25370  0.07120  1.0000 0.1140963103
H   H36       1.0  0.74630  0.08430  0.57120  1.0000 0.1140963103
H   H37       1.0  0.96460  0.20460  0.02450  1.0000 0.119684291
H   H38       1.0  0.79540  0.03540  0.52450  1.0000 0.119684291
H   H39       1.0  0.94400  0.11760  0.99050  1.0000 0.119684291
H   H40       1.0  0.88240  0.05600  0.49050  1.0000 0.119684291
H   H41       1.0  0.76560  0.23700  0.89570  1.0000 0.119684291
H   H42       1.0  0.76300  0.23440  0.39570  1.0000 0.119684291
H   H43       1.0  0.78480  0.32580  0.92840  1.0000 0.119684291
H   H44       1.0  0.67420  0.21520  0.42840  1.0000 0.119684291
H   H45       1.0  0.90880  0.53360  0.94370  1.0000 0.119684291
H   H46       1.0  0.46640  0.09120  0.44370  1.0000 0.119684291
H   H47       1.0  0.87990  0.65750  0.90630  1.0000 0.1140963103
H   H48       1.0  0.34250  0.12010  0.40630  1.0000 0.1140963103
H   H49       1.0  0.75650  0.66650  0.98460  1.0000 0.119684291
H   H50       1.0  0.33350  0.24350  0.48460  1.0000 0.119684291
H   H51       1.0  0.78910  0.54550  0.02140  1.0000 0.1140963103
H   H52       1.0  0.45450  0.21090  0.52140  1.0000 0.1140963103
H   H53       1.0  0.84970  0.39590  0.13480  1.0000 0.119684291
H   H54       1.0  0.60410  0.15030  0.63480  1.0000 0.1140963103
H   H55       1.0  0.87290  0.34830  0.21340  1.0000 0.119684291
H   H56       1.0  0.65170  0.12710  0.71340  1.0000 0.119684291
H   H57       1.0  0.03010  0.20430  0.22040  1.0000 0.119684291
H   H58       1.0  0.79570  0.96990  0.72040  1.0000 0.119684291
H   H59       1.0  0.00520  0.24620  0.14170  1.0000 0.119684291
H   H60       1.0  0.75380  0.99480  0.64170  1.0000 0.119684291
H   H61       1.0  0.97170  0.27570  0.65910  1.0000 0.119684291
H   H62       1.0  0.72430  0.02830  0.15910  1.0000 0.1140963103
H   H63       1.0  0.05090  0.31690  0.77680  1.0000 0.1140963103
H   H64       1.0  0.68310  0.94910  0.27680  1.0000 0.1140963103
H   H65       1.0  0.01880  0.11520  0.77800  1.0000 0.1140963103
H   H66       1.0  0.88480  0.98120  0.27800  1.0000 0.1140963103
H   H67       1.0  0.93070  0.06630  0.73340  1.0000 0.119684291
H   H68       1.0  0.93370  0.06930  0.23340  1.0000 0.119684291
H   H69       1.0  0.90280  0.98320  0.69650  1.0000 0.119684291
H   H70       1.0  0.01680  0.09720  0.19650  1.0000 0.1140963103
H   H71       1.0  0.98130  0.09550  0.59850  1.0000 0.119684291
H   H72       1.0  0.90450  0.01870  0.09850  1.0000 0.119684291
H   H73       1.0  0.00700  0.18140  0.63440  1.0000 0.119684291
H   H74       1.0  0.81860  0.99300  0.13440  1.0000 0.119684291
H   H75       1.0  0.91240  0.39620  0.63670  1.0000 0.119684291
H   H76       1.0  0.60380  0.08760  0.13670  1.0000 0.119684291
H   H77       1.0  0.90800  0.51500  0.59940  1.0000 0.1269562641
H   H78       1.0  0.48500  0.09200  0.09940  1.0000 0.1269562641
H   H79       1.0  0.08880  0.52960  0.69450  1.0000 0.1269562641
H   H80       1.0  0.47040  0.91120  0.19450  1.0000 0.1269562641
H   H81       1.0  0.09610  0.40950  0.73150  1.0000 0.119684291
H   H82       1.0  0.59050  0.90390  0.23150  1.0000 0.119684291
H   H83       1.0  0.15690  0.23430  0.84500  1.0000 0.119684291
H   H84       1.0  0.76570  0.84310  0.34500  1.0000 0.119684291
H   H85       1.0  0.19650  0.19110  0.92410  1.0000 0.119684291
H   H86       1.0  0.80890  0.80350  0.42410  1.0000 0.119684291
H   H87       1.0  0.01400  0.10020  0.92470  1.0000 0.119684291
H   H88       1.0  0.89980  0.98600  0.42470  1.0000 0.119684291
H   H89       1.0  0.97780  0.13360  0.84590  1.0000 0.119684291
H   H90       1.0  0.86640  0.02220  0.34590  1.0000 0.119684291
H   H91       1.0  0.41870  0.85650  0.54680  1.0000 0.119684291
H   H92       1.0  0.14350  0.58130  0.04680  1.0000 0.119684291
H   H93       1.0  0.45860  0.89580  0.42670  1.0000 0.1140963103
H   H94       1.0  0.10420  0.54140  0.92670  1.0000 0.1140963103
H   H95       1.0  0.25370  0.91570  0.42880  1.0000 0.1140963103
H   H96       1.0  0.08430  0.74630  0.92880  1.0000 0.1140963103
H   H97       1.0  0.20460  0.96460  0.47550  1.0000 0.119684291
H   H98       1.0  0.03540  0.79540  0.97550  1.0000 0.119684291
H   H99       1.0  0.11760  0.94400  0.50950  1.0000 0.119684291
H   H100      1.0  0.05600  0.88240  0.00950  1.0000 0.119684291
H   H101      1.0  0.23700  0.76560  0.60430  1.0000 0.119684291
H   H102      1.0  0.23440  0.76300  0.10430  1.0000 0.119684291
H   H103      1.0  0.32580  0.78480  0.57160  1.0000 0.119684291
H   H104      1.0  0.21520  0.67420  0.07160  1.0000 0.119684291
H   H105      1.0  0.53360  0.90880  0.55630  1.0000 0.119684291
H   H106      1.0  0.09120  0.46640  0.05630  1.0000 0.119684291
H   H107      1.0  0.65750  0.87990  0.59370  1.0000 0.1140963103
H   H108      1.0  0.12010  0.34250  0.09370  1.0000 0.1140963103
H   H109      1.0  0.66650  0.75650  0.51540  1.0000 0.119684291
H   H110      1.0  0.24350  0.33350  0.01540  1.0000 0.119684291
H   H111      1.0  0.54550  0.78910  0.47860  1.0000 0.1140963103
H   H112      1.0  0.21090  0.45450  0.97860  1.0000 0.1140963103
H   H113      1.0  0.39590  0.84970  0.36520  1.0000 0.119684291
H   H114      1.0  0.15030  0.60410  0.86520  1.0000 0.119684291
H   H115      1.0  0.34830  0.87290  0.28660  1.0000 0.119684291
H   H116      1.0  0.12710  0.65170  0.78660  1.0000 0.119684291
H   H117      1.0  0.20430  0.03010  0.27960  1.0000 0.119684291
H   H118      1.0  0.96990  0.79570  0.77960  1.0000 0.119684291
H   H119      1.0  0.24620  0.00520  0.35830  1.0000 0.119684291
H   H120      1.0  0.99480  0.75380  0.85830  1.0000 0.119684291
C   C1        1.0  0.18790  0.99310  0.78640  1.0000 0.0786475677
C   C2        1.0  0.00690  0.81210  0.28640  1.0000 0.0786475677
C   C3        1.0  0.25930  0.98970  0.80900  1.0000 -0.1808927724
C   C4        1.0  0.01030  0.74070  0.30900  1.0000 -0.1808927724
C   C5        1.0  0.30820  0.01260  0.78590  1.0000 0.0721184518
C   C6        1.0  0.98740  0.69180  0.28590  1.0000 0.0721184518
C   C7        1.0  0.28410  0.03570  0.73920  1.0000 -0.1896122353
C   C8        1.0  0.96430  0.71590  0.23920  1.0000 -0.1896122353
C   C9        1.0  0.21260  0.03720  0.71520  1.0000 0.0786475677
C   C10       1.0  0.96280  0.78740  0.21520  1.0000 0.0786475677
C   C11       1.0  0.16400  0.01700  0.73810  1.0000 -0.199597997
C   C12       1.0  0.98300  0.83600  0.23810  1.0000 -0.199597997
C   C13       1.0  0.13420  0.97220  0.81120  1.0000 0.0786475677
C   C14       1.0  0.02780  0.86580  0.31120  1.0000 0.0786475677
C   C15       1.0  0.07300  0.94060  0.79410  1.0000 -0.1416472342
C   C16       1.0  0.05940  0.92700  0.29410  1.0000 -0.1489688491
C   C17       1.0  0.02330  0.92390  0.81590  1.0000 -0.0991704048
C   C18       1.0  0.07610  0.97670  0.31590  1.0000 -0.0991704048
C   C19       1.0  0.03160  0.93800  0.85700  1.0000 -0.0401399374
C   C20       1.0  0.06200  0.96840  0.35700  1.0000 -0.0401399374
C   C21       1.0  0.09040  0.97020  0.87450  1.0000 -0.090074764
C   C22       1.0  0.02980  0.90960  0.37450  1.0000 -0.090074764
C   C23       1.0  0.14120  0.98640  0.85280  1.0000 -0.1558452299
C   C24       1.0  0.01360  0.85880  0.35280  1.0000 -0.1489688491
C   C25       1.0  0.97290  0.92430  0.87890  1.0000 0.5883306922
C   C26       1.0  0.07570  0.02710  0.37890  1.0000 0.5883306922
C   C27       1.0  0.38730  0.00790  0.81100  1.0000 0.0786475677
C   C28       1.0  0.99210  0.61270  0.31100  1.0000 0.0786475677
C   C29       1.0  0.42260  0.94840  0.85180  1.0000 -0.1489688491
C   C30       1.0  0.05160  0.57740  0.35180  1.0000 -0.1489688491
C   C31       1.0  0.49360  0.94520  0.87320  1.0000 -0.081401986
C   C32       1.0  0.05480  0.50640  0.37320  1.0000 -0.081401986
C   C33       1.0  0.53650  0.99450  0.85640  1.0000 -0.0401399374
C   C34       1.0  0.00550  0.46350  0.35640  1.0000 -0.0401399374
C   C35       1.0  0.50280  0.05320  0.81680  1.0000 -0.0991704048
C   C36       1.0  0.94680  0.49720  0.31680  1.0000 -0.0991704048
C   C37       1.0  0.43080  0.05760  0.79530  1.0000 -0.1489688491
C   C38       1.0  0.94240  0.56920  0.29530  1.0000 -0.1489688491
C   C39       1.0  0.61810  0.98870  0.87650  1.0000 0.5883306922
C   C40       1.0  0.01130  0.38190  0.37650  1.0000 0.5883306922
C   C41       1.0  0.18740  0.06180  0.66280  1.0000 0.0786475677
C   C42       1.0  0.93820  0.81260  0.16280  1.0000 0.0786475677
C   C43       1.0  0.20600  0.12920  0.63910  1.0000 -0.1673723807
C   C44       1.0  0.87080  0.79400  0.13910  1.0000 -0.1673723807
C   C45       1.0  0.18100  0.15180  0.59200  1.0000 -0.0991704048
C   C46       1.0  0.84820  0.81900  0.09200  1.0000 -0.0991704048
C   C47       1.0  0.14050  0.10930  0.56760  1.0000 -0.0401399374
C   C48       1.0  0.89070  0.85950  0.06760  1.0000 -0.0401399374
C   C49       1.0  0.12510  0.04350  0.59120  1.0000 -0.090074764
C   C50       1.0  0.95650  0.87490  0.09120  1.0000 -0.090074764
C   C51       1.0  0.14670  0.02110  0.63850  1.0000 -0.1489688491
C   C52       1.0  0.97890  0.85330  0.13850  1.0000 -0.1489688491
C   C53       1.0  0.11640  0.13340  0.51610  1.0000 0.5883306922
C   C54       1.0  0.86660  0.88360  0.01610  1.0000 0.5883306922
C   C55       1.0  0.88630  0.32790  0.00760  1.0000 0.0786475677
C   C56       1.0  0.67210  0.11370  0.50760  1.0000 0.0786475677
C   C57       1.0  0.87060  0.40200  0.98500  1.0000 -0.1808927724
C   C58       1.0  0.59800  0.12940  0.48500  1.0000 -0.1808927724
C   C59       1.0  0.87560  0.45000  0.00830  1.0000 0.0721184518
C   C60       1.0  0.55000  0.12440  0.50830  1.0000 0.0721184518
C   C61       1.0  0.89420  0.42540  0.05720  1.0000 -0.199597997
C   C62       1.0  0.57460  0.10580  0.55720  1.0000 -0.199597997
C   C63       1.0  0.91000  0.35140  0.08040  1.0000 0.0721184518
C   C64       1.0  0.64860  0.09000  0.58040  1.0000 0.0721184518
C   C65       1.0  0.90560  0.30340  0.05570  1.0000 -0.1896122353
C   C66       1.0  0.69660  0.09440  0.55570  1.0000 -0.1896122353
C   C67       1.0  0.87350  0.27290  0.98400  1.0000 0.0721184518
C   C68       1.0  0.72710  0.12650  0.48400  1.0000 0.0721184518
C   C69       1.0  0.92320  0.21100  0.99950  1.0000 -0.1416472342
C   C70       1.0  0.78900  0.07680  0.49950  1.0000 -0.1416472342
C   C71       1.0  0.91130  0.16010  0.97820  1.0000 -0.074338918
C   C72       1.0  0.83990  0.08870  0.47820  1.0000 -0.074338918
C   C73       1.0  0.85190  0.16710  0.93780  1.0000 -0.081401986
C   C74       1.0  0.83290  0.14810  0.43780  1.0000 -0.081401986
C   C75       1.0  0.80570  0.22990  0.92170  1.0000 -0.081401986
C   C76       1.0  0.77010  0.19430  0.42170  1.0000 -0.081401986
C   C77       1.0  0.81590  0.28230  0.94190  1.0000 -0.1416472342
C   C78       1.0  0.71770  0.18410  0.44190  1.0000 -0.1416472342
C   C79       1.0  0.84180  0.10980  0.91700  1.0000 0.5883306922
C   C80       1.0  0.89020  0.15820  0.41700  1.0000 0.5883306922
C   C81       1.0  0.85390  0.52750  0.98520  1.0000 0.0633595815
C   C82       1.0  0.47250  0.14610  0.48520  1.0000 0.0633595815
C   C83       1.0  0.87830  0.56050  0.95260  1.0000 -0.1416472342
C   C84       1.0  0.43950  0.12170  0.45260  1.0000 -0.1416472342
C   C85       1.0  0.86100  0.63580  0.92980  1.0000 -0.0991704048
C   C86       1.0  0.36420  0.13900  0.42980  1.0000 -0.0991704048
C   C87       1.0  0.81540  0.67840  0.94220  1.0000 -0.0401399374
C   C88       1.0  0.32160  0.18460  0.44220  1.0000 -0.0401399374
C   C89       1.0  0.78880  0.64120  0.97600  1.0000 -0.0991704048
C   C90       1.0  0.35880  0.21120  0.47600  1.0000 -0.0991704048
C   C91       1.0  0.80740  0.56820  0.99790  1.0000 -0.1558452299
C   C92       1.0  0.43180  0.19260  0.49790  1.0000 -0.1558452299
C   C93       1.0  0.79630  0.75910  0.92080  1.0000 0.5983830044
C   C94       1.0  0.24090  0.20370  0.42080  1.0000 0.5983830044
C   C95       1.0  0.92630  0.32450  0.12980  1.0000 0.0721184518
C   C96       1.0  0.67550  0.07370  0.62980  1.0000 0.0786475677
C   C97       1.0  0.88580  0.35680  0.15200  1.0000 -0.1558452299
C   C98       1.0  0.64320  0.11420  0.65200  1.0000 -0.1558452299
C   C99       1.0  0.90100  0.32940  0.19930  1.0000 -0.0991704048
C   C100      1.0  0.67060  0.09900  0.69930  1.0000 -0.0991704048
C   C101      1.0  0.95930  0.27270  0.22600  1.0000 -0.0526024339
C   C102      1.0  0.72730  0.04070  0.72600  1.0000 -0.0526024339
C   C103      1.0  0.99390  0.24350  0.20340  1.0000 -0.081401986
C   C104      1.0  0.75650  0.00610  0.70340  1.0000 -0.081401986
C   C105      1.0  0.97890  0.26830  0.15550  1.0000 -0.1489688491
C   C106      1.0  0.73170  0.02110  0.65550  1.0000 -0.1489688491
C   C107      1.0  0.96930  0.24550  0.27600  1.0000 0.5832508305
C   C108      1.0  0.75450  0.03070  0.77600  1.0000 0.5832508305
C   C109      1.0  0.99310  0.18790  0.71360  1.0000 0.0786475677
C   C110      1.0  0.81210  0.00690  0.21360  1.0000 0.0786475677
C   C111      1.0  0.98970  0.25930  0.69100  1.0000 -0.1808927724
C   C112      1.0  0.74070  0.01030  0.19100  1.0000 -0.1808927724
C   C113      1.0  0.01260  0.30820  0.71410  1.0000 0.0721184518
C   C114      1.0  0.69180  0.98740  0.21410  1.0000 0.0721184518
C   C115      1.0  0.03570  0.28410  0.76080  1.0000 -0.1896122353
C   C116      1.0  0.71590  0.96430  0.26080  1.0000 -0.1896122353
C   C117      1.0  0.03720  0.21260  0.78480  1.0000 0.0786475677
C   C118      1.0  0.78740  0.96280  0.28480  1.0000 0.0786475677
C   C119      1.0  0.01700  0.16400  0.76190  1.0000 -0.199597997
C   C120      1.0  0.83600  0.98300  0.26190  1.0000 -0.199597997
C   C121      1.0  0.97220  0.13420  0.68880  1.0000 0.0786475677
C   C122      1.0  0.86580  0.02780  0.18880  1.0000 0.0786475677
C   C123      1.0  0.94060  0.07300  0.70590  1.0000 -0.1416472342
C   C124      1.0  0.92700  0.05940  0.20590  1.0000 -0.1489688491
C   C125      1.0  0.92390  0.02330  0.68410  1.0000 -0.0991704048
C   C126      1.0  0.97670  0.07610  0.18410  1.0000 -0.0991704048
C   C127      1.0  0.93800  0.03160  0.64300  1.0000 -0.0401399374
C   C128      1.0  0.96840  0.06200  0.14300  1.0000 -0.0401399374
C   C129      1.0  0.97020  0.09040  0.62550  1.0000 -0.090074764
C   C130      1.0  0.90960  0.02980  0.12550  1.0000 -0.090074764
C   C131      1.0  0.98640  0.14120  0.64720  1.0000 -0.1558452299
C   C132      1.0  0.85880  0.01360  0.14720  1.0000 -0.1558452299
C   C133      1.0  0.92430  0.97290  0.62110  1.0000 0.5883306922
C   C134      1.0  0.02710  0.07570  0.12110  1.0000 0.5883306922
C   C135      1.0  0.00790  0.38730  0.68900  1.0000 0.0786475677
C   C136      1.0  0.61270  0.99210  0.18900  1.0000 0.0786475677
C   C137      1.0  0.94840  0.42260  0.64820  1.0000 -0.1489688491
C   C138      1.0  0.57740  0.05160  0.14820  1.0000 -0.1489688491
C   C139      1.0  0.94520  0.49360  0.62680  1.0000 -0.081401986
C   C140      1.0  0.50640  0.05480  0.12680  1.0000 -0.081401986
C   C141      1.0  0.99450  0.53650  0.64360  1.0000 -0.0401399374
C   C142      1.0  0.46350  0.00550  0.14360  1.0000 -0.0401399374
C   C143      1.0  0.05320  0.50280  0.68320  1.0000 -0.0991704048
C   C144      1.0  0.49720  0.94680  0.18320  1.0000 -0.0991704048
C   C145      1.0  0.05760  0.43080  0.70470  1.0000 -0.1489688491
C   C146      1.0  0.56920  0.94240  0.20470  1.0000 -0.1489688491
C   C147      1.0  0.98870  0.61810  0.62350  1.0000 0.5883306922
C   C148      1.0  0.38190  0.01130  0.12350  1.0000 0.5883306922
C   C149      1.0  0.06180  0.18740  0.83720  1.0000 0.0786475677
C   C150      1.0  0.81260  0.93820  0.33720  1.0000 0.0786475677
C   C151      1.0  0.12920  0.20600  0.86090  1.0000 -0.1673723807
C   C152      1.0  0.79400  0.87080  0.36090  1.0000 -0.1673723807
C   C153      1.0  0.15180  0.18100  0.90800  1.0000 -0.0991704048
C   C154      1.0  0.81900  0.84820  0.40800  1.0000 -0.0991704048
C   C155      1.0  0.10930  0.14050  0.93240  1.0000 -0.0401399374
C   C156      1.0  0.85950  0.89070  0.43240  1.0000 -0.0401399374
C   C157      1.0  0.04350  0.12510  0.90880  1.0000 -0.090074764
C   C158      1.0  0.87490  0.95650  0.40880  1.0000 -0.090074764
C   C159      1.0  0.02110  0.14670  0.86150  1.0000 -0.1489688491
C   C160      1.0  0.85330  0.97890  0.36150  1.0000 -0.1489688491
C   C161      1.0  0.13340  0.11640  0.98390  1.0000 0.5883306922
C   C162      1.0  0.88360  0.86660  0.48390  1.0000 0.5883306922
C   C163      1.0  0.32790  0.88630  0.49240  1.0000 0.0786475677
C   C164      1.0  0.11370  0.67210  0.99240  1.0000 0.0786475677
C   C165      1.0  0.40200  0.87060  0.51500  1.0000 -0.1808927724
C   C166      1.0  0.12940  0.59800  0.01500  1.0000 -0.1808927724
C   C167      1.0  0.45000  0.87560  0.49170  1.0000 0.0721184518
C   C168      1.0  0.12440  0.55000  0.99170  1.0000 0.0721184518
C   C169      1.0  0.42540  0.89420  0.44280  1.0000 -0.199597997
C   C170      1.0  0.10580  0.57460  0.94280  1.0000 -0.199597997
C   C171      1.0  0.35140  0.91000  0.41960  1.0000 0.0721184518
C   C172      1.0  0.09000  0.64860  0.91960  1.0000 0.0721184518
C   C173      1.0  0.30340  0.90560  0.44430  1.0000 -0.1896122353
C   C174      1.0  0.09440  0.69660  0.94430  1.0000 -0.1896122353
C   C175      1.0  0.27290  0.87350  0.51600  1.0000 0.0721184518
C   C176      1.0  0.12650  0.72710  0.01600  1.0000 0.0721184518
C   C177      1.0  0.21100  0.92320  0.50050  1.0000 -0.1416472342
C   C178      1.0  0.07680  0.78900  0.00050  1.0000 -0.1416472342
C   C179      1.0  0.16010  0.91130  0.52180  1.0000 -0.074338918
C   C180      1.0  0.08870  0.83990  0.02180  1.0000 -0.074338918
C   C181      1.0  0.16710  0.85190  0.56220  1.0000 -0.081401986
C   C182      1.0  0.14810  0.83290  0.06220  1.0000 -0.081401986
C   C183      1.0  0.22990  0.80570  0.57830  1.0000 -0.081401986
C   C184      1.0  0.19430  0.77010  0.07830  1.0000 -0.081401986
C   C185      1.0  0.28230  0.81590  0.55810  1.0000 -0.1416472342
C   C186      1.0  0.18410  0.71770  0.05810  1.0000 -0.1416472342
C   C187      1.0  0.10980  0.84180  0.58300  1.0000 0.5883306922
C   C188      1.0  0.15820  0.89020  0.08300  1.0000 0.5883306922
C   C189      1.0  0.52750  0.85390  0.51480  1.0000 0.0633595815
C   C190      1.0  0.14610  0.47250  0.01480  1.0000 0.0633595815
C   C191      1.0  0.56050  0.87830  0.54740  1.0000 -0.1416472342
C   C192      1.0  0.12170  0.43950  0.04740  1.0000 -0.1416472342
C   C193      1.0  0.63580  0.86100  0.57020  1.0000 -0.0991704048
C   C194      1.0  0.13900  0.36420  0.07020  1.0000 -0.0991704048
C   C195      1.0  0.67840  0.81540  0.55780  1.0000 -0.0401399374
C   C196      1.0  0.18460  0.32160  0.05780  1.0000 -0.0401399374
C   C197      1.0  0.64120  0.78880  0.52400  1.0000 -0.0991704048
C   C198      1.0  0.21120  0.35880  0.02400  1.0000 -0.0991704048
C   C199      1.0  0.56820  0.80740  0.50210  1.0000 -0.1558452299
C   C200      1.0  0.19260  0.43180  0.00210  1.0000 -0.1558452299
C   C201      1.0  0.75910  0.79630  0.57920  1.0000 0.5983830044
C   C202      1.0  0.20370  0.24090  0.07920  1.0000 0.5983830044
C   C203      1.0  0.32450  0.92630  0.37020  1.0000 0.0786475677
C   C204      1.0  0.07370  0.67550  0.87020  1.0000 0.0786475677
C   C205      1.0  0.35680  0.88580  0.34800  1.0000 -0.1558452299
C   C206      1.0  0.11420  0.64320  0.84800  1.0000 -0.1558452299
C   C207      1.0  0.32940  0.90100  0.30070  1.0000 -0.0991704048
C   C208      1.0  0.09900  0.67060  0.80070  1.0000 -0.0991704048
C   C209      1.0  0.27270  0.95930  0.27400  1.0000 -0.0526024339
C   C210      1.0  0.04070  0.72730  0.77400  1.0000 -0.0526024339
C   C211      1.0  0.24350  0.99390  0.29660  1.0000 -0.081401986
C   C212      1.0  0.00610  0.75650  0.79660  1.0000 -0.081401986
C   C213      1.0  0.26830  0.97890  0.34450  1.0000 -0.1489688491
C   C214      1.0  0.02110  0.73170  0.84450  1.0000 -0.1489688491
C   C215      1.0  0.24550  0.96930  0.22400  1.0000 0.5832508305
C   C216      1.0  0.03070  0.75450  0.72400  1.0000 0.5832508305
O   O1        1.0  0.80150  0.94630  0.89505  1.0000 -1.0183358093
O   O2        1.0  0.05370  0.19850  0.39505  1.0000 -1.0183358093
O   O3        1.0  0.92330  0.88730  0.86372  1.0000 -0.5687177082
O   O4        1.0  0.11270  0.07670  0.36372  1.0000 -0.5687177082
O   O5        1.0  0.97600  0.94728  0.91222  1.0000 -0.5296539081
O   O6        1.0  0.05272  0.02400  0.41222  1.0000 -0.5296539081
O   O7        1.0  0.64610  0.92870  0.90943  1.0000 -0.5512417158
O   O8        1.0  0.07130  0.35390  0.40943  1.0000 -0.5512417158
O   O9        1.0  0.65050  0.03950  0.86133  1.0000 -0.5296539081
O   O10       1.0  0.96050  0.34950  0.36133  1.0000 -0.5296539081
O   O11       1.0  0.11840  0.20220  0.49661  1.0000 -0.5687177082
O   O12       1.0  0.79780  0.88160  0.99661  1.0000 -0.5687177082
O   O13       1.0  0.09407  0.08867  0.49660  1.0000 -0.515416046
O   O14       1.0  0.91133  0.90593  0.99660  1.0000 -0.515416046
O   O15       1.0  0.88975  0.05735  0.93154  1.0000 -0.5296539081
O   O16       1.0  0.94265  0.11025  0.43154  1.0000 -0.5296539081
O   O17       1.0  0.78422  0.11682  0.88497  1.0000 -0.515416046
O   O18       1.0  0.88318  0.21578  0.38497  1.0000 -0.515416046
O   O19       1.0  0.82400  0.78780  0.88900  1.0000 -0.5687177082
O   O20       1.0  0.21220  0.17600  0.38900  1.0000 -0.5687177082
O   O21       1.0  0.75578  0.79138  0.93489  1.0000 -0.5296539081
O   O22       1.0  0.20862  0.24422  0.43489  1.0000 -0.5296539081
O   O23       1.0  0.93300  0.27100  0.29410  1.0000 -0.4702269187
O   O24       1.0  0.72900  0.06700  0.79410  1.0000 -0.4702269187
O   O25       1.0  0.02350  0.20030  0.29680  1.0000 -0.5389152368
O   O26       1.0  0.79970  0.97650  0.79680  1.0000 -0.5389152368
O   O27       1.0  0.94630  0.80150  0.60495  1.0000 -1.0183358093
O   O28       1.0  0.19850  0.05370  0.10495  1.0000 -1.0183358093
O   O29       1.0  0.88730  0.92330  0.63628  1.0000 -0.5687177082
O   O30       1.0  0.07670  0.11270  0.13628  1.0000 -0.5687177082
O   O31       1.0  0.94728  0.97600  0.58778  1.0000 -0.5296539081
O   O32       1.0  0.02400  0.05272  0.08778  1.0000 -0.5296539081
O   O33       1.0  0.92870  0.64610  0.59057  1.0000 -0.5512417158
O   O34       1.0  0.35390  0.07130  0.09057  1.0000 -0.5512417158
O   O35       1.0  0.03950  0.65050  0.63867  1.0000 -0.5296539081
O   O36       1.0  0.34950  0.96050  0.13867  1.0000 -0.5296539081
O   O37       1.0  0.20220  0.11840  0.00339  1.0000 -0.5687177082
O   O38       1.0  0.88160  0.79780  0.50339  1.0000 -0.5687177082
O   O39       1.0  0.08867  0.09407  0.00340  1.0000 -0.515416046
O   O40       1.0  0.90593  0.91133  0.50340  1.0000 -0.515416046
O   O41       1.0  0.05735  0.88975  0.56846  1.0000 -0.5296539081
O   O42       1.0  0.11025  0.94265  0.06846  1.0000 -0.5296539081
O   O43       1.0  0.11682  0.78422  0.61503  1.0000 -0.5143344005
O   O44       1.0  0.21578  0.88318  0.11503  1.0000 -0.5143344005
O   O45       1.0  0.78780  0.82400  0.61100  1.0000 -0.5687177082
O   O46       1.0  0.17600  0.21220  0.11100  1.0000 -0.5687177082
O   O47       1.0  0.79138  0.75578  0.56511  1.0000 -0.5296539081
O   O48       1.0  0.24422  0.20862  0.06511  1.0000 -0.5296539081
O   O49       1.0  0.27100  0.93300  0.20590  1.0000 -0.4702269187
O   O50       1.0  0.06700  0.72900  0.70590  1.0000 -0.4702269187
O   O51       1.0  0.20030  0.02350  0.20320  1.0000 -0.5389152368
O   O52       1.0  0.97650  0.79970  0.70320  1.0000 -0.5389152368
