# DDEC6 charges by PACMAN v1.1 (https://github.com/mtap-research/PACMAN-charge/)
data_2023[Zn][sql]2[ASR]9
_chemical_formula_sum              "Zn2 H36 C60 N8 O8"
_cell_length_a       6.8343
_cell_length_b       12.7508
_cell_length_c       16.8541
_cell_angle_alpha    107.686
_cell_angle_beta     97.837
_cell_angle_gamma    90.872

_symmetry_space_group_name_H-M    "P 1"
_symmetry_Int_Tables_number       1

loop_
  _symmetry_equiv_pos_as_xyz
  'x, y, z'

loop_
  _atom_site_type_symbol
  _atom_site_label
  _atom_site_symmetry_multiplicity
  _atom_site_fract_x
  _atom_site_fract_y
  _atom_site_fract_z
  _atom_site_occupancy
  _atom_site_charge
Zn  Zn1       1.0  0.79828  0.98837  0.80358  1.0000 0.7505512808
Zn  Zn2       1.0  0.20172  0.01163  0.19642  1.0000 0.7505512808
H   H1        1.0  0.37177  0.04454  0.79925  1.0000 0.101493813
H   H2        1.0  0.62823  0.95546  0.20075  1.0000 0.101493813
H   H3        1.0  0.18032  0.17761  0.76855  1.0000 0.1377116789
H   H4        1.0  0.81968  0.82239  0.23145  1.0000 0.1377116789
H   H5        1.0  0.24380  0.86236  0.95565  1.0000 0.1192012604
H   H6        1.0  0.75620  0.13764  0.04435  1.0000 0.1192012604
H   H7        1.0  0.60910  0.63385  0.84698  1.0000 0.1377116789
H   H8        1.0  0.39090  0.36615  0.15302  1.0000 0.1377116789
H   H9        1.0  0.44597  0.17416  0.98454  1.0000 0.1129455317
H   H10       1.0  0.55403  0.82584  0.01546  1.0000 0.1129455317
H   H11       1.0  0.65802  0.96817  0.48758  1.0000 0.1192012604
H   H12       1.0  0.34198  0.03183  0.51242  1.0000 0.1192012604
H   H13       1.0  0.78818  0.79752  0.86773  1.0000 0.1192012604
H   H14       1.0  0.21182  0.20248  0.13227  1.0000 0.1192012604
H   H15       1.0  0.20285  0.01389  0.62661  1.0000 0.1192012604
H   H16       1.0  0.79715  0.98611  0.37339  1.0000 0.1192012604
H   H17       1.0  0.02393  0.57961  0.67695  1.0000 0.1292738814
H   H18       1.0  0.97607  0.42039  0.32305  1.0000 0.1292738814
H   H19       1.0  0.85929  0.22980  0.83090  1.0000 0.1192012604
H   H20       1.0  0.14071  0.77020  0.16910  1.0000 0.1192012604
H   H21       1.0  0.69546  0.53891  0.65900  1.0000 0.1129455317
H   H22       1.0  0.30454  0.46109  0.34100  1.0000 0.1129455317
H   H23       1.0  0.38842  0.49387  0.57348  1.0000 0.1129455317
H   H24       1.0  0.61158  0.50613  0.42652  1.0000 0.1129455317
H   H25       1.0  0.21471  0.71344  0.67566  1.0000 0.1377116789
H   H26       1.0  0.78529  0.28656  0.32434  1.0000 0.1377116789
H   H27       1.0  0.41017  0.87201  0.69765  1.0000 0.1129455317
H   H28       1.0  0.58983  0.12799  0.30235  1.0000 0.1129455317
H   H29       1.0  0.68120  0.36690  0.79725  1.0000 0.1292738814
H   H30       1.0  0.31880  0.63310  0.20275  1.0000 0.1292738814
H   H31       1.0  0.05097  0.26620  0.68429  1.0000 0.1192012604
H   H32       1.0  0.94903  0.73380  0.31571  1.0000 0.1192012604
H   H33       1.0  0.85735  0.22747  0.55684  1.0000 0.1192012604
H   H34       1.0  0.14265  0.77253  0.44316  1.0000 0.1192012604
H   H35       1.0  0.54880  0.18175  0.47204  1.0000 0.1292738814
H   H36       1.0  0.45120  0.81825  0.52796  1.0000 0.1292738814
C   C1        1.0  0.91620  0.99030  0.56908  1.0000 -0.0240861529
C   C2        1.0  0.08380  0.00970  0.43092  1.0000 -0.0240861529
C   C3        1.0  0.31550  0.02070  0.96368  1.0000 -0.0240861529
C   C4        1.0  0.68450  0.97930  0.03632  1.0000 -0.0240861529
C   C5        1.0  0.12020  0.04320  0.92100  1.0000 0.5516176794
C   C6        1.0  0.87980  0.95680  0.07900  1.0000 0.5516176794
C   C7        1.0  0.43550  0.11060  0.79797  1.0000 0.0908136771
C   C8        1.0  0.56450  0.88940  0.20203  1.0000 0.0908136771
C   C9        1.0  0.39070  0.65450  0.75830  1.0000 0.101493813
C   C10       1.0  0.60930  0.34550  0.24170  1.0000 0.101493813
C   C11       1.0  0.32030  0.18920  0.77904  1.0000 -0.1688049238
C   C12       1.0  0.67970  0.81080  0.22096  1.0000 -0.1688049238
C   C13       1.0  0.82360  0.98120  0.64282  1.0000 0.5554074917
C   C14       1.0  0.17640  0.01880  0.35718  1.0000 0.5554074917
C   C15       1.0  0.34810  0.91830  0.97353  1.0000 -0.1114676972
C   C16       1.0  0.65190  0.08170  0.02647  1.0000 -0.1114676972
C   C17       1.0  0.80640  0.38770  0.61700  1.0000 0.0841682081
C   C18       1.0  0.19360  0.61230  0.38300  1.0000 0.0841682081
C   C19       1.0  0.27980  0.54610  0.74040  1.0000 0.2012436364
C   C20       1.0  0.72020  0.45390  0.25960  1.0000 0.2012436364
C   C21       1.0  0.56450  0.68200  0.81590  1.0000 -0.1810158591
C   C22       1.0  0.43550  0.31800  0.18410  1.0000 -0.1810158591
C   C23       1.0  0.46800  0.10350  0.99067  1.0000 -0.1186927483
C   C24       1.0  0.53200  0.89650  0.00933  1.0000 -0.1186927483
C   C25       1.0  0.79710  0.98130  0.49283  1.0000 -0.1114676972
C   C26       1.0  0.20290  0.01870  0.50717  1.0000 -0.1114676972
C   C27       1.0  0.67150  0.77930  0.82739  1.0000 0.0908136771
C   C28       1.0  0.32850  0.22070  0.17261  1.0000 0.0908136771
C   C29       1.0  0.29310  0.36870  0.74730  1.0000 0.2095004369
C   C30       1.0  0.70690  0.63130  0.25270  1.0000 0.2095004369
C   C31       1.0  0.40920  0.28590  0.77524  1.0000 0.101493813
C   C32       1.0  0.59080  0.71410  0.22476  1.0000 0.101493813
C   C33       1.0  0.12000  0.00840  0.57530  1.0000 -0.1114676972
C   C34       1.0  0.88000  0.99160  0.42470  1.0000 -0.1186927483
C   C35       1.0  0.00270  0.41710  0.67050  1.0000 0.1192012604
C   C36       1.0  0.99730  0.58290  0.32950  1.0000 0.1192012604
C   C37       1.0  0.09140  0.52320  0.69340  1.0000 -0.228275812
C   C38       1.0  0.90860  0.47680  0.30660  1.0000 -0.228275812
C   C39       1.0  0.71970  0.21820  0.81590  1.0000 0.0908136771
C   C40       1.0  0.28030  0.78180  0.18410  1.0000 0.0908136771
C   C41       1.0  0.66600  0.46650  0.62110  1.0000 -0.1475849252
C   C42       1.0  0.33400  0.53350  0.37890  1.0000 -0.1475849252
C   C43       1.0  0.44090  0.33370  0.51480  1.0000 0.0465404012
C   C44       1.0  0.55910  0.66630  0.48520  1.0000 0.0465404012
C   C45       1.0  0.48380  0.43990  0.57040  1.0000 -0.1297352824
C   C46       1.0  0.51620  0.56010  0.42960  1.0000 -0.1297352824
C   C47       1.0  0.33340  0.72820  0.71480  1.0000 -0.1810158591
C   C48       1.0  0.66667  0.27180  0.28520  1.0000 -0.1810158591
C   C49       1.0  0.45030  0.82310  0.72870  1.0000 0.0908136771
C   C50       1.0  0.54970  0.17690  0.27130  1.0000 0.0908136771
C   C51       1.0  0.61440  0.30060  0.79640  1.0000 -0.1688049238
C   C52       1.0  0.38560  0.69940  0.20360  1.0000 -0.1688049238
C   C53       1.0  0.10650  0.33940  0.69840  1.0000 -0.228275812
C   C54       1.0  0.89350  0.66060  0.30160  1.0000 -0.228275812
C   C55       1.0  0.76180  0.28140  0.56050  1.0000 -0.1297352824
C   C56       1.0  0.23820  0.71860  0.43950  1.0000 -0.1297352824
C   C57       1.0  0.57910  0.25420  0.50980  1.0000 -0.1114676972
C   C58       1.0  0.42090  0.74580  0.49020  1.0000 -0.1114676972
C   C59       1.0  0.25080  0.30950  0.46110  1.0000 0.2672860597
C   C60       1.0  0.74920  0.69050  0.53890  1.0000 0.2672860597
N   N1        1.0  0.63350  0.12200  0.81479  1.0000 -0.228275812
N   N2        1.0  0.36650  0.87800  0.18521  1.0000 -0.228275812
N   N3        1.0  0.61800  0.84960  0.78410  1.0000 -0.228275812
N   N4        1.0  0.38200  0.15040  0.21590  1.0000 -0.228275812
N   N5        1.0  0.37920  0.47050  0.76774  1.0000 -0.3371177639
N   N6        1.0  0.62080  0.52950  0.23226  1.0000 -0.3371177639
N   N7        1.0  0.10520  0.29290  0.41840  1.0000 -0.3583322789
N   N8        1.0  0.89480  0.70710  0.58160  1.0000 -0.3583322789
O   O1        1.0  0.99750  0.95957  0.88708  1.0000 -0.550212664
O   O2        1.0  0.00250  0.04043  0.11292  1.0000 -0.550212664
O   O3        1.0  0.64210  0.96427  0.63544  1.0000 -0.5581635262
O   O4        1.0  0.35790  0.03573  0.36456  1.0000 -0.5581635262
O   O5        1.0  0.94290  0.99430  0.71178  1.0000 -0.550212664
O   O6        1.0  0.05710  0.00570  0.28822  1.0000 -0.550212664
O   O7        1.0  0.08840  0.13685  0.91631  1.0000 -0.550212664
O   O8        1.0  0.91160  0.86315  0.08369  1.0000 -0.550212664
