# DDEC6 charges by PACMAN v1.1 (https://github.com/mtap-research/PACMAN-charge/)
data_2023[U][bcu]3[ASR]1
_chemical_formula_sum              "U12 H96 C128 O48"
_cell_length_a       24.776
_cell_length_b       24.776
_cell_length_c       16.626
_cell_angle_alpha    90
_cell_angle_beta     90
_cell_angle_gamma    90

_symmetry_space_group_name_H-M    "P 1"
_symmetry_Int_Tables_number       1

loop_
  _symmetry_equiv_pos_as_xyz
  'x, y, z'

loop_
  _atom_site_type_symbol
  _atom_site_label
  _atom_site_symmetry_multiplicity
  _atom_site_fract_x
  _atom_site_fract_y
  _atom_site_fract_z
  _atom_site_occupancy
  _atom_site_charge
U   U1        1.0  0.50000  0.07708  0.38527  1.0000 2.5687862075
U   U2        1.0  0.50000  0.92292  0.38527  1.0000 2.5687862075
U   U3        1.0  0.07708  0.50000  0.88527  1.0000 2.5687862075
U   U4        1.0  0.92292  0.50000  0.88527  1.0000 2.5687862075
U   U5        1.0  0.50000  0.92292  0.61473  1.0000 2.5687862075
U   U6        1.0  0.50000  0.07708  0.61473  1.0000 2.5687862075
U   U7        1.0  0.07708  0.50000  0.11473  1.0000 2.5687862075
U   U8        1.0  0.92292  0.50000  0.11473  1.0000 2.5687862075
U   U9        1.0  0.38978  0.00000  0.50000  1.0000 2.5136106349
U   U10       1.0  0.61022  0.00000  0.50000  1.0000 2.5136106349
U   U11       1.0  0.00000  0.61022  0.00000  1.0000 2.5136106349
U   U12       1.0  0.00000  0.38978  0.00000  1.0000 2.5136106349
H   H1        1.0  0.26257  0.11095  0.40194  1.0000 0.1191992317
H   H2        1.0  0.30837  0.23085  0.19672  1.0000 0.1130337633
H   H3        1.0  0.37046  0.17007  0.24948  1.0000 0.1041598836
H   H4        1.0  0.17076  0.13637  0.39357  1.0000 0.1191992317
H   H5        1.0  0.17122  0.19939  0.40199  1.0000 0.1191992317
H   H6        1.0  0.14912  0.17253  0.32323  1.0000 0.1130337633
H   H7        1.0  0.73743  0.88905  0.40194  1.0000 0.1191992317
H   H8        1.0  0.69163  0.76915  0.19672  1.0000 0.1130337633
H   H9        1.0  0.62954  0.82993  0.24948  1.0000 0.1041598836
H   H10       1.0  0.82924  0.86363  0.39357  1.0000 0.1191992317
H   H11       1.0  0.82878  0.80061  0.40199  1.0000 0.1191992317
H   H12       1.0  0.85088  0.82747  0.32323  1.0000 0.1130337633
H   H13       1.0  0.11095  0.73743  0.90194  1.0000 0.1191992317
H   H14       1.0  0.23085  0.69163  0.69672  1.0000 0.1130337633
H   H15       1.0  0.17007  0.62954  0.74948  1.0000 0.1041598836
H   H16       1.0  0.13637  0.82924  0.89357  1.0000 0.1191992317
H   H17       1.0  0.19939  0.82878  0.90199  1.0000 0.1191992317
H   H18       1.0  0.17253  0.85088  0.82323  1.0000 0.1130337633
H   H19       1.0  0.88905  0.26257  0.90194  1.0000 0.1191992317
H   H20       1.0  0.76915  0.30837  0.69672  1.0000 0.1130337633
H   H21       1.0  0.82993  0.37046  0.74948  1.0000 0.1041598836
H   H22       1.0  0.86363  0.17076  0.89357  1.0000 0.1191992317
H   H23       1.0  0.80061  0.17122  0.90199  1.0000 0.1191992317
H   H24       1.0  0.82747  0.14912  0.82323  1.0000 0.1130337633
H   H25       1.0  0.26257  0.88905  0.59806  1.0000 0.1191992317
H   H26       1.0  0.30837  0.76915  0.80328  1.0000 0.1130337633
H   H27       1.0  0.37046  0.82993  0.75052  1.0000 0.1041598836
H   H28       1.0  0.17076  0.86363  0.60643  1.0000 0.1191992317
H   H29       1.0  0.17122  0.80061  0.59801  1.0000 0.1191992317
H   H30       1.0  0.14912  0.82747  0.67677  1.0000 0.1130337633
H   H31       1.0  0.73743  0.11095  0.59806  1.0000 0.1191992317
H   H32       1.0  0.69163  0.23085  0.80328  1.0000 0.1130337633
H   H33       1.0  0.62954  0.17007  0.75052  1.0000 0.1041598836
H   H34       1.0  0.82924  0.13637  0.60643  1.0000 0.1191992317
H   H35       1.0  0.82878  0.19939  0.59801  1.0000 0.1191992317
H   H36       1.0  0.85088  0.17253  0.67677  1.0000 0.1130337633
H   H37       1.0  0.11095  0.26257  0.09806  1.0000 0.1191992317
H   H38       1.0  0.23085  0.30837  0.30328  1.0000 0.1130337633
H   H39       1.0  0.17007  0.37046  0.25052  1.0000 0.1041598836
H   H40       1.0  0.13637  0.17076  0.10643  1.0000 0.1191992317
H   H41       1.0  0.19939  0.17122  0.09801  1.0000 0.1191992317
H   H42       1.0  0.17253  0.14912  0.17677  1.0000 0.1130337633
H   H43       1.0  0.88905  0.73743  0.09806  1.0000 0.1191992317
H   H44       1.0  0.76915  0.69163  0.30328  1.0000 0.1130337633
H   H45       1.0  0.82993  0.62954  0.25052  1.0000 0.1041598836
H   H46       1.0  0.86363  0.82924  0.10643  1.0000 0.1191992317
H   H47       1.0  0.80061  0.82878  0.09801  1.0000 0.1191992317
H   H48       1.0  0.82747  0.85088  0.17677  1.0000 0.1130337633
H   H49       1.0  0.73743  0.88905  0.59806  1.0000 0.1191992317
H   H50       1.0  0.69163  0.76915  0.80328  1.0000 0.1130337633
H   H51       1.0  0.62954  0.82993  0.75052  1.0000 0.1041598836
H   H52       1.0  0.82924  0.86363  0.60643  1.0000 0.1191992317
H   H53       1.0  0.82878  0.80061  0.59801  1.0000 0.1191992317
H   H54       1.0  0.85088  0.82747  0.67677  1.0000 0.1130337633
H   H55       1.0  0.26257  0.11095  0.59806  1.0000 0.1191992317
H   H56       1.0  0.30837  0.23085  0.80328  1.0000 0.1130337633
H   H57       1.0  0.37046  0.17007  0.75052  1.0000 0.1041598836
H   H58       1.0  0.17076  0.13637  0.60643  1.0000 0.1191992317
H   H59       1.0  0.17122  0.19939  0.59801  1.0000 0.1191992317
H   H60       1.0  0.14912  0.17253  0.67677  1.0000 0.1130337633
H   H61       1.0  0.88905  0.26257  0.09806  1.0000 0.1191992317
H   H62       1.0  0.76915  0.30837  0.30328  1.0000 0.1130337633
H   H63       1.0  0.82993  0.37046  0.25052  1.0000 0.1041598836
H   H64       1.0  0.86363  0.17076  0.10643  1.0000 0.1191992317
H   H65       1.0  0.80061  0.17122  0.09801  1.0000 0.1191992317
H   H66       1.0  0.82747  0.14912  0.17677  1.0000 0.1130337633
H   H67       1.0  0.11095  0.73743  0.09806  1.0000 0.1191992317
H   H68       1.0  0.23085  0.69163  0.30328  1.0000 0.1130337633
H   H69       1.0  0.17007  0.62954  0.25052  1.0000 0.1041598836
H   H70       1.0  0.13637  0.82924  0.10643  1.0000 0.1191992317
H   H71       1.0  0.19939  0.82878  0.09801  1.0000 0.1191992317
H   H72       1.0  0.17253  0.85088  0.17677  1.0000 0.1130337633
H   H73       1.0  0.73743  0.11095  0.40194  1.0000 0.1191992317
H   H74       1.0  0.69163  0.23085  0.19672  1.0000 0.1130337633
H   H75       1.0  0.62954  0.17007  0.24948  1.0000 0.1041598836
H   H76       1.0  0.82924  0.13637  0.39357  1.0000 0.1191992317
H   H77       1.0  0.82878  0.19939  0.40199  1.0000 0.1191992317
H   H78       1.0  0.85088  0.17253  0.32323  1.0000 0.1130337633
H   H79       1.0  0.26257  0.88905  0.40194  1.0000 0.1191992317
H   H80       1.0  0.30837  0.76915  0.19672  1.0000 0.1130337633
H   H81       1.0  0.37046  0.82993  0.24948  1.0000 0.1041598836
H   H82       1.0  0.17076  0.86363  0.39357  1.0000 0.1191992317
H   H83       1.0  0.17122  0.80061  0.40199  1.0000 0.1191992317
H   H84       1.0  0.14912  0.82747  0.32323  1.0000 0.1130337633
H   H85       1.0  0.88905  0.73743  0.90194  1.0000 0.1191992317
H   H86       1.0  0.76915  0.69163  0.69672  1.0000 0.1130337633
H   H87       1.0  0.82993  0.62954  0.74948  1.0000 0.1041598836
H   H88       1.0  0.86363  0.82924  0.89357  1.0000 0.1191992317
H   H89       1.0  0.80061  0.82878  0.90199  1.0000 0.1191992317
H   H90       1.0  0.82747  0.85088  0.82323  1.0000 0.1130337633
H   H91       1.0  0.11095  0.26257  0.90194  1.0000 0.1191992317
H   H92       1.0  0.23085  0.30837  0.69672  1.0000 0.1130337633
H   H93       1.0  0.17007  0.37046  0.74948  1.0000 0.1041598836
H   H94       1.0  0.13637  0.17076  0.89357  1.0000 0.1191992317
H   H95       1.0  0.19939  0.17122  0.90199  1.0000 0.1191992317
H   H96       1.0  0.17253  0.14912  0.82323  1.0000 0.1130337633
C   C1        1.0  0.36330  0.09780  0.36270  1.0000 0.6504980958
C   C2        1.0  0.32210  0.13610  0.32850  1.0000 -0.051831848
C   C3        1.0  0.27150  0.13470  0.36080  1.0000 -0.1693810915
C   C4        1.0  0.23280  0.17160  0.32820  1.0000 0.1191992317
C   C5        1.0  0.24630  0.20720  0.26690  1.0000 0.0047223819
C   C6        1.0  0.29820  0.20710  0.23730  1.0000 -0.1552196854
C   C7        1.0  0.33540  0.17050  0.26960  1.0000 -0.1142106872
C   C8        1.0  0.17550  0.16980  0.36530  1.0000 -0.4445371889
C   C9        1.0  0.63670  0.90220  0.36270  1.0000 0.6504980958
C   C10       1.0  0.67790  0.86390  0.32850  1.0000 -0.051831848
C   C11       1.0  0.72850  0.86530  0.36080  1.0000 -0.1693810915
C   C12       1.0  0.76720  0.82840  0.32820  1.0000 0.1191992317
C   C13       1.0  0.75370  0.79280  0.26690  1.0000 0.005540089
C   C14       1.0  0.70180  0.79290  0.23730  1.0000 -0.1545413696
C   C15       1.0  0.66460  0.82950  0.26960  1.0000 -0.1142106872
C   C16       1.0  0.82450  0.83020  0.36530  1.0000 -0.4445371889
C   C17       1.0  0.09780  0.63670  0.86270  1.0000 0.6504980958
C   C18       1.0  0.13610  0.67790  0.82850  1.0000 -0.051831848
C   C19       1.0  0.13470  0.72850  0.86080  1.0000 -0.1693810915
C   C20       1.0  0.17160  0.76720  0.82820  1.0000 0.1191992317
C   C21       1.0  0.20720  0.75370  0.76690  1.0000 0.005540089
C   C22       1.0  0.20710  0.70180  0.73730  1.0000 -0.1552196854
C   C23       1.0  0.17050  0.66460  0.76960  1.0000 -0.1142106872
C   C24       1.0  0.16980  0.82450  0.86530  1.0000 -0.4450890087
C   C25       1.0  0.90220  0.36330  0.86270  1.0000 0.6504980958
C   C26       1.0  0.86390  0.32210  0.82850  1.0000 -0.051831848
C   C27       1.0  0.86530  0.27150  0.86080  1.0000 -0.1693810915
C   C28       1.0  0.82840  0.23280  0.82820  1.0000 0.1191992317
C   C29       1.0  0.79280  0.24630  0.76690  1.0000 0.005540089
C   C30       1.0  0.79290  0.29820  0.73730  1.0000 -0.1545413696
C   C31       1.0  0.82950  0.33540  0.76960  1.0000 -0.1142106872
C   C32       1.0  0.83020  0.17550  0.86530  1.0000 -0.4445371889
C   C33       1.0  0.36330  0.90220  0.63730  1.0000 0.6504980958
C   C34       1.0  0.32210  0.86390  0.67150  1.0000 -0.051831848
C   C35       1.0  0.27150  0.86530  0.63920  1.0000 -0.1693810915
C   C36       1.0  0.23280  0.82840  0.67180  1.0000 0.1191992317
C   C37       1.0  0.24630  0.79280  0.73310  1.0000 0.005540089
C   C38       1.0  0.29820  0.79290  0.76270  1.0000 -0.1552196854
C   C39       1.0  0.33540  0.82950  0.73040  1.0000 -0.1142106872
C   C40       1.0  0.17550  0.83020  0.63470  1.0000 -0.4450890087
C   C41       1.0  0.63670  0.09780  0.63730  1.0000 0.6504980958
C   C42       1.0  0.67790  0.13610  0.67150  1.0000 -0.051831848
C   C43       1.0  0.72850  0.13470  0.63920  1.0000 -0.1693810915
C   C44       1.0  0.76720  0.17160  0.67180  1.0000 0.1191992317
C   C45       1.0  0.75370  0.20720  0.73310  1.0000 0.0047223819
C   C46       1.0  0.70180  0.20710  0.76270  1.0000 -0.1545413696
C   C47       1.0  0.66460  0.17050  0.73040  1.0000 -0.1142106872
C   C48       1.0  0.82450  0.16980  0.63470  1.0000 -0.4445371889
C   C49       1.0  0.09780  0.36330  0.13730  1.0000 0.6504980958
C   C50       1.0  0.13610  0.32210  0.17150  1.0000 -0.051831848
C   C51       1.0  0.13470  0.27150  0.13920  1.0000 -0.1693810915
C   C52       1.0  0.17160  0.23280  0.17180  1.0000 0.1191992317
C   C53       1.0  0.20720  0.24630  0.23310  1.0000 0.0047223819
C   C54       1.0  0.20710  0.29820  0.26270  1.0000 -0.1545413696
C   C55       1.0  0.17050  0.33540  0.23040  1.0000 -0.1142106872
C   C56       1.0  0.16980  0.17550  0.13470  1.0000 -0.4445371889
C   C57       1.0  0.90220  0.63670  0.13730  1.0000 0.6504980958
C   C58       1.0  0.86390  0.67790  0.17150  1.0000 -0.051831848
C   C59       1.0  0.86530  0.72850  0.13920  1.0000 -0.1693810915
C   C60       1.0  0.82840  0.76720  0.17180  1.0000 0.1191992317
C   C61       1.0  0.79280  0.75370  0.23310  1.0000 0.005540089
C   C62       1.0  0.79290  0.70180  0.26270  1.0000 -0.1545413696
C   C63       1.0  0.82950  0.66460  0.23040  1.0000 -0.1142106872
C   C64       1.0  0.83020  0.82450  0.13470  1.0000 -0.4445371889
C   C65       1.0  0.63670  0.90220  0.63730  1.0000 0.6504980958
C   C66       1.0  0.67790  0.86390  0.67150  1.0000 -0.051831848
C   C67       1.0  0.72850  0.86530  0.63920  1.0000 -0.1693810915
C   C68       1.0  0.76720  0.82840  0.67180  1.0000 0.1191992317
C   C69       1.0  0.75370  0.79280  0.73310  1.0000 0.005540089
C   C70       1.0  0.70180  0.79290  0.76270  1.0000 -0.1545413696
C   C71       1.0  0.66460  0.82950  0.73040  1.0000 -0.1142106872
C   C72       1.0  0.82450  0.83020  0.63470  1.0000 -0.4450890087
C   C73       1.0  0.36330  0.09780  0.63730  1.0000 0.6504980958
C   C74       1.0  0.32210  0.13610  0.67150  1.0000 -0.051831848
C   C75       1.0  0.27150  0.13470  0.63920  1.0000 -0.1693810915
C   C76       1.0  0.23280  0.17160  0.67180  1.0000 0.1191992317
C   C77       1.0  0.24630  0.20720  0.73310  1.0000 0.0047223819
C   C78       1.0  0.29820  0.20710  0.76270  1.0000 -0.1552196854
C   C79       1.0  0.33540  0.17050  0.73040  1.0000 -0.1142106872
C   C80       1.0  0.17550  0.16980  0.63470  1.0000 -0.4445371889
C   C81       1.0  0.90220  0.36330  0.13730  1.0000 0.6504980958
C   C82       1.0  0.86390  0.32210  0.17150  1.0000 -0.051831848
C   C83       1.0  0.86530  0.27150  0.13920  1.0000 -0.1693810915
C   C84       1.0  0.82840  0.23280  0.17180  1.0000 0.1191992317
C   C85       1.0  0.79280  0.24630  0.23310  1.0000 0.0047223819
C   C86       1.0  0.79290  0.29820  0.26270  1.0000 -0.1545413696
C   C87       1.0  0.82950  0.33540  0.23040  1.0000 -0.1142106872
C   C88       1.0  0.83020  0.17550  0.13470  1.0000 -0.4445371889
C   C89       1.0  0.09780  0.63670  0.13730  1.0000 0.6504980958
C   C90       1.0  0.13610  0.67790  0.17150  1.0000 -0.051831848
C   C91       1.0  0.13470  0.72850  0.13920  1.0000 -0.1693810915
C   C92       1.0  0.17160  0.76720  0.17180  1.0000 0.1191992317
C   C93       1.0  0.20720  0.75370  0.23310  1.0000 0.0047223819
C   C94       1.0  0.20710  0.70180  0.26270  1.0000 -0.1545413696
C   C95       1.0  0.17050  0.66460  0.23040  1.0000 -0.1142106872
C   C96       1.0  0.16980  0.82450  0.13470  1.0000 -0.4445371889
C   C97       1.0  0.63670  0.09780  0.36270  1.0000 0.6504980958
C   C98       1.0  0.67790  0.13610  0.32850  1.0000 -0.051831848
C   C99       1.0  0.72850  0.13470  0.36080  1.0000 -0.1693810915
C   C100      1.0  0.76720  0.17160  0.32820  1.0000 0.1191992317
C   C101      1.0  0.75370  0.20720  0.26690  1.0000 0.0047223819
C   C102      1.0  0.70180  0.20710  0.23730  1.0000 -0.1545413696
C   C103      1.0  0.66460  0.17050  0.26960  1.0000 -0.1142106872
C   C104      1.0  0.82450  0.16980  0.36530  1.0000 -0.4445371889
C   C105      1.0  0.36330  0.90220  0.36270  1.0000 0.6504980958
C   C106      1.0  0.32210  0.86390  0.32850  1.0000 -0.051831848
C   C107      1.0  0.27150  0.86530  0.36080  1.0000 -0.1693810915
C   C108      1.0  0.23280  0.82840  0.32820  1.0000 0.1191992317
C   C109      1.0  0.24630  0.79280  0.26690  1.0000 0.005540089
C   C110      1.0  0.29820  0.79290  0.23730  1.0000 -0.1552196854
C   C111      1.0  0.33540  0.82950  0.26960  1.0000 -0.1142106872
C   C112      1.0  0.17550  0.83020  0.36530  1.0000 -0.4445371889
C   C113      1.0  0.90220  0.63670  0.86270  1.0000 0.6504980958
C   C114      1.0  0.86390  0.67790  0.82850  1.0000 -0.051831848
C   C115      1.0  0.86530  0.72850  0.86080  1.0000 -0.1693810915
C   C116      1.0  0.82840  0.76720  0.82820  1.0000 0.1191992317
C   C117      1.0  0.79280  0.75370  0.76690  1.0000 0.005540089
C   C118      1.0  0.79290  0.70180  0.73730  1.0000 -0.1552196854
C   C119      1.0  0.82950  0.66460  0.76960  1.0000 -0.1142106872
C   C120      1.0  0.83020  0.82450  0.86530  1.0000 -0.4450890087
C   C121      1.0  0.09780  0.36330  0.86270  1.0000 0.6504980958
C   C122      1.0  0.13610  0.32210  0.82850  1.0000 -0.051831848
C   C123      1.0  0.13470  0.27150  0.86080  1.0000 -0.1693810915
C   C124      1.0  0.17160  0.23280  0.82820  1.0000 0.1191992317
C   C125      1.0  0.20720  0.24630  0.76690  1.0000 0.005540089
C   C126      1.0  0.20710  0.29820  0.73730  1.0000 -0.1552196854
C   C127      1.0  0.17050  0.33540  0.76960  1.0000 -0.1142106872
C   C128      1.0  0.16980  0.17550  0.86530  1.0000 -0.4445371889
O   O1        1.0  0.34810  0.06220  0.40860  1.0000 -0.5715393574
O   O2        1.0  0.41250  0.10620  0.34150  1.0000 -0.6564978399
O   O3        1.0  0.65190  0.93780  0.40860  1.0000 -0.5715393574
O   O4        1.0  0.58750  0.89380  0.34150  1.0000 -0.6564978399
O   O5        1.0  0.06220  0.65190  0.90860  1.0000 -0.5715393574
O   O6        1.0  0.10620  0.58750  0.84150  1.0000 -0.6564978399
O   O7        1.0  0.93780  0.34810  0.90860  1.0000 -0.5715393574
O   O8        1.0  0.89380  0.41250  0.84150  1.0000 -0.6564978399
O   O9        1.0  0.34810  0.93780  0.59140  1.0000 -0.5715393574
O   O10       1.0  0.41250  0.89380  0.65850  1.0000 -0.6564978399
O   O11       1.0  0.65190  0.06220  0.59140  1.0000 -0.5715393574
O   O12       1.0  0.58750  0.10620  0.65850  1.0000 -0.6564978399
O   O13       1.0  0.06220  0.34810  0.09140  1.0000 -0.5715393574
O   O14       1.0  0.10620  0.41250  0.15850  1.0000 -0.6564978399
O   O15       1.0  0.93780  0.65190  0.09140  1.0000 -0.5715393574
O   O16       1.0  0.89380  0.58750  0.15850  1.0000 -0.6564978399
O   O17       1.0  0.65190  0.93780  0.59140  1.0000 -0.5715393574
O   O18       1.0  0.58750  0.89380  0.65850  1.0000 -0.6564978399
O   O19       1.0  0.34810  0.06220  0.59140  1.0000 -0.5715393574
O   O20       1.0  0.41250  0.10620  0.65850  1.0000 -0.6564978399
O   O21       1.0  0.93780  0.34810  0.09140  1.0000 -0.5715393574
O   O22       1.0  0.89380  0.41250  0.15850  1.0000 -0.6564978399
O   O23       1.0  0.06220  0.65190  0.09140  1.0000 -0.5715393574
O   O24       1.0  0.10620  0.58750  0.15850  1.0000 -0.6564978399
O   O25       1.0  0.65190  0.06220  0.40860  1.0000 -0.5715393574
O   O26       1.0  0.58750  0.10620  0.34150  1.0000 -0.6564978399
O   O27       1.0  0.34810  0.93780  0.40860  1.0000 -0.5715393574
O   O28       1.0  0.41250  0.89380  0.34150  1.0000 -0.6564978399
O   O29       1.0  0.93780  0.65190  0.90860  1.0000 -0.5715393574
O   O30       1.0  0.89380  0.58750  0.84150  1.0000 -0.6564978399
O   O31       1.0  0.06220  0.34810  0.90860  1.0000 -0.5715393574
O   O32       1.0  0.10620  0.41250  0.84150  1.0000 -0.6564978399
O   O33       1.0  0.44720  0.00000  0.38870  1.0000 -1.212526437
O   O34       1.0  0.55280  0.00000  0.38870  1.0000 -1.212526437
O   O35       1.0  0.00000  0.55280  0.88870  1.0000 -1.212526437
O   O36       1.0  0.00000  0.44720  0.88870  1.0000 -1.212526437
O   O37       1.0  0.44720  0.00000  0.61130  1.0000 -1.212526437
O   O38       1.0  0.55280  0.00000  0.61130  1.0000 -1.212526437
O   O39       1.0  0.00000  0.44720  0.11130  1.0000 -1.212526437
O   O40       1.0  0.00000  0.55280  0.11130  1.0000 -1.212526437
O   O41       1.0  0.44750  0.07400  0.50000  1.0000 -1.212526437
O   O42       1.0  0.55250  0.92600  0.50000  1.0000 -1.212526437
O   O43       1.0  0.07400  0.55250  0.00000  1.0000 -1.212526437
O   O44       1.0  0.92600  0.44750  0.00000  1.0000 -1.212526437
O   O45       1.0  0.44750  0.92600  0.50000  1.0000 -1.212526437
O   O46       1.0  0.55250  0.07400  0.50000  1.0000 -1.212526437
O   O47       1.0  0.07400  0.44750  0.00000  1.0000 -1.212526437
O   O48       1.0  0.92600  0.55250  0.00000  1.0000 -1.212526437
