# DDEC6 charges by PACMAN v1.1 (https://github.com/mtap-research/PACMAN-charge/)
data_2023[Zn][pcu]3[ASR]4
_chemical_formula_sum              "Zn4 H52 C88 N8 O16"
_cell_length_a       12.9725
_cell_length_b       13.1154
_cell_length_c       13.881
_cell_angle_alpha    109.399
_cell_angle_beta     108.978
_cell_angle_gamma    86.28

_symmetry_space_group_name_H-M    "P 1"
_symmetry_Int_Tables_number       1

loop_
  _symmetry_equiv_pos_as_xyz
  'x, y, z'

loop_
  _atom_site_type_symbol
  _atom_site_label
  _atom_site_symmetry_multiplicity
  _atom_site_fract_x
  _atom_site_fract_y
  _atom_site_fract_z
  _atom_site_occupancy
  _atom_site_charge
Zn  Zn1       1.0  0.52433  0.28892  0.36498  1.0000 0.8338738329
Zn  Zn2       1.0  0.43230  0.19016  0.12725  1.0000 0.8338738329
Zn  Zn3       1.0  0.47567  0.71108  0.63502  1.0000 0.8338738329
Zn  Zn4       1.0  0.56770  0.80984  0.87275  1.0000 0.8352186925
H   H1        1.0  0.68028  0.17818  0.49869  1.0000 0.1201971828
H   H2        1.0  0.84450  0.21430  0.63408  1.0000 0.1302964951
H   H3        1.0  0.79622  0.52815  0.69594  1.0000 0.1361171551
H   H4        1.0  0.63603  0.48600  0.55620  1.0000 0.1201971828
H   H5        1.0  0.21159  0.46995  0.98035  1.0000 0.1302964951
H   H6        1.0  0.01319  0.25332  0.71607  1.0000 0.1201971828
H   H7        1.0  0.26534  0.31286  0.02061  1.0000 0.1201971828
H   H8        1.0  0.37771  0.03302  0.89749  1.0000 0.1201971828
H   H9        1.0  0.27641  0.02893  0.72568  1.0000 0.1302964951
H   H10       1.0  0.16631  0.17155  0.70236  1.0000 0.1201971828
H   H11       1.0  0.23800  0.63872  0.08459  1.0000 0.1201971828
H   H12       1.0  0.24986  0.80926  0.19971  1.0000 0.0985788179
H   H13       1.0  0.94670  0.85152  0.06524  1.0000 0.0985788179
H   H14       1.0  0.92549  0.68360  0.94050  1.0000 0.1302964951
H   H15       1.0  0.53518  0.62995  0.38377  1.0000 0.1302964951
H   H16       1.0  0.55516  0.83292  0.45903  1.0000 0.1302964951
H   H17       1.0  0.53882  0.99451  0.43015  1.0000 0.1141025763
H   H18       1.0  0.44065  0.84790  0.10901  1.0000 0.1302964951
H   H19       1.0  0.43507  0.64650  0.03494  1.0000 0.1302964951
H   H20       1.0  0.44242  0.48229  0.06285  1.0000 0.1141025763
H   H21       1.0  0.11854  0.14299  0.14180  1.0000 0.1201971828
H   H22       1.0  0.92197  0.07969  0.04898  1.0000 0.1141025763
H   H23       1.0  0.74545  0.09425  0.04737  1.0000 0.1201971828
H   H24       1.0  0.84196  0.28479  0.35730  1.0000 0.1201971828
H   H25       1.0  0.03952  0.33999  0.45380  1.0000 0.1201971828
H   H26       1.0  0.21462  0.34091  0.44948  1.0000 0.1201971828
H   H27       1.0  0.31972  0.82182  0.50131  1.0000 0.1201971828
H   H28       1.0  0.15550  0.78570  0.36592  1.0000 0.1302964951
H   H29       1.0  0.20378  0.47185  0.30406  1.0000 0.1361171551
H   H30       1.0  0.36397  0.51400  0.44380  1.0000 0.1201971828
H   H31       1.0  0.78841  0.53005  0.01965  1.0000 0.1302964951
H   H32       1.0  0.98681  0.74668  0.28393  1.0000 0.1201971828
H   H33       1.0  0.73466  0.68714  0.97939  1.0000 0.1201971828
H   H34       1.0  0.62229  0.96698  0.10251  1.0000 0.1201971828
H   H35       1.0  0.72359  0.97107  0.27432  1.0000 0.1302964951
H   H36       1.0  0.83369  0.82845  0.29764  1.0000 0.1201971828
H   H37       1.0  0.76200  0.36128  0.91541  1.0000 0.1201971828
H   H38       1.0  0.75014  0.19074  0.80029  1.0000 0.0985788179
H   H39       1.0  0.05330  0.14848  0.93476  1.0000 0.0985788179
H   H40       1.0  0.07451  0.31640  0.05950  1.0000 0.1302964951
H   H41       1.0  0.46482  0.37005  0.61623  1.0000 0.1302964951
H   H42       1.0  0.44484  0.16708  0.54097  1.0000 0.1302964951
H   H43       1.0  0.46118  0.00549  0.56985  1.0000 0.1141025763
H   H44       1.0  0.55935  0.15210  0.89099  1.0000 0.1302964951
H   H45       1.0  0.56493  0.35350  0.96506  1.0000 0.1302964951
H   H46       1.0  0.55758  0.51771  0.93715  1.0000 0.1141025763
H   H47       1.0  0.88146  0.85701  0.85820  1.0000 0.1201971828
H   H48       1.0  0.07803  0.92031  0.95102  1.0000 0.1141025763
H   H49       1.0  0.25455  0.90575  0.95263  1.0000 0.1201971828
H   H50       1.0  0.15804  0.71521  0.64270  1.0000 0.1201971828
H   H51       1.0  0.96048  0.66001  0.54620  1.0000 0.1201971828
H   H52       1.0  0.78538  0.65909  0.55052  1.0000 0.1201971828
C   C1        1.0  0.70490  0.24980  0.53710  1.0000 0.0805842936
C   C2        1.0  0.80350  0.27120  0.61900  1.0000 -0.1967331522
C   C3        1.0  0.84140  0.37550  0.67830  1.0000 0.0805842936
C   C4        1.0  0.77550  0.45610  0.65510  1.0000 -0.1698960044
C   C5        1.0  0.67880  0.43000  0.57140  1.0000 0.0985788179
C   C6        1.0  0.94960  0.40140  0.76490  1.0000 0.2206183172
C   C7        1.0  0.06490  0.52660  0.91660  1.0000 0.2064623184
C   C8        1.0  0.14530  0.45070  0.92490  1.0000 -0.2278544955
C   C9        1.0  0.12680  0.34730  0.85130  1.0000 0.1141025763
C   C10       1.0  0.02770  0.32160  0.76830  1.0000 -0.2433807753
C   C11       1.0  0.20360  0.25860  0.86060  1.0000 0.0205327844
C   C12       1.0  0.26730  0.25560  0.96000  1.0000 0.0205327844
C   C13       1.0  0.33440  0.09060  0.88820  1.0000 0.0881526418
C   C14       1.0  0.27340  0.08730  0.78510  1.0000 -0.1304062993
C   C15       1.0  0.20770  0.17240  0.77130  1.0000 -0.0992446111
C   C16       1.0  0.07970  0.63750  0.99560  1.0000 0.0805842936
C   C17       1.0  0.17690  0.68040  0.07740  1.0000 -0.1900520899
C   C18       1.0  0.18300  0.78290  0.14700  1.0000 0.0637880324
C   C19       1.0  0.00660  0.80820  0.06830  1.0000 0.0637880324
C   C20       1.0  0.99300  0.70670  0.99330  1.0000 -0.1811336928
C   C21       1.0  0.48530  0.43380  0.24360  1.0000 0.5839529879
C   C22       1.0  0.48520  0.54190  0.22760  1.0000 -0.0179970856
C   C23       1.0  0.51260  0.63420  0.31450  1.0000 -0.1504896075
C   C24       1.0  0.50710  0.73600  0.30020  1.0000 0.0805842936
C   C25       1.0  0.53190  0.83470  0.38880  1.0000 -0.1504896075
C   C26       1.0  0.52190  0.93090  0.37140  1.0000 -0.1185453453
C   C27       1.0  0.48650  0.93700  0.26620  1.0000 -0.0179970856
C   C28       1.0  0.46370  0.84380  0.17840  1.0000 -0.1626782619
C   C29       1.0  0.47520  0.74150  0.19340  1.0000 0.0725977368
C   C30       1.0  0.45290  0.64420  0.10470  1.0000 -0.1626782619
C   C31       1.0  0.45750  0.54610  0.12140  1.0000 -0.1304062993
C   C32       1.0  0.47770  0.04650  0.25110  1.0000 0.5704610395
C   C33       1.0  0.29640  0.25510  0.28770  1.0000 0.5704610395
C   C34       1.0  0.18270  0.24530  0.29230  1.0000 -0.0179970856
C   C35       1.0  0.10150  0.18370  0.20320  1.0000 -0.1626782619
C   C36       1.0  0.99320  0.18110  0.20320  1.0000 0.0805842936
C   C37       1.0  0.90650  0.12330  0.11030  1.0000 -0.1504896075
C   C38       1.0  0.80130  0.13070  0.10970  1.0000 -0.1137258091
C   C39       1.0  0.77650  0.19290  0.20260  1.0000 -0.0179970856
C   C40       1.0  0.85880  0.24580  0.29530  1.0000 -0.1698960044
C   C41       1.0  0.96820  0.24170  0.29760  1.0000 0.0805842936
C   C42       1.0  0.05440  0.30140  0.39070  1.0000 -0.1504896075
C   C43       1.0  0.15900  0.30240  0.38800  1.0000 -0.1185453453
C   C44       1.0  0.65970  0.20590  0.20250  1.0000 0.5704610395
C   C45       1.0  0.29510  0.75020  0.46290  1.0000 0.0805842936
C   C46       1.0  0.19650  0.72880  0.38100  1.0000 -0.1967331522
C   C47       1.0  0.15860  0.62450  0.32170  1.0000 0.0805842936
C   C48       1.0  0.22450  0.54390  0.34490  1.0000 -0.1698960044
C   C49       1.0  0.32120  0.57000  0.42860  1.0000 0.0985788179
C   C50       1.0  0.05040  0.59860  0.23510  1.0000 0.2206183172
C   C51       1.0  0.93510  0.47340  0.08340  1.0000 0.2064623184
C   C52       1.0  0.85470  0.54930  0.07510  1.0000 -0.2278544955
C   C53       1.0  0.87320  0.65270  0.14870  1.0000 0.1141025763
C   C54       1.0  0.97230  0.67840  0.23170  1.0000 -0.2433807753
C   C55       1.0  0.79640  0.74140  0.13940  1.0000 0.0205327844
C   C56       1.0  0.73270  0.74440  0.04000  1.0000 0.0205327844
C   C57       1.0  0.66560  0.90940  0.11180  1.0000 0.0881526418
C   C58       1.0  0.72660  0.91270  0.21490  1.0000 -0.1304062993
C   C59       1.0  0.79230  0.82760  0.22870  1.0000 -0.0992446111
C   C60       1.0  0.92030  0.36250  0.00440  1.0000 0.0805842936
C   C61       1.0  0.82310  0.31960  0.92260  1.0000 -0.1900520899
C   C62       1.0  0.81700  0.21710  0.85300  1.0000 0.0637880324
C   C63       1.0  0.99340  0.19180  0.93170  1.0000 0.0637880324
C   C64       1.0  0.00700  0.29330  0.00670  1.0000 -0.1811336928
C   C65       1.0  0.51470  0.56620  0.75640  1.0000 0.5839529879
C   C66       1.0  0.51480  0.45810  0.77240  1.0000 -0.0179970856
C   C67       1.0  0.48740  0.36580  0.68550  1.0000 -0.1504896075
C   C68       1.0  0.49290  0.26400  0.69980  1.0000 0.0805842936
C   C69       1.0  0.46810  0.16530  0.61120  1.0000 -0.1504896075
C   C70       1.0  0.47810  0.06910  0.62860  1.0000 -0.1185453453
C   C71       1.0  0.51350  0.06300  0.73380  1.0000 -0.0179970856
C   C72       1.0  0.53630  0.15620  0.82160  1.0000 -0.1626782619
C   C73       1.0  0.52480  0.25850  0.80660  1.0000 0.0725977368
C   C74       1.0  0.54710  0.35580  0.89530  1.0000 -0.1626782619
C   C75       1.0  0.54250  0.45390  0.87860  1.0000 -0.1304062993
C   C76       1.0  0.52230  0.95350  0.74890  1.0000 0.5704610395
C   C77       1.0  0.70360  0.74490  0.71230  1.0000 0.5704610395
C   C78       1.0  0.81730  0.75470  0.70770  1.0000 -0.0179970856
C   C79       1.0  0.89850  0.81630  0.79680  1.0000 -0.1626782619
C   C80       1.0  0.00680  0.81890  0.79680  1.0000 0.0805842936
C   C81       1.0  0.09350  0.87670  0.88970  1.0000 -0.1504896075
C   C82       1.0  0.19870  0.86930  0.89030  1.0000 -0.1185453453
C   C83       1.0  0.22350  0.80710  0.79740  1.0000 -0.0179970856
C   C84       1.0  0.14120  0.75420  0.70470  1.0000 -0.1698960044
C   C85       1.0  0.03180  0.75830  0.70240  1.0000 0.0805842936
C   C86       1.0  0.94560  0.69860  0.60930  1.0000 -0.1504896075
C   C87       1.0  0.84100  0.69760  0.61200  1.0000 -0.1185453453
C   C88       1.0  0.34030  0.79410  0.79750  1.0000 0.5704610395
N   N1        1.0  0.64320  0.32860  0.51070  1.0000 -0.2105909713
N   N2        1.0  0.96790  0.50050  0.83690  1.0000 -0.3274319821
N   N3        1.0  0.33300  0.17350  0.97470  1.0000 -0.2105909713
N   N4        1.0  0.10010  0.84800  0.14470  1.0000 -0.246213203
N   N5        1.0  0.35680  0.67140  0.48930  1.0000 -0.2105909713
N   N6        1.0  0.03210  0.49950  0.16310  1.0000 -0.3274319821
N   N7        1.0  0.66700  0.82650  0.02530  1.0000 -0.2105909713
N   N8        1.0  0.89990  0.15200  0.85530  1.0000 -0.246213203
O   O1        1.0  0.51460  0.43180  0.33770  1.0000 -0.5280491613
O   O2        1.0  0.45320  0.35260  0.15880  1.0000 -0.5591099762
O   O3        1.0  0.44130  0.04890  0.15670  1.0000 -0.5212086492
O   O4        1.0  0.50950  0.12580  0.33630  1.0000 -0.5591099762
O   O5        1.0  0.37150  0.29620  0.37530  1.0000 -0.5392114871
O   O6        1.0  0.30660  0.22450  0.19610  1.0000 -0.5537484043
O   O7        1.0  0.58560  0.16780  0.11320  1.0000 -0.5280491613
O   O8        1.0  0.64520  0.25090  0.29020  1.0000 -0.5392114871
O   O9        1.0  0.48540  0.56820  0.66230  1.0000 -0.5280491613
O   O10       1.0  0.54680  0.64740  0.84120  1.0000 -0.5591099762
O   O11       1.0  0.55870  0.95110  0.84330  1.0000 -0.5212086492
O   O12       1.0  0.49050  0.87420  0.66370  1.0000 -0.5591099762
O   O13       1.0  0.62850  0.70380  0.62470  1.0000 -0.5392114871
O   O14       1.0  0.69340  0.77550  0.80390  1.0000 -0.5537484043
O   O15       1.0  0.41440  0.83220  0.88680  1.0000 -0.5280491613
O   O16       1.0  0.35480  0.74910  0.70980  1.0000 -0.5392114871
