# DDEC6 charges by PACMAN v1.1 (https://github.com/mtap-research/PACMAN-charge/)
data_2023[Eu][kgd]2[ASR]1
_chemical_formula_sum              "Eu4 H60 C108 O24"
_cell_length_a       15.1047
_cell_length_b       15.1492
_cell_length_c       17.4105
_cell_angle_alpha    81.751
_cell_angle_beta     70.454
_cell_angle_gamma    73.702

_symmetry_space_group_name_H-M    "P 1"
_symmetry_Int_Tables_number       1

loop_
  _symmetry_equiv_pos_as_xyz
  'x, y, z'

loop_
  _atom_site_type_symbol
  _atom_site_label
  _atom_site_symmetry_multiplicity
  _atom_site_fract_x
  _atom_site_fract_y
  _atom_site_fract_z
  _atom_site_occupancy
  _atom_site_charge
Eu  Eu1       1.0  0.11992  0.45640  0.04891  1.0000 2.0201117944
Eu  Eu2       1.0  0.88008  0.54360  0.95109  1.0000 2.0201117944
Eu  Eu3       1.0  0.63753  0.45715  0.51961  1.0000 2.0201117944
Eu  Eu4       1.0  0.36247  0.54285  0.48039  1.0000 2.0201117944
H   H1        1.0  0.16910  0.20541  0.25197  1.0000 0.1183982929
H   H2        1.0  0.83090  0.79459  0.74803  1.0000 0.1183982929
H   H3        1.0  0.20631  0.12717  0.36673  1.0000 0.1089226787
H   H4        1.0  0.79369  0.87283  0.63327  1.0000 0.1089226787
H   H5        1.0  0.23943  0.35874  0.42988  1.0000 0.1280750087
H   H6        1.0  0.76057  0.64126  0.57012  1.0000 0.1280750087
H   H7        1.0  0.19674  0.43906  0.31792  1.0000 0.1280750087
H   H8        1.0  0.80326  0.56094  0.68208  1.0000 0.1280750087
H   H9        1.0  0.55531  0.77593  0.58491  1.0000 0.1183982929
H   H10       1.0  0.44469  0.22407  0.41509  1.0000 0.1183982929
H   H11       1.0  0.47269  0.93081  0.60049  1.0000 0.1089226787
H   H12       1.0  0.52731  0.06919  0.39951  1.0000 0.1089226787
H   H13       1.0  0.32119  0.90975  0.45440  1.0000 0.1089226787
H   H14       1.0  0.67881  0.09025  0.54560  1.0000 0.1089226787
H   H15       1.0  0.40130  0.75503  0.43966  1.0000 0.1280750087
H   H16       1.0  0.59870  0.24497  0.56034  1.0000 0.1280750087
H   H17       1.0  0.25654  0.42369  0.74117  1.0000 0.1280750087
H   H18       1.0  0.74346  0.57631  0.25883  1.0000 0.1280750087
H   H19       1.0  0.28453  0.34626  0.62638  1.0000 0.1183982929
H   H20       1.0  0.71547  0.65374  0.37362  1.0000 0.1183982929
H   H21       1.0  0.25063  0.11456  0.76986  1.0000 0.1089226787
H   H22       1.0  0.74937  0.88544  0.23014  1.0000 0.1089226787
H   H23       1.0  0.22822  0.19120  0.88331  1.0000 0.1089226787
H   H24       1.0  0.77178  0.80880  0.11669  1.0000 0.1089226787
H   H25       1.0  0.31391  0.05817  0.42651  1.0000 0.1089226787
H   H26       1.0  0.68609  0.94183  0.57349  1.0000 0.1089226787
H   H27       1.0  0.34577  0.04636  0.65011  1.0000 0.1089226787
H   H28       1.0  0.65423  0.95364  0.34989  1.0000 0.1089226787
H   H29       1.0  0.21555  0.28769  0.55321  1.0000 0.1183982929
H   H30       1.0  0.78445  0.71231  0.44679  1.0000 0.1183982929
H   H31       1.0  0.70468  0.20366  0.70891  1.0000 0.1183982929
H   H32       1.0  0.29532  0.79634  0.29109  1.0000 0.1183982929
H   H33       1.0  0.73149  0.12598  0.82621  1.0000 0.1089226787
H   H34       1.0  0.26851  0.87402  0.17379  1.0000 0.1089226787
H   H35       1.0  0.78970  0.35033  0.88153  1.0000 0.1183982929
H   H36       1.0  0.21030  0.64967  0.11847  1.0000 0.1280750087
H   H37       1.0  0.75928  0.42960  0.76503  1.0000 0.1280750087
H   H38       1.0  0.24072  0.57040  0.23497  1.0000 0.1280750087
H   H39       1.0  0.91999  0.75028  0.92723  1.0000 0.1280750087
H   H40       1.0  0.08001  0.24972  0.07277  1.0000 0.1280750087
H   H41       1.0  0.84248  0.90601  0.92816  1.0000 0.1183982929
H   H42       1.0  0.15752  0.09399  0.07184  1.0000 0.1183982929
H   H43       1.0  0.95616  0.93852  0.09896  1.0000 0.1089226787
H   H44       1.0  0.04384  0.06148  0.90104  1.0000 0.1089226787
H   H45       1.0  0.03218  0.78223  0.09932  1.0000 0.1183982929
H   H46       1.0  0.96782  0.21777  0.90068  1.0000 0.1183982929
H   H47       1.0  0.73650  0.43555  0.21181  1.0000 0.1280750087
H   H48       1.0  0.26350  0.56445  0.78819  1.0000 0.1280750087
H   H49       1.0  0.76800  0.35599  0.09729  1.0000 0.1183982929
H   H50       1.0  0.23200  0.64401  0.90271  1.0000 0.1183982929
H   H51       1.0  0.71589  0.13038  0.24162  1.0000 0.1089226787
H   H52       1.0  0.28411  0.86962  0.75838  1.0000 0.1089226787
H   H53       1.0  0.69607  0.20756  0.35600  1.0000 0.1089226787
H   H54       1.0  0.30393  0.79244  0.64400  1.0000 0.1089226787
H   H55       1.0  0.83718  0.05299  0.89683  1.0000 0.1089226787
H   H56       1.0  0.16282  0.94701  0.10317  1.0000 0.1089226787
H   H57       1.0  0.82553  0.05658  0.13159  1.0000 0.1089226787
H   H58       1.0  0.17447  0.94342  0.86841  1.0000 0.1089226787
H   H59       1.0  0.72517  0.29200  0.01183  1.0000 0.1183982929
H   H60       1.0  0.27483  0.70800  0.98817  1.0000 0.1183982929
C   C1        1.0  0.15910  0.37930  0.19760  1.0000 0.5605327588
C   C2        1.0  0.84090  0.62070  0.80240  1.0000 0.5605327588
C   C3        1.0  0.17970  0.32990  0.27290  1.0000 -0.017854925
C   C4        1.0  0.82030  0.67010  0.72710  1.0000 -0.0144214958
C   C5        1.0  0.18280  0.23720  0.28810  1.0000 -0.0975507124
C   C6        1.0  0.81720  0.76280  0.71190  1.0000 -0.0975507124
C   C7        1.0  0.20600  0.19050  0.35630  1.0000 -0.151771061
C   C8        1.0  0.79400  0.80950  0.64370  1.0000 -0.151771061
C   C9        1.0  0.22880  0.23390  0.40950  1.0000 0.0620823044
C   C10       1.0  0.77120  0.76610  0.59050  1.0000 0.0620823044
C   C11       1.0  0.22490  0.32720  0.39400  1.0000 -0.1346607555
C   C12       1.0  0.77510  0.67280  0.60600  1.0000 -0.1346607555
C   C13       1.0  0.20000  0.37500  0.32700  1.0000 -0.0804003973
C   C14       1.0  0.80000  0.62500  0.67300  1.0000 -0.0804003973
C   C15       1.0  0.53510  0.65020  0.50650  1.0000 0.6086424541
C   C16       1.0  0.46490  0.34980  0.49350  1.0000 0.6086424541
C   C17       1.0  0.48600  0.74990  0.51150  1.0000 -0.0356629502
C   C18       1.0  0.51400  0.25010  0.48850  1.0000 -0.0356629502
C   C19       1.0  0.50730  0.80290  0.55870  1.0000 -0.0876478453
C   C20       1.0  0.49270  0.19710  0.44130  1.0000 -0.0876478453
C   C21       1.0  0.45840  0.89540  0.56740  1.0000 -0.1594633189
C   C22       1.0  0.54160  0.10460  0.43260  1.0000 -0.1594633189
C   C23       1.0  0.38920  0.93660  0.52870  1.0000 0.0691966329
C   C24       1.0  0.61080  0.06340  0.47130  1.0000 0.0691966329
C   C25       1.0  0.36870  0.88260  0.48110  1.0000 -0.141383806
C   C26       1.0  0.63130  0.11740  0.51890  1.0000 -0.151771061
C   C27       1.0  0.41610  0.79060  0.47230  1.0000 -0.0876478453
C   C28       1.0  0.58390  0.20940  0.52770  1.0000 -0.0876478453
C   C29       1.0  0.21460  0.36650  0.89940  1.0000 0.5774697017
C   C30       1.0  0.78540  0.63350  0.10060  1.0000 0.5774697017
C   C31       1.0  0.23830  0.31630  0.82410  1.0000 -0.017854925
C   C32       1.0  0.76170  0.68370  0.17590  1.0000 -0.017854925
C   C33       1.0  0.25550  0.36060  0.74700  1.0000 -0.0804003973
C   C34       1.0  0.74450  0.63940  0.25300  1.0000 -0.0804003973
C   C35       1.0  0.27130  0.31490  0.67870  1.0000 -0.141383806
C   C36       1.0  0.72870  0.68510  0.32130  1.0000 -0.141383806
C   C37       1.0  0.26780  0.22270  0.68600  1.0000 0.0691966329
C   C38       1.0  0.73220  0.77730  0.31400  1.0000 0.0691966329
C   C39       1.0  0.25190  0.17760  0.76370  1.0000 -0.1594633189
C   C40       1.0  0.74810  0.82240  0.23630  1.0000 -0.1594633189
C   C41       1.0  0.23800  0.22320  0.83130  1.0000 -0.0975507124
C   C42       1.0  0.76200  0.77680  0.16870  1.0000 -0.0975507124
C   C43       1.0  0.25800  0.18080  0.47980  1.0000 0.0878430855
C   C44       1.0  0.74200  0.81920  0.52020  1.0000 0.0878430855
C   C45       1.0  0.30440  0.08770  0.47420  1.0000 -0.206323107
C   C46       1.0  0.69560  0.91230  0.52580  1.0000 -0.2020935375
C   C47       1.0  0.33760  0.03630  0.53710  1.0000 0.0827608321
C   C48       1.0  0.66240  0.96370  0.46290  1.0000 0.0827608321
C   C49       1.0  0.32440  0.08060  0.60660  1.0000 -0.2020935375
C   C50       1.0  0.67560  0.91940  0.39340  1.0000 -0.2020935375
C   C51       1.0  0.28020  0.17470  0.61290  1.0000 0.0878430855
C   C52       1.0  0.71980  0.82530  0.38710  1.0000 0.0878430855
C   C53       1.0  0.24660  0.22390  0.54900  1.0000 -0.1821319434
C   C54       1.0  0.75340  0.77610  0.45100  1.0000 -0.1821319434
C   C55       1.0  0.70870  0.37360  0.64900  1.0000 0.5605327588
C   C56       1.0  0.29130  0.62640  0.35100  1.0000 0.5605327588
C   C57       1.0  0.72770  0.32520  0.72490  1.0000 -0.017854925
C   C58       1.0  0.27230  0.67480  0.27510  1.0000 -0.017854925
C   C59       1.0  0.72100  0.23400  0.74450  1.0000 -0.0975507124
C   C60       1.0  0.27900  0.76600  0.25550  1.0000 -0.0975507124
C   C61       1.0  0.73740  0.18760  0.81380  1.0000 -0.151771061
C   C62       1.0  0.26260  0.81240  0.18620  1.0000 -0.151771061
C   C63       1.0  0.76280  0.23050  0.86650  1.0000 0.0691966329
C   C64       1.0  0.23720  0.76950  0.13350  1.0000 0.0691966329
C   C65       1.0  0.77140  0.32080  0.84670  1.0000 -0.141383806
C   C66       1.0  0.22860  0.67920  0.15330  1.0000 -0.141383806
C   C67       1.0  0.75370  0.36790  0.77730  1.0000 -0.0804003973
C   C68       1.0  0.24630  0.63210  0.22270  1.0000 -0.0804003973
C   C69       1.0  0.02890  0.64970  0.01820  1.0000 0.6086424541
C   C70       1.0  0.97110  0.35030  0.98180  1.0000 0.6086424541
C   C71       1.0  0.98270  0.75030  0.01430  1.0000 -0.0329990137
C   C72       1.0  0.01730  0.24970  0.98570  1.0000 -0.0329990137
C   C73       1.0  0.92680  0.78830  0.96280  1.0000 -0.0876478453
C   C74       1.0  0.07320  0.21170  0.03720  1.0000 -0.0876478453
C   C75       1.0  0.88120  0.88110  0.96310  1.0000 -0.141383806
C   C76       1.0  0.11880  0.11890  0.03690  1.0000 -0.141383806
C   C77       1.0  0.89070  0.93890  0.01380  1.0000 0.0691966329
C   C78       1.0  0.10930  0.06110  0.98620  1.0000 0.0691966329
C   C79       1.0  0.94810  0.90040  0.06430  1.0000 -0.151771061
C   C80       1.0  0.05190  0.09960  0.93570  1.0000 -0.1594633189
C   C81       1.0  0.99340  0.80730  0.06450  1.0000 -0.0876478453
C   C82       1.0  0.00660  0.19270  0.93550  1.0000 -0.0876478453
C   C83       1.0  0.70030  0.37620  0.36860  1.0000 0.5774697017
C   C84       1.0  0.29970  0.62380  0.63140  1.0000 0.5774697017
C   C85       1.0  0.71460  0.32840  0.29490  1.0000 -0.017854925
C   C86       1.0  0.28540  0.67160  0.70510  1.0000 -0.017854925
C   C87       1.0  0.73490  0.37260  0.21780  1.0000 -0.0804003973
C   C88       1.0  0.26510  0.62740  0.78220  1.0000 -0.0804003973
C   C89       1.0  0.75280  0.32540  0.14990  1.0000 -0.1346607555
C   C90       1.0  0.24720  0.67460  0.85010  1.0000 -0.1346607555
C   C91       1.0  0.74900  0.23360  0.15710  1.0000 0.0691966329
C   C92       1.0  0.25100  0.76640  0.84290  1.0000 0.0691966329
C   C93       1.0  0.72360  0.19140  0.23490  1.0000 -0.1594633189
C   C94       1.0  0.27640  0.80860  0.76510  1.0000 -0.1594633189
C   C95       1.0  0.70940  0.23820  0.30340  1.0000 -0.0876478453
C   C96       1.0  0.29060  0.76180  0.69660  1.0000 -0.0876478453
C   C97       1.0  0.77970  0.18060  0.94230  1.0000 0.0827608321
C   C98       1.0  0.22030  0.81940  0.05770  1.0000 0.0827608321
C   C99       1.0  0.82170  0.08580  0.94410  1.0000 -0.206323107
C   C100      1.0  0.17830  0.91420  0.05590  1.0000 -0.206323107
C   C101      1.0  0.84140  0.03820  0.01420  1.0000 0.0827608321
C   C102      1.0  0.15860  0.96180  0.98580  1.0000 0.0827608321
C   C103      1.0  0.81450  0.08810  0.08310  1.0000 -0.2020935375
C   C104      1.0  0.18550  0.91190  0.91690  1.0000 -0.2020935375
C   C105      1.0  0.77250  0.18190  0.08370  1.0000 0.0878430855
C   C106      1.0  0.22750  0.81810  0.91630  1.0000 0.0878430855
C   C107      1.0  0.75470  0.22780  0.01230  1.0000 -0.1855408151
C   C108      1.0  0.24530  0.77220  0.98770  1.0000 -0.1855408151
O   O1        1.0  0.14710  0.46470  0.18550  1.0000 -0.6309119412
O   O2        1.0  0.85290  0.53530  0.81450  1.0000 -0.6309119412
O   O3        1.0  0.15510  0.33120  0.14470  1.0000 -0.6746045399
O   O4        1.0  0.84490  0.66880  0.85530  1.0000 -0.6746045399
O   O5        1.0  0.49880  0.59420  0.48610  1.0000 -0.7288261998
O   O6        1.0  0.50120  0.40580  0.51390  1.0000 -0.7288261998
O   O7        1.0  0.61390  0.62090  0.52350  1.0000 -0.6309119412
O   O8        1.0  0.38610  0.37910  0.47650  1.0000 -0.6309119412
O   O9        1.0  0.22350  0.32310  0.96380  1.0000 -0.6031373787
O   O10       1.0  0.77650  0.67690  0.03620  1.0000 -0.6031373787
O   O11       1.0  0.18230  0.45420  0.89660  1.0000 -0.6500917125
O   O12       1.0  0.81770  0.54580  0.10340  1.0000 -0.6500917125
O   O13       1.0  0.70600  0.45810  0.63370  1.0000 -0.6309119412
O   O14       1.0  0.29400  0.54190  0.36630  1.0000 -0.6309119412
O   O15       1.0  0.69330  0.32830  0.60170  1.0000 -0.6500917125
O   O16       1.0  0.30670  0.67170  0.39830  1.0000 -0.6500917125
O   O17       1.0  0.99740  0.59310  0.99230  1.0000 -0.7288261998
O   O18       1.0  0.00260  0.40690  0.00770  1.0000 -0.7288261998
O   O19       1.0  0.09580  0.61960  0.04920  1.0000 -0.6161067832
O   O20       1.0  0.90420  0.38040  0.95080  1.0000 -0.6161067832
O   O21       1.0  0.71750  0.32940  0.42960  1.0000 -0.6093709517
O   O22       1.0  0.28250  0.67060  0.57040  1.0000 -0.6093709517
O   O23       1.0  0.66900  0.46360  0.36990  1.0000 -0.6500917125
O   O24       1.0  0.33100  0.53640  0.63010  1.0000 -0.6500917125
