# DDEC6 charges by PACMAN v1.1 (https://github.com/mtap-research/PACMAN-charge/)
data_2023[Al][nan]3[ASR]5
_chemical_formula_sum              "Al8 H24 C48 O48"
_cell_length_a       15.8967
_cell_length_b       15.8967
_cell_length_c       15.8967
_cell_angle_alpha    96.2422
_cell_angle_beta     96.2422
_cell_angle_gamma    141.494

_symmetry_space_group_name_H-M    "P 1"
_symmetry_Int_Tables_number       1

loop_
  _symmetry_equiv_pos_as_xyz
  'x, y, z'

loop_
  _atom_site_type_symbol
  _atom_site_label
  _atom_site_symmetry_multiplicity
  _atom_site_fract_x
  _atom_site_fract_y
  _atom_site_fract_z
  _atom_site_occupancy
  _atom_site_charge
Al  Al1       1.0  0.44660  0.87500  0.07160  1.0000 1.6302770581
Al  Al2       1.0  0.80340  0.37500  0.92840  1.0000 1.6302770581
Al  Al3       1.0  0.12500  0.55340  0.92840  1.0000 1.6302770581
Al  Al4       1.0  0.62500  0.19660  0.07160  1.0000 1.6302770581
Al  Al5       1.0  0.80340  0.87500  0.42840  1.0000 1.6302770581
Al  Al6       1.0  0.44660  0.37500  0.57160  1.0000 1.6302770581
Al  Al7       1.0  0.12500  0.19660  0.57160  1.0000 1.6302770581
Al  Al8       1.0  0.62500  0.55340  0.42840  1.0000 1.6302770581
H   H1        1.0  0.48340  0.98340  0.96680  1.0000 0.4271745886
H   H2        1.0  0.01660  0.51660  0.03320  1.0000 0.4271745886
H   H3        1.0  0.76660  0.23340  0.00000  1.0000 0.4271745886
H   H4        1.0  0.23340  0.76660  0.00000  1.0000 0.4271745886
H   H5        1.0  0.76660  0.76660  0.53320  1.0000 0.4271745886
H   H6        1.0  0.23340  0.23340  0.46680  1.0000 0.4271745886
H   H7        1.0  0.48340  0.51660  0.50000  1.0000 0.4271745886
H   H8        1.0  0.01660  0.98340  0.50000  1.0000 0.4271745886
H   H9        1.0  0.00980  0.44440  0.30540  1.0000 0.1406393768
H   H10       1.0  0.13900  0.70440  0.69460  1.0000 0.1406393768
H   H11       1.0  0.24020  0.04560  0.93460  1.0000 0.1406393768
H   H12       1.0  0.55560  0.99020  0.69460  1.0000 0.1406393768
H   H13       1.0  0.95440  0.75980  0.06540  1.0000 0.1406393768
H   H14       1.0  0.69440  0.88900  0.93460  1.0000 0.1406393768
H   H15       1.0  0.29560  0.86100  0.30540  1.0000 0.1406393768
H   H16       1.0  0.11100  0.30560  0.06540  1.0000 0.1406393768
H   H17       1.0  0.24020  0.30560  0.19460  1.0000 0.1406393768
H   H18       1.0  0.11100  0.04560  0.80540  1.0000 0.1406393768
H   H19       1.0  0.00980  0.70440  0.56540  1.0000 0.1406393768
H   H20       1.0  0.69440  0.75980  0.80540  1.0000 0.1406393768
H   H21       1.0  0.29560  0.99020  0.43460  1.0000 0.1406393768
H   H22       1.0  0.55560  0.86100  0.56540  1.0000 0.1406393768
H   H23       1.0  0.95440  0.88900  0.19460  1.0000 0.1406393768
H   H24       1.0  0.13900  0.44440  0.43460  1.0000 0.1406393768
C   C1        1.0  0.73050  0.14140  0.18350  1.0000 0.5953811612
C   C2        1.0  0.95790  0.54700  0.81650  1.0000 0.5953811612
C   C3        1.0  0.51950  0.20300  0.91090  1.0000 0.5947797503
C   C4        1.0  0.85860  0.26950  0.81650  1.0000 0.5953811612
C   C5        1.0  0.79700  0.48050  0.08910  1.0000 0.5953811612
C   C6        1.0  0.39140  0.70790  0.91090  1.0000 0.5953811612
C   C7        1.0  0.45300  0.04210  0.18350  1.0000 0.5953811612
C   C8        1.0  0.29210  0.60860  0.08910  1.0000 0.5947797503
C   C9        1.0  0.51950  0.60860  0.31650  1.0000 0.5953811612
C   C10       1.0  0.29210  0.20300  0.68350  1.0000 0.5953811612
C   C11       1.0  0.73050  0.54700  0.58910  1.0000 0.5953811612
C   C12       1.0  0.39140  0.48050  0.68350  1.0000 0.5953811612
C   C13       1.0  0.45300  0.26950  0.41090  1.0000 0.5953811612
C   C14       1.0  0.85860  0.04210  0.58910  1.0000 0.5953811612
C   C15       1.0  0.79700  0.70790  0.31650  1.0000 0.5947797503
C   C16       1.0  0.95790  0.14140  0.41090  1.0000 0.5953811612
C   C17       1.0  0.84380  0.20730  0.26250  1.0000 0.0887178313
C   C18       1.0  0.94480  0.58130  0.73750  1.0000 0.0887178313
C   C19       1.0  0.40620  0.16870  0.86350  1.0000 0.0887178313
C   C20       1.0  0.79270  0.15620  0.73750  1.0000 0.0887178313
C   C21       1.0  0.83130  0.59380  0.13650  1.0000 0.0887178313
C   C22       1.0  0.45730  0.69480  0.86350  1.0000 0.0887178313
C   C23       1.0  0.41870  0.05520  0.26250  1.0000 0.0887178313
C   C24       1.0  0.30520  0.54270  0.13650  1.0000 0.0887178313
C   C25       1.0  0.40620  0.54270  0.23750  1.0000 0.0887178313
C   C26       1.0  0.30520  0.16870  0.76250  1.0000 0.0887178313
C   C27       1.0  0.84380  0.58130  0.63650  1.0000 0.0887178313
C   C28       1.0  0.45730  0.59380  0.76250  1.0000 0.0887178313
C   C29       1.0  0.41870  0.15620  0.36350  1.0000 0.0887178313
C   C30       1.0  0.79270  0.05520  0.63650  1.0000 0.0887178313
C   C31       1.0  0.83130  0.69480  0.23750  1.0000 0.0887178313
C   C32       1.0  0.94480  0.20730  0.36350  1.0000 0.0887178313
C   C33       1.0  0.96810  0.34800  0.31370  1.0000 -0.1779910019
C   C34       1.0  0.03430  0.65440  0.68630  1.0000 -0.1779910019
C   C35       1.0  0.28190  0.09560  0.87990  1.0000 -0.1779910019
C   C36       1.0  0.65200  0.03190  0.68630  1.0000 -0.1779910019
C   C37       1.0  0.90440  0.71810  0.12010  1.0000 -0.1779910019
C   C38       1.0  0.59800  0.78430  0.87990  1.0000 -0.1779910019
C   C39       1.0  0.34560  0.96570  0.31370  1.0000 -0.1779910019
C   C40       1.0  0.21570  0.40200  0.12010  1.0000 -0.1779910019
C   C41       1.0  0.28190  0.40200  0.18630  1.0000 -0.1779910019
C   C42       1.0  0.21570  0.09560  0.81370  1.0000 -0.1779910019
C   C43       1.0  0.96810  0.65440  0.62010  1.0000 -0.1779910019
C   C44       1.0  0.59800  0.71810  0.81370  1.0000 -0.1779910019
C   C45       1.0  0.34560  0.03190  0.37990  1.0000 -0.1779910019
C   C46       1.0  0.65200  0.96570  0.62010  1.0000 -0.1779910019
C   C47       1.0  0.90440  0.78430  0.18630  1.0000 -0.1779910019
C   C48       1.0  0.03430  0.34800  0.37990  1.0000 -0.1779910019
O   O1        1.0  0.51760  0.01760  0.03520  1.0000 -1.003427783
O   O2        1.0  0.98240  0.48240  0.96480  1.0000 -1.003427783
O   O3        1.0  0.73240  0.26760  0.00000  1.0000 -1.003427783
O   O4        1.0  0.26760  0.73240  0.00000  1.0000 -1.003427783
O   O5        1.0  0.73240  0.73240  0.46480  1.0000 -1.003427783
O   O6        1.0  0.26760  0.26760  0.53520  1.0000 -1.003427783
O   O7        1.0  0.51760  0.48240  0.50000  1.0000 -1.003427783
O   O8        1.0  0.98240  0.01760  0.50000  1.0000 -1.003427783
O   O9        1.0  0.63580  0.01230  0.14070  1.0000 -0.5544210467
O   O10       1.0  0.87160  0.49510  0.85930  1.0000 -0.5550368223
O   O11       1.0  0.61420  0.25490  0.87650  1.0000 -0.5550368223
O   O12       1.0  0.98770  0.36420  0.85930  1.0000 -0.5544210467
O   O13       1.0  0.74510  0.38580  0.12350  1.0000 -0.5544210467
O   O14       1.0  0.26230  0.62160  0.87650  1.0000 -0.5550368223
O   O15       1.0  0.50490  0.12840  0.14070  1.0000 -0.5544210467
O   O16       1.0  0.37840  0.73770  0.12350  1.0000 -0.5544210467
O   O17       1.0  0.61420  0.73770  0.35930  1.0000 -0.5550368223
O   O18       1.0  0.37840  0.25490  0.64070  1.0000 -0.5544210467
O   O19       1.0  0.63580  0.49510  0.62350  1.0000 -0.5544210467
O   O20       1.0  0.26230  0.38580  0.64070  1.0000 -0.5550368223
O   O21       1.0  0.50490  0.36420  0.37650  1.0000 -0.5544210467
O   O22       1.0  0.98770  0.12840  0.62350  1.0000 -0.5544210467
O   O23       1.0  0.74510  0.62160  0.35930  1.0000 -0.5544210467
O   O24       1.0  0.87160  0.01230  0.37650  1.0000 -0.5544210467
O   O25       1.0  0.73650  0.21800  0.15850  1.0000 -0.5746221486
O   O26       1.0  0.05950  0.57800  0.84150  1.0000 -0.5746221486
O   O27       1.0  0.51350  0.17200  0.98150  1.0000 -0.5746221486
O   O28       1.0  0.78200  0.26350  0.84150  1.0000 -0.5746221486
O   O29       1.0  0.82800  0.48650  0.01850  1.0000 -0.5746221486
O   O30       1.0  0.46800  0.80950  0.98150  1.0000 -0.5746221486
O   O31       1.0  0.42200  0.94050  0.15850  1.0000 -0.5746221486
O   O32       1.0  0.19050  0.53200  0.01850  1.0000 -0.5746221486
O   O33       1.0  0.51350  0.53200  0.34150  1.0000 -0.5746221486
O   O34       1.0  0.19050  0.17200  0.65850  1.0000 -0.5746221486
O   O35       1.0  0.73650  0.57800  0.51850  1.0000 -0.5746221486
O   O36       1.0  0.46800  0.48650  0.65850  1.0000 -0.5746221486
O   O37       1.0  0.42200  0.26350  0.48150  1.0000 -0.5746221486
O   O38       1.0  0.78200  0.94050  0.51850  1.0000 -0.5746221486
O   O39       1.0  0.82800  0.80950  0.34150  1.0000 -0.5746221486
O   O40       1.0  0.05950  0.21800  0.48150  1.0000 -0.5746221486
O   O41       1.0  0.83178  0.12500  0.29322  1.0000 -0.088821819
O   O42       1.0  0.83178  0.53856  0.70678  1.0000 -0.088821819
O   O43       1.0  0.41822  0.21144  0.79322  1.0000 -0.088821819
O   O44       1.0  0.87500  0.16822  0.70678  1.0000 -0.088821819
O   O45       1.0  0.78856  0.58178  0.20678  1.0000 -0.088821819
O   O46       1.0  0.37500  0.58178  0.79322  1.0000 -0.088821819
O   O47       1.0  0.46144  0.16822  0.29322  1.0000 -0.088821819
O   O48       1.0  0.41822  0.62500  0.20678  1.0000 -0.088821819
