# DDEC6 charges by PACMAN v1.1 (https://github.com/mtap-research/PACMAN-charge/)
data_2023[Zn][nan]2[ASR]4
_chemical_formula_sum              "Zn4 H52 C72 N16 O16"
_cell_length_a       10.1346
_cell_length_b       11.1151
_cell_length_c       28.7374
_cell_angle_alpha    90
_cell_angle_beta     90
_cell_angle_gamma    90

_symmetry_space_group_name_H-M    "P 1"
_symmetry_Int_Tables_number       1

loop_
  _symmetry_equiv_pos_as_xyz
  'x, y, z'

loop_
  _atom_site_type_symbol
  _atom_site_label
  _atom_site_symmetry_multiplicity
  _atom_site_fract_x
  _atom_site_fract_y
  _atom_site_fract_z
  _atom_site_occupancy
  _atom_site_charge
Zn  Zn1       1.0  0.24477  0.39237  0.14283  1.0000 0.7381941025
Zn  Zn2       1.0  0.24477  0.60763  0.85717  1.0000 0.7381941025
Zn  Zn3       1.0  0.75523  0.89237  0.35717  1.0000 0.7381941025
Zn  Zn4       1.0  0.75523  0.10763  0.64283  1.0000 0.7381941025
H   H1        1.0  0.14795  0.93142  0.28392  1.0000 0.268461371
H   H2        1.0  0.14795  0.06858  0.71608  1.0000 0.268461371
H   H3        1.0  0.37992  0.85681  0.27952  1.0000 0.268461371
H   H4        1.0  0.37992  0.14319  0.72048  1.0000 0.268461371
H   H5        1.0  0.74629  0.36448  0.14634  1.0000 0.1100410417
H   H6        1.0  0.74629  0.63552  0.85366  1.0000 0.1100410417
H   H7        1.0  0.93953  0.49068  0.03501  1.0000 0.117666234
H   H8        1.0  0.93953  0.50932  0.96499  1.0000 0.117666234
H   H9        1.0  0.54548  0.44985  0.03125  1.0000 0.117666234
H   H10       1.0  0.54548  0.55015  0.96875  1.0000 0.117666234
H   H11       1.0  0.08868  0.29563  0.22221  1.0000 0.1100410417
H   H12       1.0  0.08868  0.70437  0.77779  1.0000 0.1100410417
H   H13       1.0  0.07658  0.12939  0.26843  1.0000 0.1408496743
H   H14       1.0  0.07658  0.87061  0.73157  1.0000 0.1408496743
H   H15       1.0  0.36936  0.98185  0.19354  1.0000 0.1408496743
H   H16       1.0  0.36936  0.01815  0.80646  1.0000 0.1408496743
H   H17       1.0  0.36946  0.14850  0.14831  1.0000 0.117666234
H   H18       1.0  0.36946  0.85150  0.85169  1.0000 0.117666234
H   H19       1.0  0.13489  0.80199  0.19813  1.0000 0.1408496743
H   H20       1.0  0.13489  0.19801  0.80187  1.0000 0.1408496743
H   H21       1.0  0.12070  0.63146  0.15444  1.0000 0.117666234
H   H22       1.0  0.12070  0.36854  0.84556  1.0000 0.117666234
H   H23       1.0  0.40898  0.48155  0.22332  1.0000 0.1100410417
H   H24       1.0  0.40898  0.51845  0.77668  1.0000 0.1100410417
H   H25       1.0  0.43620  0.64992  0.26748  1.0000 0.1408496743
H   H26       1.0  0.43620  0.35008  0.73252  1.0000 0.1408496743
H   H27       1.0  0.85205  0.43142  0.21608  1.0000 0.268461371
H   H28       1.0  0.85205  0.56858  0.78392  1.0000 0.268461371
H   H29       1.0  0.62008  0.35681  0.22048  1.0000 0.268461371
H   H30       1.0  0.62008  0.64319  0.77952  1.0000 0.268461371
H   H31       1.0  0.25371  0.86448  0.35366  1.0000 0.1100410417
H   H32       1.0  0.25371  0.13552  0.64634  1.0000 0.1100410417
H   H33       1.0  0.06047  0.99068  0.46499  1.0000 0.117666234
H   H34       1.0  0.06047  0.00932  0.53501  1.0000 0.117666234
H   H35       1.0  0.45452  0.94985  0.46875  1.0000 0.117666234
H   H36       1.0  0.45452  0.05015  0.53125  1.0000 0.117666234
H   H37       1.0  0.91132  0.79563  0.27779  1.0000 0.1100410417
H   H38       1.0  0.91132  0.20437  0.72221  1.0000 0.1100410417
H   H39       1.0  0.92342  0.62939  0.23157  1.0000 0.1408496743
H   H40       1.0  0.92342  0.37061  0.76843  1.0000 0.1408496743
H   H41       1.0  0.63064  0.48185  0.30646  1.0000 0.1408496743
H   H42       1.0  0.63064  0.51815  0.69354  1.0000 0.1408496743
H   H43       1.0  0.63054  0.64850  0.35169  1.0000 0.117666234
H   H44       1.0  0.63054  0.35150  0.64831  1.0000 0.117666234
H   H45       1.0  0.86511  0.30199  0.30187  1.0000 0.1408496743
H   H46       1.0  0.86511  0.69801  0.69813  1.0000 0.1408496743
H   H47       1.0  0.87930  0.13146  0.34556  1.0000 0.117666234
H   H48       1.0  0.87930  0.86854  0.65444  1.0000 0.117666234
H   H49       1.0  0.59102  0.98155  0.27668  1.0000 0.1100410417
H   H50       1.0  0.59102  0.01845  0.72332  1.0000 0.1100410417
H   H51       1.0  0.56380  0.14992  0.23252  1.0000 0.1408496743
H   H52       1.0  0.56380  0.85008  0.76748  1.0000 0.1408496743
C   C1        1.0  0.62610  0.40440  0.09323  1.0000 -0.0267960027
C   C2        1.0  0.62610  0.59560  0.90677  1.0000 -0.0267960027
C   C3        1.0  0.74450  0.39420  0.11609  1.0000 -0.1462129111
C   C4        1.0  0.74450  0.60580  0.88391  1.0000 -0.1462129111
C   C5        1.0  0.86240  0.42780  0.09451  1.0000 -0.0203585493
C   C6        1.0  0.86240  0.57220  0.90549  1.0000 -0.0203585493
C   C7        1.0  0.86070  0.46870  0.04923  1.0000 -0.1415691914
C   C8        1.0  0.86070  0.53130  0.95077  1.0000 -0.1415691914
C   C9        1.0  0.74260  0.47770  0.02428  1.0000 0.0654812997
C   C10       1.0  0.74260  0.52230  0.97572  1.0000 0.0654812997
C   C11       1.0  0.62530  0.44470  0.04712  1.0000 -0.1415691914
C   C12       1.0  0.62530  0.55530  0.95288  1.0000 -0.1415691914
C   C13       1.0  0.50120  0.38170  0.11923  1.0000 0.5499182215
C   C14       1.0  0.50120  0.61830  0.88077  1.0000 0.5499182215
C   C15       1.0  0.98890  0.41920  0.12203  1.0000 0.5499182215
C   C16       1.0  0.98890  0.58080  0.87797  1.0000 0.5499182215
C   C17       1.0  0.14480  0.23130  0.21621  1.0000 0.0781034056
C   C18       1.0  0.14480  0.76870  0.78379  1.0000 0.0781034056
C   C19       1.0  0.13760  0.13200  0.24427  1.0000 -0.2523156757
C   C20       1.0  0.13760  0.86800  0.75573  1.0000 -0.2523156757
C   C21       1.0  0.22110  0.03530  0.23664  1.0000 0.2314012145
C   C22       1.0  0.22110  0.96470  0.76336  1.0000 0.2314012145
C   C23       1.0  0.31060  0.04410  0.19970  1.0000 -0.2313893492
C   C24       1.0  0.31060  0.95590  0.80030  1.0000 -0.2313893492
C   C25       1.0  0.31050  0.14470  0.17306  1.0000 0.0932914858
C   C26       1.0  0.31050  0.85530  0.82694  1.0000 0.0932914858
C   C27       1.0  0.28850  0.74660  0.23777  1.0000 0.2314012145
C   C28       1.0  0.28850  0.25340  0.76223  1.0000 0.2314012145
C   C29       1.0  0.19270  0.73850  0.20348  1.0000 -0.2313893492
C   C30       1.0  0.19270  0.26150  0.79652  1.0000 -0.2313893492
C   C31       1.0  0.18450  0.63530  0.17765  1.0000 0.0932914858
C   C32       1.0  0.18450  0.36470  0.82235  1.0000 0.0932914858
C   C33       1.0  0.35460  0.54750  0.21790  1.0000 0.0781034056
C   C34       1.0  0.35460  0.45250  0.78210  1.0000 0.0781034056
C   C35       1.0  0.37090  0.64760  0.24476  1.0000 -0.2421766434
C   C36       1.0  0.37090  0.35240  0.75524  1.0000 -0.2421766434
C   C37       1.0  0.37390  0.90440  0.40677  1.0000 -0.0267960027
C   C38       1.0  0.37390  0.09560  0.59323  1.0000 -0.0267960027
C   C39       1.0  0.25550  0.89420  0.38391  1.0000 -0.1462129111
C   C40       1.0  0.25550  0.10580  0.61609  1.0000 -0.1462129111
C   C41       1.0  0.13760  0.92780  0.40549  1.0000 -0.0203585493
C   C42       1.0  0.13760  0.07220  0.59451  1.0000 -0.0203585493
C   C43       1.0  0.13930  0.96870  0.45077  1.0000 -0.1415691914
C   C44       1.0  0.13930  0.03130  0.54923  1.0000 -0.1415691914
C   C45       1.0  0.25740  0.97770  0.47572  1.0000 0.0654812997
C   C46       1.0  0.25740  0.02230  0.52428  1.0000 0.0654812997
C   C47       1.0  0.37470  0.94470  0.45288  1.0000 -0.1415691914
C   C48       1.0  0.37470  0.05530  0.54712  1.0000 -0.1415691914
C   C49       1.0  0.49880  0.88170  0.38077  1.0000 0.5499182215
C   C50       1.0  0.49880  0.11830  0.61923  1.0000 0.5499182215
C   C51       1.0  0.01110  0.91920  0.37797  1.0000 0.5499182215
C   C52       1.0  0.01110  0.08080  0.62203  1.0000 0.5499182215
C   C53       1.0  0.85520  0.73130  0.28379  1.0000 0.0781034056
C   C54       1.0  0.85520  0.26870  0.71621  1.0000 0.0781034056
C   C55       1.0  0.86240  0.63200  0.25573  1.0000 -0.2523156757
C   C56       1.0  0.86240  0.36800  0.74427  1.0000 -0.2523156757
C   C57       1.0  0.77890  0.53530  0.26336  1.0000 0.2314012145
C   C58       1.0  0.77890  0.46470  0.73664  1.0000 0.2314012145
C   C59       1.0  0.68940  0.54410  0.30030  1.0000 -0.2313893492
C   C60       1.0  0.68940  0.45590  0.69970  1.0000 -0.2313893492
C   C61       1.0  0.68950  0.64470  0.32694  1.0000 0.0932914858
C   C62       1.0  0.68950  0.35530  0.67306  1.0000 0.0932914858
C   C63       1.0  0.71150  0.24660  0.26223  1.0000 0.2314012145
C   C64       1.0  0.71150  0.75340  0.73777  1.0000 0.2314012145
C   C65       1.0  0.80730  0.23850  0.29652  1.0000 -0.2313893492
C   C66       1.0  0.80730  0.76150  0.70348  1.0000 -0.2313893492
C   C67       1.0  0.81550  0.13530  0.32235  1.0000 0.0932914858
C   C68       1.0  0.81550  0.86470  0.67765  1.0000 0.0932914858
C   C69       1.0  0.64540  0.04750  0.28210  1.0000 0.0781034056
C   C70       1.0  0.64540  0.95250  0.71790  1.0000 0.0781034056
C   C71       1.0  0.62910  0.14760  0.25524  1.0000 -0.2421766434
C   C72       1.0  0.62910  0.85240  0.74476  1.0000 -0.2421766434
N   N1        1.0  0.22990  0.24000  0.18020  1.0000 -0.2421766434
N   N2        1.0  0.22990  0.76000  0.81980  1.0000 -0.2421766434
N   N3        1.0  0.21320  0.93780  0.26495  1.0000 -0.2313893492
N   N4        1.0  0.21320  0.06220  0.73505  1.0000 -0.2313893492
N   N5        1.0  0.30820  0.84850  0.26383  1.0000 -0.2421766434
N   N6        1.0  0.30820  0.15150  0.73617  1.0000 -0.2421766434
N   N7        1.0  0.26310  0.53940  0.18379  1.0000 -0.2421766434
N   N8        1.0  0.26310  0.46060  0.81621  1.0000 -0.2421766434
N   N9        1.0  0.77010  0.74000  0.31980  1.0000 -0.2421766434
N   N10       1.0  0.77010  0.26000  0.68020  1.0000 -0.2421766434
N   N11       1.0  0.78680  0.43780  0.23505  1.0000 -0.2313893492
N   N12       1.0  0.78680  0.56220  0.76495  1.0000 -0.2313893492
N   N13       1.0  0.69180  0.34850  0.23617  1.0000 -0.2421766434
N   N14       1.0  0.69180  0.65150  0.76383  1.0000 -0.2421766434
N   N15       1.0  0.73690  0.03940  0.31621  1.0000 -0.2421766434
N   N16       1.0  0.73690  0.96060  0.68379  1.0000 -0.2421766434
O   O1        1.0  0.39210  0.39090  0.09692  1.0000 -0.5292177255
O   O2        1.0  0.39210  0.60910  0.90308  1.0000 -0.5292177255
O   O3        1.0  0.50740  0.35790  0.16163  1.0000 -0.594286328
O   O4        1.0  0.50740  0.64210  0.83837  1.0000 -0.594286328
O   O5        1.0  0.09510  0.41820  0.09968  1.0000 -0.5103855932
O   O6        1.0  0.09510  0.58180  0.90032  1.0000 -0.5103855932
O   O7        1.0  0.98210  0.41320  0.16506  1.0000 -0.5846277679
O   O8        1.0  0.98210  0.58680  0.83494  1.0000 -0.5846277679
O   O9        1.0  0.60790  0.89090  0.40308  1.0000 -0.5292177255
O   O10       1.0  0.60790  0.10910  0.59692  1.0000 -0.5292177255
O   O11       1.0  0.49260  0.85790  0.33837  1.0000 -0.594286328
O   O12       1.0  0.49260  0.14210  0.66163  1.0000 -0.594286328
O   O13       1.0  0.90490  0.91820  0.40032  1.0000 -0.5103855932
O   O14       1.0  0.90490  0.08180  0.59968  1.0000 -0.5103855932
O   O15       1.0  0.01790  0.91320  0.33494  1.0000 -0.5846277679
O   O16       1.0  0.01790  0.08680  0.66506  1.0000 -0.5846277679
