# DDEC6 charges by PACMAN v1.1 (https://github.com/mtap-research/PACMAN-charge/)
data_2023[Zn][sql]2[ASR]1
_chemical_formula_sum              "Zn2 H36 C60 N8 O8"
_cell_length_a       6.927
_cell_length_b       12.709
_cell_length_c       16.796
_cell_angle_alpha    106.317
_cell_angle_beta     98.955
_cell_angle_gamma    91.372

_symmetry_space_group_name_H-M    "P 1"
_symmetry_Int_Tables_number       1

loop_
  _symmetry_equiv_pos_as_xyz
  'x, y, z'

loop_
  _atom_site_type_symbol
  _atom_site_label
  _atom_site_symmetry_multiplicity
  _atom_site_fract_x
  _atom_site_fract_y
  _atom_site_fract_z
  _atom_site_occupancy
  _atom_site_charge
Zn  Zn1       1.0  0.79988  0.98537  0.80271  1.0000 0.7486046081
Zn  Zn2       1.0  0.20012  0.01463  0.19729  1.0000 0.7486046081
H   H1        1.0  0.19126  0.17278  0.76801  1.0000 0.1398149347
H   H2        1.0  0.80874  0.82722  0.23199  1.0000 0.1398149347
H   H3        1.0  0.33618  0.02671  0.51473  1.0000 0.1196282652
H   H4        1.0  0.66382  0.97329  0.48527  1.0000 0.1196282652
H   H5        1.0  0.38035  0.04106  0.79923  1.0000 0.1124169191
H   H6        1.0  0.61965  0.95894  0.20077  1.0000 0.1124169191
H   H7        1.0  0.78611  0.79359  0.86715  1.0000 0.1196282652
H   H8        1.0  0.21389  0.20641  0.13285  1.0000 0.1196282652
H   H9        1.0  0.19748  0.00780  0.62611  1.0000 0.1196282652
H   H10       1.0  0.80252  0.99220  0.37389  1.0000 0.1196282652
H   H11       1.0  0.85640  0.22382  0.82461  1.0000 0.1196282652
H   H12       1.0  0.14360  0.77618  0.17539  1.0000 0.1196282652
H   H13       1.0  0.61019  0.62876  0.84488  1.0000 0.1398149347
H   H14       1.0  0.38981  0.37124  0.15512  1.0000 0.1398149347
H   H15       1.0  0.44108  0.17345  0.98657  1.0000 0.1124169191
H   H16       1.0  0.55892  0.82655  0.01343  1.0000 0.1124169191
H   H17       1.0  0.41515  0.86831  0.69604  1.0000 0.1124169191
H   H18       1.0  0.58485  0.13169  0.30396  1.0000 0.1124169191
H   H19       1.0  0.74788  0.13876  0.04615  1.0000 0.1196282652
H   H20       1.0  0.25212  0.86124  0.95385  1.0000 0.1196282652
H   H21       1.0  0.70214  0.53334  0.65807  1.0000 0.1124169191
H   H22       1.0  0.29786  0.46666  0.34193  1.0000 0.1124169191
H   H23       1.0  0.39962  0.49177  0.57500  1.0000 0.1124169191
H   H24       1.0  0.60038  0.50823  0.42500  1.0000 0.1124169191
H   H25       1.0  0.22574  0.71100  0.67250  1.0000 0.1398149347
H   H26       1.0  0.77426  0.28900  0.32750  1.0000 0.1398149347
H   H27       1.0  0.05820  0.26382  0.68101  1.0000 0.1273837401
H   H28       1.0  0.94180  0.73618  0.31899  1.0000 0.1273837401
H   H29       1.0  0.02959  0.57612  0.67575  1.0000 0.1398149347
H   H30       1.0  0.97041  0.42388  0.32425  1.0000 0.1398149347
H   H31       1.0  0.68166  0.35989  0.79214  1.0000 0.1398149347
H   H32       1.0  0.31834  0.64011  0.20786  1.0000 0.1398149347
H   H33       1.0  0.85192  0.22948  0.55606  1.0000 0.1196282652
H   H34       1.0  0.14808  0.77052  0.44394  1.0000 0.1196282652
H   H35       1.0  0.54432  0.18471  0.47495  1.0000 0.1273837401
H   H36       1.0  0.45568  0.81529  0.52505  1.0000 0.1273837401
C   C1        1.0  0.91530  0.98950  0.56820  1.0000 -0.0259460198
C   C2        1.0  0.08470  0.01050  0.43180  1.0000 -0.0259460198
C   C3        1.0  0.82250  0.98100  0.64150  1.0000 0.5509695536
C   C4        1.0  0.17750  0.01900  0.35850  1.0000 0.5509695536
C   C5        1.0  0.31540  0.01990  0.96400  1.0000 -0.0259460198
C   C6        1.0  0.68460  0.98010  0.03600  1.0000 -0.0259460198
C   C7        1.0  0.32700  0.18420  0.77740  1.0000 -0.1726779887
C   C8        1.0  0.67300  0.81580  0.22260  1.0000 -0.1726779887
C   C9        1.0  0.11960  0.04200  0.92110  1.0000 0.5509695536
C   C10       1.0  0.88040  0.95800  0.07890  1.0000 0.5509695536
C   C11       1.0  0.29650  0.36370  0.74380  1.0000 0.2050352519
C   C12       1.0  0.70350  0.63630  0.25620  1.0000 0.2050352519
C   C13       1.0  0.39510  0.65080  0.75620  1.0000 0.0982704759
C   C14       1.0  0.60490  0.34920  0.24380  1.0000 0.0982704759
C   C15       1.0  0.20080  0.01570  0.50850  1.0000 -0.1116730986
C   C16       1.0  0.79920  0.98430  0.49150  1.0000 -0.1116730986
C   C17       1.0  0.44170  0.10570  0.79680  1.0000 0.0930111682
C   C18       1.0  0.55830  0.89430  0.20320  1.0000 0.0930111682
C   C19       1.0  0.67320  0.77580  0.82670  1.0000 0.0982704759
C   C20       1.0  0.32680  0.22420  0.17330  1.0000 0.0982704759
C   C21       1.0  0.11750  0.00480  0.57550  1.0000 -0.119147996
C   C22       1.0  0.88250  0.99520  0.42450  1.0000 -0.119147996
C   C23       1.0  0.41350  0.28050  0.77190  1.0000 0.0982704759
C   C24       1.0  0.58650  0.71950  0.22810  1.0000 0.0982704759
C   C25       1.0  0.72060  0.21280  0.81140  1.0000 0.0799781224
C   C26       1.0  0.27940  0.78720  0.18860  1.0000 0.0799781224
C   C27       1.0  0.00740  0.41400  0.66840  1.0000 0.1196282652
C   C28       1.0  0.99260  0.58600  0.33160  1.0000 0.1196282652
C   C29       1.0  0.56670  0.67690  0.81440  1.0000 -0.1831731672
C   C30       1.0  0.43330  0.32310  0.18560  1.0000 -0.1831731672
C   C31       1.0  0.80880  0.38620  0.61590  1.0000 0.074778696
C   C32       1.0  0.19120  0.61380  0.38410  1.0000 0.0799781224
C   C33       1.0  0.28360  0.54240  0.73780  1.0000 0.1975978738
C   C34       1.0  0.71640  0.45760  0.26220  1.0000 0.1975978738
C   C35       1.0  0.46460  0.10380  0.99190  1.0000 -0.119147996
C   C36       1.0  0.53540  0.89620  0.00810  1.0000 -0.119147996
C   C37       1.0  0.45450  0.81970  0.72680  1.0000 0.0799781224
C   C38       1.0  0.54550  0.18030  0.27320  1.0000 0.0799781224
C   C39       1.0  0.64810  0.08280  0.02760  1.0000 -0.1116730986
C   C40       1.0  0.35190  0.91720  0.97240  1.0000 -0.1116730986
C   C41       1.0  0.44130  0.33410  0.51670  1.0000 0.0459218523
C   C42       1.0  0.55870  0.66590  0.48330  1.0000 0.0459218523
C   C43       1.0  0.67130  0.46340  0.62080  1.0000 -0.14461642
C   C44       1.0  0.32870  0.53660  0.37920  1.0000 -0.14461642
C   C45       1.0  0.49020  0.43850  0.57160  1.0000 -0.1333556646
C   C46       1.0  0.50980  0.56150  0.42840  1.0000 -0.1333556646
C   C47       1.0  0.34030  0.72530  0.71210  1.0000 -0.1831731672
C   C48       1.0  0.65970  0.27470  0.28790  1.0000 -0.1831731672
C   C49       1.0  0.11210  0.33580  0.69540  1.0000 -0.2214730158
C   C50       1.0  0.88790  0.66420  0.30460  1.0000 -0.2214730158
C   C51       1.0  0.09600  0.52040  0.69140  1.0000 -0.2214730158
C   C52       1.0  0.90400  0.47960  0.30860  1.0000 -0.2214730158
C   C53       1.0  0.61690  0.29490  0.79200  1.0000 -0.1726779887
C   C54       1.0  0.38310  0.70510  0.20800  1.0000 -0.1726779887
C   C55       1.0  0.75980  0.28200  0.56030  1.0000 -0.1333556646
C   C56       1.0  0.24020  0.71800  0.43970  1.0000 -0.1333556646
C   C57       1.0  0.57660  0.25510  0.51130  1.0000 -0.119147996
C   C58       1.0  0.42340  0.74490  0.48870  1.0000 -0.119147996
C   C59       1.0  0.24980  0.31060  0.46370  1.0000 0.2638300484
C   C60       1.0  0.75020  0.68940  0.53630  1.0000 0.2638300484
N   N1        1.0  0.62060  0.84640  0.78300  1.0000 -0.230881522
N   N2        1.0  0.37940  0.15360  0.21700  1.0000 -0.230881522
N   N3        1.0  0.63620  0.11710  0.81240  1.0000 -0.2214730158
N   N4        1.0  0.36380  0.88290  0.18760  1.0000 -0.2214730158
N   N5        1.0  0.38270  0.46530  0.76440  1.0000 -0.3318404728
N   N6        1.0  0.61730  0.53470  0.23560  1.0000 -0.3318404728
N   N7        1.0  0.10190  0.29510  0.42250  1.0000 -0.3609323973
N   N8        1.0  0.89810  0.70490  0.57750  1.0000 -0.3609323973
O   O1        1.0  0.64360  0.96400  0.63250  1.0000 -0.5488216752
O   O2        1.0  0.35640  0.03600  0.36750  1.0000 -0.5488216752
O   O3        1.0  0.99910  0.95790  0.88770  1.0000 -0.5488216752
O   O4        1.0  0.00090  0.04210  0.11230  1.0000 -0.5488216752
O   O5        1.0  0.94070  0.99330  0.71150  1.0000 -0.5553751463
O   O6        1.0  0.05930  0.00670  0.28850  1.0000 -0.5553751463
O   O7        1.0  0.08670  0.13480  0.91600  1.0000 -0.5446063751
O   O8        1.0  0.91330  0.86520  0.08400  1.0000 -0.5446063751
