# DDEC6 charges by PACMAN v1.1 (https://github.com/mtap-research/PACMAN-charge/)
data_2023[U][nan]3[ASR]1
_chemical_formula_sum              "U8 H128 C224 O40"
_cell_length_a       10.1072
_cell_length_b       18.1132
_cell_length_c       33.1837
_cell_angle_alpha    90
_cell_angle_beta     90
_cell_angle_gamma    90

_symmetry_space_group_name_H-M    "P 1"
_symmetry_Int_Tables_number       1

loop_
  _symmetry_equiv_pos_as_xyz
  'x, y, z'

loop_
  _atom_site_type_symbol
  _atom_site_label
  _atom_site_symmetry_multiplicity
  _atom_site_fract_x
  _atom_site_fract_y
  _atom_site_fract_z
  _atom_site_occupancy
  _atom_site_charge
U   U1        1.0  0.46735  0.22601  0.45482  1.0000 2.0414860818
U   U2        1.0  0.03265  0.22601  0.54518  1.0000 2.0414860818
U   U3        1.0  0.03265  0.72601  0.95482  1.0000 2.0414860818
U   U4        1.0  0.46735  0.72601  0.04518  1.0000 2.0414860818
U   U5        1.0  0.96735  0.27399  0.04518  1.0000 2.0414860818
U   U6        1.0  0.53265  0.27399  0.95482  1.0000 2.0414860818
U   U7        1.0  0.53265  0.77399  0.54518  1.0000 2.0414860818
U   U8        1.0  0.96735  0.77399  0.45482  1.0000 2.0414860818
H   H1        1.0  0.78840  0.12560  0.35930  1.0000 0.1275180701
H   H2        1.0  0.71160  0.12560  0.64070  1.0000 0.1275180701
H   H3        1.0  0.71160  0.62560  0.85930  1.0000 0.1275180701
H   H4        1.0  0.78840  0.62560  0.14070  1.0000 0.1275180701
H   H5        1.0  0.86360  0.05760  0.30660  1.0000 0.1122921555
H   H6        1.0  0.63640  0.05760  0.69340  1.0000 0.1122921555
H   H7        1.0  0.63640  0.55760  0.80660  1.0000 0.1122921555
H   H8        1.0  0.86360  0.55760  0.19340  1.0000 0.1122921555
H   H9        1.0  0.50360  0.06200  0.25770  1.0000 0.1122921555
H   H10       1.0  0.99640  0.06200  0.74230  1.0000 0.1122921555
H   H11       1.0  0.99640  0.56200  0.75770  1.0000 0.1122921555
H   H12       1.0  0.50360  0.56200  0.24230  1.0000 0.1122921555
H   H13       1.0  0.42480  0.12640  0.31180  1.0000 0.1189737629
H   H14       1.0  0.07520  0.12640  0.68820  1.0000 0.1189737629
H   H15       1.0  0.07520  0.62640  0.81180  1.0000 0.1189737629
H   H16       1.0  0.42480  0.62640  0.18820  1.0000 0.1189737629
H   H17       1.0  0.61130  0.92090  0.29440  1.0000 0.1001185376
H   H18       1.0  0.88870  0.92090  0.70560  1.0000 0.1001185376
H   H19       1.0  0.88870  0.42090  0.79440  1.0000 0.1001185376
H   H20       1.0  0.61130  0.42090  0.20560  1.0000 0.1001185376
H   H21       1.0  0.56710  0.79860  0.29250  1.0000 0.1001185376
H   H22       1.0  0.93290  0.79860  0.70750  1.0000 0.1001185376
H   H23       1.0  0.93290  0.29860  0.79250  1.0000 0.1001185376
H   H24       1.0  0.56710  0.29860  0.20750  1.0000 0.1001185376
H   H25       1.0  0.65680  0.72550  0.24170  1.0000 0.1001185376
H   H26       1.0  0.84320  0.72550  0.75830  1.0000 0.1001185376
H   H27       1.0  0.84320  0.22550  0.74170  1.0000 0.1001185376
H   H28       1.0  0.65680  0.22550  0.25830  1.0000 0.1001185376
H   H29       1.0  0.77970  0.77560  0.19070  1.0000 0.1001185376
H   H30       1.0  0.72030  0.77560  0.80930  1.0000 0.1001185376
H   H31       1.0  0.72030  0.27560  0.69070  1.0000 0.1001185376
H   H32       1.0  0.77970  0.27560  0.30930  1.0000 0.1001185376
H   H33       1.0  0.81280  0.14510  0.23230  1.0000 0.1001185376
H   H34       1.0  0.68720  0.14510  0.76770  1.0000 0.1001185376
H   H35       1.0  0.68720  0.64510  0.73230  1.0000 0.1001185376
H   H36       1.0  0.81280  0.64510  0.26770  1.0000 0.1001185376
H   H37       1.0  0.93630  0.19680  0.18100  1.0000 0.1001185376
H   H38       1.0  0.56370  0.19680  0.81900  1.0000 0.1001185376
H   H39       1.0  0.56370  0.69680  0.68100  1.0000 0.1001185376
H   H40       1.0  0.93630  0.69680  0.31900  1.0000 0.1001185376
H   H41       1.0  0.01430  0.12420  0.12790  1.0000 0.1001185376
H   H42       1.0  0.48570  0.12420  0.87210  1.0000 0.1001185376
H   H43       1.0  0.48570  0.62420  0.62790  1.0000 0.1001185376
H   H44       1.0  0.01430  0.62420  0.37210  1.0000 0.1001185376
H   H45       1.0  0.98310  0.99960  0.12830  1.0000 0.1001185376
H   H46       1.0  0.51690  0.99960  0.87170  1.0000 0.1001185376
H   H47       1.0  0.51690  0.49960  0.62830  1.0000 0.1001185376
H   H48       1.0  0.98310  0.49960  0.37170  1.0000 0.1001185376
H   H49       1.0  0.76240  0.85340  0.11220  1.0000 0.1189737629
H   H50       1.0  0.73760  0.85340  0.88780  1.0000 0.1189737629
H   H51       1.0  0.73760  0.35340  0.61220  1.0000 0.1189737629
H   H52       1.0  0.76240  0.35340  0.38780  1.0000 0.1189737629
H   H53       1.0  0.88030  0.80110  0.05980  1.0000 0.1189737629
H   H54       1.0  0.61970  0.80110  0.94020  1.0000 0.1189737629
H   H55       1.0  0.61970  0.30110  0.55980  1.0000 0.1189737629
H   H56       1.0  0.88030  0.30110  0.44020  1.0000 0.1189737629
H   H57       1.0  0.20760  0.80870  0.12650  1.0000 0.1189737629
H   H58       1.0  0.29240  0.80870  0.87350  1.0000 0.1189737629
H   H59       1.0  0.29240  0.30870  0.62650  1.0000 0.1189737629
H   H60       1.0  0.20760  0.30870  0.37350  1.0000 0.1189737629
H   H61       1.0  0.09360  0.86660  0.17620  1.0000 0.1122921555
H   H62       1.0  0.40640  0.86660  0.82380  1.0000 0.1122921555
H   H63       1.0  0.40640  0.36660  0.67620  1.0000 0.1122921555
H   H64       1.0  0.09360  0.36660  0.32380  1.0000 0.1122921555
H   H65       1.0  0.28840  0.37440  0.14070  1.0000 0.1275180701
H   H66       1.0  0.21160  0.37440  0.85930  1.0000 0.1275180701
H   H67       1.0  0.21160  0.87440  0.64070  1.0000 0.1275180701
H   H68       1.0  0.28840  0.87440  0.35930  1.0000 0.1275180701
H   H69       1.0  0.36360  0.44240  0.19340  1.0000 0.1122921555
H   H70       1.0  0.13640  0.44240  0.80660  1.0000 0.1122921555
H   H71       1.0  0.13640  0.94240  0.69340  1.0000 0.1122921555
H   H72       1.0  0.36360  0.94240  0.30660  1.0000 0.1122921555
H   H73       1.0  0.00360  0.43800  0.24230  1.0000 0.1122921555
H   H74       1.0  0.49640  0.43800  0.75770  1.0000 0.1122921555
H   H75       1.0  0.49640  0.93800  0.74230  1.0000 0.1122921555
H   H76       1.0  0.00360  0.93800  0.25770  1.0000 0.1122921555
H   H77       1.0  0.92480  0.37360  0.18820  1.0000 0.1189737629
H   H78       1.0  0.57520  0.37360  0.81180  1.0000 0.1189737629
H   H79       1.0  0.57520  0.87360  0.68820  1.0000 0.1189737629
H   H80       1.0  0.92480  0.87360  0.31180  1.0000 0.1189737629
H   H81       1.0  0.11130  0.57910  0.20560  1.0000 0.1001185376
H   H82       1.0  0.38870  0.57910  0.79440  1.0000 0.1001185376
H   H83       1.0  0.38870  0.07910  0.70560  1.0000 0.1001185376
H   H84       1.0  0.11130  0.07910  0.29440  1.0000 0.1001185376
H   H85       1.0  0.06710  0.70140  0.20750  1.0000 0.1001185376
H   H86       1.0  0.43290  0.70140  0.79250  1.0000 0.1001185376
H   H87       1.0  0.43290  0.20140  0.70750  1.0000 0.1001185376
H   H88       1.0  0.06710  0.20140  0.29250  1.0000 0.1001185376
H   H89       1.0  0.15680  0.77450  0.25830  1.0000 0.1001185376
H   H90       1.0  0.34320  0.77450  0.74170  1.0000 0.1001185376
H   H91       1.0  0.34320  0.27450  0.75830  1.0000 0.1001185376
H   H92       1.0  0.15680  0.27450  0.24170  1.0000 0.1001185376
H   H93       1.0  0.27970  0.72440  0.30930  1.0000 0.1001185376
H   H94       1.0  0.22030  0.72440  0.69070  1.0000 0.1001185376
H   H95       1.0  0.22030  0.22440  0.80930  1.0000 0.1001185376
H   H96       1.0  0.27970  0.22440  0.19070  1.0000 0.1001185376
H   H97       1.0  0.31280  0.35490  0.26770  1.0000 0.1001185376
H   H98       1.0  0.18720  0.35490  0.73230  1.0000 0.1001185376
H   H99       1.0  0.18720  0.85490  0.76770  1.0000 0.1001185376
H   H100      1.0  0.31280  0.85490  0.23230  1.0000 0.1001185376
H   H101      1.0  0.43630  0.30320  0.31900  1.0000 0.1001185376
H   H102      1.0  0.06370  0.30320  0.68100  1.0000 0.1001185376
H   H103      1.0  0.06370  0.80320  0.81900  1.0000 0.1001185376
H   H104      1.0  0.43630  0.80320  0.18100  1.0000 0.1001185376
H   H105      1.0  0.51430  0.37580  0.37210  1.0000 0.1001185376
H   H106      1.0  0.98570  0.37580  0.62790  1.0000 0.1001185376
H   H107      1.0  0.98570  0.87580  0.87210  1.0000 0.1001185376
H   H108      1.0  0.51430  0.87580  0.12790  1.0000 0.1001185376
H   H109      1.0  0.48310  0.50040  0.37170  1.0000 0.1001185376
H   H110      1.0  0.01690  0.50040  0.62830  1.0000 0.1001185376
H   H111      1.0  0.01690  0.00040  0.87170  1.0000 0.1001185376
H   H112      1.0  0.48310  0.00040  0.12830  1.0000 0.1001185376
H   H113      1.0  0.26240  0.64660  0.38780  1.0000 0.1189737629
H   H114      1.0  0.23760  0.64660  0.61220  1.0000 0.1189737629
H   H115      1.0  0.23760  0.14660  0.88780  1.0000 0.1189737629
H   H116      1.0  0.26240  0.14660  0.11220  1.0000 0.1189737629
H   H117      1.0  0.38030  0.69890  0.44020  1.0000 0.1189737629
H   H118      1.0  0.11970  0.69890  0.55980  1.0000 0.1189737629
H   H119      1.0  0.11970  0.19890  0.94020  1.0000 0.1189737629
H   H120      1.0  0.38030  0.19890  0.05980  1.0000 0.1189737629
H   H121      1.0  0.70760  0.69130  0.37350  1.0000 0.1189737629
H   H122      1.0  0.79240  0.69130  0.62650  1.0000 0.1189737629
H   H123      1.0  0.79240  0.19130  0.87350  1.0000 0.1189737629
H   H124      1.0  0.70760  0.19130  0.12650  1.0000 0.1189737629
H   H125      1.0  0.59360  0.63340  0.32380  1.0000 0.1122921555
H   H126      1.0  0.90640  0.63340  0.67620  1.0000 0.1122921555
H   H127      1.0  0.90640  0.13340  0.82380  1.0000 0.1122921555
H   H128      1.0  0.59360  0.13340  0.17620  1.0000 0.1122921555
C   C1        1.0  0.55050  0.17000  0.37910  1.0000 0.5301979158
C   C2        1.0  0.94950  0.17000  0.62090  1.0000 0.5301979158
C   C3        1.0  0.94950  0.67000  0.87910  1.0000 0.5301979158
C   C4        1.0  0.55050  0.67000  0.12090  1.0000 0.5301979158
C   C5        1.0  0.59760  0.13240  0.34250  1.0000 -0.0435434774
C   C6        1.0  0.90240  0.13240  0.65750  1.0000 -0.0435434774
C   C7        1.0  0.90240  0.63240  0.84250  1.0000 -0.0435434774
C   C8        1.0  0.59760  0.63240  0.15750  1.0000 -0.0435434774
C   C9        1.0  0.72950  0.11160  0.33920  1.0000 -0.1115627042
C   C10       1.0  0.77050  0.11160  0.66080  1.0000 -0.1115627042
C   C11       1.0  0.77050  0.61160  0.83920  1.0000 -0.1115627042
C   C12       1.0  0.72950  0.61160  0.16080  1.0000 -0.1115627042
C   C13       1.0  0.77500  0.07130  0.30750  1.0000 -0.157077892
C   C14       1.0  0.72500  0.07130  0.69250  1.0000 -0.157077892
C   C15       1.0  0.72500  0.57130  0.80750  1.0000 -0.157077892
C   C16       1.0  0.77500  0.57130  0.19250  1.0000 -0.157077892
C   C17       1.0  0.69080  0.05060  0.27670  1.0000 0.0715970194
C   C18       1.0  0.80920  0.05060  0.72330  1.0000 0.0715970194
C   C19       1.0  0.80920  0.55060  0.77670  1.0000 0.0715970194
C   C20       1.0  0.69080  0.55060  0.22330  1.0000 0.0715970194
C   C21       1.0  0.56070  0.07350  0.27870  1.0000 -0.1693869474
C   C22       1.0  0.93930  0.07350  0.72130  1.0000 -0.1693869474
C   C23       1.0  0.93930  0.57350  0.77870  1.0000 -0.1693869474
C   C24       1.0  0.56070  0.57350  0.22130  1.0000 -0.1693869474
C   C25       1.0  0.51350  0.11280  0.31090  1.0000 -0.1115627042
C   C26       1.0  0.98650  0.11280  0.68910  1.0000 -0.1115627042
C   C27       1.0  0.98650  0.61280  0.81090  1.0000 -0.1115627042
C   C28       1.0  0.51350  0.61280  0.18910  1.0000 -0.1115627042
C   C29       1.0  0.74140  0.00490  0.24290  1.0000 -0.0524738904
C   C30       1.0  0.75860  0.00490  0.75710  1.0000 -0.0524738904
C   C31       1.0  0.75860  0.50490  0.74290  1.0000 -0.0524738904
C   C32       1.0  0.74140  0.50490  0.25710  1.0000 -0.0524738904
C   C33       1.0  0.71650  0.92890  0.24220  1.0000 0.0233128007
C   C34       1.0  0.78350  0.92890  0.75780  1.0000 0.0233128007
C   C35       1.0  0.78350  0.42890  0.74220  1.0000 0.0233128007
C   C36       1.0  0.71650  0.42890  0.25780  1.0000 0.0233128007
C   C37       1.0  0.64340  0.89290  0.27310  1.0000 -0.1538884014
C   C38       1.0  0.85660  0.89290  0.72690  1.0000 -0.1538884014
C   C39       1.0  0.85660  0.39290  0.77310  1.0000 -0.1538884014
C   C40       1.0  0.64340  0.39290  0.22690  1.0000 -0.1538884014
C   C41       1.0  0.61890  0.81990  0.27250  1.0000 -0.099786776
C   C42       1.0  0.88110  0.81990  0.72750  1.0000 -0.099786776
C   C43       1.0  0.88110  0.31990  0.77250  1.0000 -0.099786776
C   C44       1.0  0.61890  0.31990  0.22750  1.0000 -0.099786776
C   C45       1.0  0.67230  0.77610  0.24150  1.0000 -0.1115627042
C   C46       1.0  0.82770  0.77610  0.75850  1.0000 -0.1115627042
C   C47       1.0  0.82770  0.27610  0.74150  1.0000 -0.1115627042
C   C48       1.0  0.67230  0.27610  0.25850  1.0000 -0.1115627042
C   C49       1.0  0.74630  0.80580  0.21100  1.0000 -0.157077892
C   C50       1.0  0.75370  0.80580  0.78900  1.0000 -0.157077892
C   C51       1.0  0.75370  0.30580  0.71100  1.0000 -0.157077892
C   C52       1.0  0.74630  0.30580  0.28900  1.0000 -0.157077892
C   C53       1.0  0.77240  0.88430  0.21040  1.0000 0.0233128007
C   C54       1.0  0.72760  0.88430  0.78960  1.0000 0.0233128007
C   C55       1.0  0.72760  0.38430  0.71040  1.0000 0.0233128007
C   C56       1.0  0.77240  0.38430  0.28960  1.0000 0.0233128007
C   C57       1.0  0.84940  0.91590  0.18050  1.0000 -0.0524738904
C   C58       1.0  0.65060  0.91590  0.81950  1.0000 -0.0524738904
C   C59       1.0  0.65060  0.41590  0.68050  1.0000 -0.0524738904
C   C60       1.0  0.84940  0.41590  0.31950  1.0000 -0.0524738904
C   C61       1.0  0.87190  0.99240  0.18040  1.0000 0.0233128007
C   C62       1.0  0.62810  0.99240  0.81960  1.0000 0.0233128007
C   C63       1.0  0.62810  0.49240  0.68040  1.0000 0.0233128007
C   C64       1.0  0.87190  0.49240  0.31960  1.0000 0.0233128007
C   C65       1.0  0.81990  0.03750  0.21250  1.0000 0.0233128007
C   C66       1.0  0.68010  0.03750  0.78750  1.0000 0.0233128007
C   C67       1.0  0.68010  0.53750  0.71250  1.0000 0.0233128007
C   C68       1.0  0.81990  0.53750  0.28750  1.0000 0.0233128007
C   C69       1.0  0.84560  0.11520  0.21180  1.0000 -0.1693869474
C   C70       1.0  0.65440  0.11520  0.78820  1.0000 -0.1693869474
C   C71       1.0  0.65440  0.61520  0.71180  1.0000 -0.1693869474
C   C72       1.0  0.84560  0.61520  0.28820  1.0000 -0.1693869474
C   C73       1.0  0.91910  0.14640  0.18080  1.0000 -0.099786776
C   C74       1.0  0.58090  0.14640  0.81920  1.0000 -0.099786776
C   C75       1.0  0.58090  0.64640  0.68080  1.0000 -0.099786776
C   C76       1.0  0.91910  0.64640  0.31920  1.0000 -0.099786776
C   C77       1.0  0.96800  0.10230  0.14900  1.0000 -0.1115627042
C   C78       1.0  0.53200  0.10230  0.85100  1.0000 -0.1115627042
C   C79       1.0  0.53200  0.60230  0.64900  1.0000 -0.1115627042
C   C80       1.0  0.96800  0.60230  0.35100  1.0000 -0.1115627042
C   C81       1.0  0.94760  0.02800  0.14890  1.0000 -0.157077892
C   C82       1.0  0.55240  0.02800  0.85110  1.0000 -0.157077892
C   C83       1.0  0.55240  0.52800  0.64890  1.0000 -0.157077892
C   C84       1.0  0.94760  0.52800  0.35110  1.0000 -0.157077892
C   C85       1.0  0.91900  0.87150  0.14880  1.0000 0.0715970194
C   C86       1.0  0.58100  0.87150  0.85120  1.0000 0.0715970194
C   C87       1.0  0.58100  0.37150  0.64880  1.0000 0.0715970194
C   C88       1.0  0.91900  0.37150  0.35120  1.0000 0.0715970194
C   C89       1.0  0.85350  0.84740  0.11440  1.0000 -0.157077892
C   C90       1.0  0.64650  0.84740  0.88560  1.0000 -0.157077892
C   C91       1.0  0.64650  0.34740  0.61440  1.0000 -0.157077892
C   C92       1.0  0.85350  0.34740  0.38560  1.0000 -0.157077892
C   C93       1.0  0.92410  0.81440  0.08340  1.0000 -0.099786776
C   C94       1.0  0.57590  0.81440  0.91660  1.0000 -0.099786776
C   C95       1.0  0.57590  0.31440  0.58340  1.0000 -0.099786776
C   C96       1.0  0.92410  0.31440  0.41660  1.0000 -0.099786776
C   C97       1.0  0.05840  0.80090  0.08690  1.0000 -0.0712400706
C   C98       1.0  0.44160  0.80090  0.91310  1.0000 -0.0712400706
C   C99       1.0  0.44160  0.30090  0.58690  1.0000 -0.0712400706
C   C100      1.0  0.05840  0.30090  0.41310  1.0000 -0.0712400706
C   C101      1.0  0.11860  0.81970  0.12260  1.0000 -0.099786776
C   C102      1.0  0.38140  0.81970  0.87740  1.0000 -0.099786776
C   C103      1.0  0.38140  0.31970  0.62260  1.0000 -0.099786776
C   C104      1.0  0.11860  0.31970  0.37740  1.0000 -0.099786776
C   C105      1.0  0.04980  0.85430  0.15250  1.0000 -0.1538884014
C   C106      1.0  0.45020  0.85430  0.84750  1.0000 -0.1538884014
C   C107      1.0  0.45020  0.35430  0.65250  1.0000 -0.1538884014
C   C108      1.0  0.04980  0.35430  0.34750  1.0000 -0.1538884014
C   C109      1.0  0.13420  0.77220  0.05240  1.0000 0.6493062425
C   C110      1.0  0.36580  0.77220  0.94760  1.0000 0.6493062425
C   C111      1.0  0.36580  0.27220  0.55240  1.0000 0.6493062425
C   C112      1.0  0.13420  0.27220  0.44760  1.0000 0.6493062425
C   C113      1.0  0.05050  0.33000  0.12090  1.0000 0.5301979158
C   C114      1.0  0.44950  0.33000  0.87910  1.0000 0.5301979158
C   C115      1.0  0.44950  0.83000  0.62090  1.0000 0.5301979158
C   C116      1.0  0.05050  0.83000  0.37910  1.0000 0.5301979158
C   C117      1.0  0.09760  0.36760  0.15750  1.0000 -0.0435434774
C   C118      1.0  0.40240  0.36760  0.84250  1.0000 -0.0435434774
C   C119      1.0  0.40240  0.86760  0.65750  1.0000 -0.0435434774
C   C120      1.0  0.09760  0.86760  0.34250  1.0000 -0.0435434774
C   C121      1.0  0.22950  0.38840  0.16080  1.0000 -0.1115627042
C   C122      1.0  0.27050  0.38840  0.83920  1.0000 -0.1115627042
C   C123      1.0  0.27050  0.88840  0.66080  1.0000 -0.1115627042
C   C124      1.0  0.22950  0.88840  0.33920  1.0000 -0.1115627042
C   C125      1.0  0.27500  0.42870  0.19250  1.0000 -0.157077892
C   C126      1.0  0.22500  0.42870  0.80750  1.0000 -0.157077892
C   C127      1.0  0.22500  0.92870  0.69250  1.0000 -0.157077892
C   C128      1.0  0.27500  0.92870  0.30750  1.0000 -0.157077892
C   C129      1.0  0.19080  0.44940  0.22330  1.0000 0.0715970194
C   C130      1.0  0.30920  0.44940  0.77670  1.0000 0.0715970194
C   C131      1.0  0.30920  0.94940  0.72330  1.0000 0.0715970194
C   C132      1.0  0.19080  0.94940  0.27670  1.0000 0.0715970194
C   C133      1.0  0.06070  0.42650  0.22130  1.0000 -0.1693869474
C   C134      1.0  0.43930  0.42650  0.77870  1.0000 -0.1693869474
C   C135      1.0  0.43930  0.92650  0.72130  1.0000 -0.1693869474
C   C136      1.0  0.06070  0.92650  0.27870  1.0000 -0.1693869474
C   C137      1.0  0.01350  0.38720  0.18910  1.0000 -0.1115627042
C   C138      1.0  0.48650  0.38720  0.81090  1.0000 -0.1115627042
C   C139      1.0  0.48650  0.88720  0.68910  1.0000 -0.1115627042
C   C140      1.0  0.01350  0.88720  0.31090  1.0000 -0.1115627042
C   C141      1.0  0.24140  0.49510  0.25710  1.0000 -0.0524738904
C   C142      1.0  0.25860  0.49510  0.74290  1.0000 -0.0524738904
C   C143      1.0  0.25860  0.99510  0.75710  1.0000 -0.0524738904
C   C144      1.0  0.24140  0.99510  0.24290  1.0000 -0.0524738904
C   C145      1.0  0.21650  0.57110  0.25780  1.0000 0.0233128007
C   C146      1.0  0.28350  0.57110  0.74220  1.0000 0.0233128007
C   C147      1.0  0.28350  0.07110  0.75780  1.0000 0.0233128007
C   C148      1.0  0.21650  0.07110  0.24220  1.0000 0.0233128007
C   C149      1.0  0.14340  0.60710  0.22690  1.0000 -0.1538884014
C   C150      1.0  0.35660  0.60710  0.77310  1.0000 -0.1538884014
C   C151      1.0  0.35660  0.10710  0.72690  1.0000 -0.1538884014
C   C152      1.0  0.14340  0.10710  0.27310  1.0000 -0.1538884014
C   C153      1.0  0.11890  0.68010  0.22750  1.0000 -0.099786776
C   C154      1.0  0.38110  0.68010  0.77250  1.0000 -0.099786776
C   C155      1.0  0.38110  0.18010  0.72750  1.0000 -0.099786776
C   C156      1.0  0.11890  0.18010  0.27250  1.0000 -0.099786776
C   C157      1.0  0.17230  0.72390  0.25850  1.0000 -0.1115627042
C   C158      1.0  0.32770  0.72390  0.74150  1.0000 -0.1115627042
C   C159      1.0  0.32770  0.22390  0.75850  1.0000 -0.1115627042
C   C160      1.0  0.17230  0.22390  0.24150  1.0000 -0.1115627042
C   C161      1.0  0.24630  0.69420  0.28900  1.0000 -0.157077892
C   C162      1.0  0.25370  0.69420  0.71100  1.0000 -0.157077892
C   C163      1.0  0.25370  0.19420  0.78900  1.0000 -0.157077892
C   C164      1.0  0.24630  0.19420  0.21100  1.0000 -0.157077892
C   C165      1.0  0.27240  0.61570  0.28960  1.0000 0.0233128007
C   C166      1.0  0.22760  0.61570  0.71040  1.0000 0.0233128007
C   C167      1.0  0.22760  0.11570  0.78960  1.0000 0.0233128007
C   C168      1.0  0.27240  0.11570  0.21040  1.0000 0.0233128007
C   C169      1.0  0.34940  0.58410  0.31950  1.0000 -0.0524738904
C   C170      1.0  0.15060  0.58410  0.68050  1.0000 -0.0524738904
C   C171      1.0  0.15060  0.08410  0.81950  1.0000 -0.0524738904
C   C172      1.0  0.34940  0.08410  0.18050  1.0000 -0.0524738904
C   C173      1.0  0.37190  0.50760  0.31960  1.0000 0.0233128007
C   C174      1.0  0.12810  0.50760  0.68040  1.0000 0.0233128007
C   C175      1.0  0.12810  0.00760  0.81960  1.0000 0.0233128007
C   C176      1.0  0.37190  0.00760  0.18040  1.0000 0.0233128007
C   C177      1.0  0.31990  0.46250  0.28750  1.0000 0.0233128007
C   C178      1.0  0.18010  0.46250  0.71250  1.0000 0.0233128007
C   C179      1.0  0.18010  0.96250  0.78750  1.0000 0.0233128007
C   C180      1.0  0.31990  0.96250  0.21250  1.0000 0.0233128007
C   C181      1.0  0.34560  0.38480  0.28820  1.0000 -0.1693869474
C   C182      1.0  0.15440  0.38480  0.71180  1.0000 -0.1693869474
C   C183      1.0  0.15440  0.88480  0.78820  1.0000 -0.1693869474
C   C184      1.0  0.34560  0.88480  0.21180  1.0000 -0.1693869474
C   C185      1.0  0.41910  0.35360  0.31920  1.0000 -0.099786776
C   C186      1.0  0.08090  0.35360  0.68080  1.0000 -0.099786776
C   C187      1.0  0.08090  0.85360  0.81920  1.0000 -0.099786776
C   C188      1.0  0.41910  0.85360  0.18080  1.0000 -0.099786776
C   C189      1.0  0.46800  0.39770  0.35100  1.0000 -0.1115627042
C   C190      1.0  0.03200  0.39770  0.64900  1.0000 -0.1115627042
C   C191      1.0  0.03200  0.89770  0.85100  1.0000 -0.1115627042
C   C192      1.0  0.46800  0.89770  0.14900  1.0000 -0.1115627042
C   C193      1.0  0.44760  0.47200  0.35110  1.0000 -0.157077892
C   C194      1.0  0.05240  0.47200  0.64890  1.0000 -0.157077892
C   C195      1.0  0.05240  0.97200  0.85110  1.0000 -0.157077892
C   C196      1.0  0.44760  0.97200  0.14890  1.0000 -0.157077892
C   C197      1.0  0.41900  0.62850  0.35120  1.0000 0.0715970194
C   C198      1.0  0.08100  0.62850  0.64880  1.0000 0.0715970194
C   C199      1.0  0.08100  0.12850  0.85120  1.0000 0.0715970194
C   C200      1.0  0.41900  0.12850  0.14880  1.0000 0.0715970194
C   C201      1.0  0.35350  0.65260  0.38560  1.0000 -0.157077892
C   C202      1.0  0.14650  0.65260  0.61440  1.0000 -0.157077892
C   C203      1.0  0.14650  0.15260  0.88560  1.0000 -0.157077892
C   C204      1.0  0.35350  0.15260  0.11440  1.0000 -0.157077892
C   C205      1.0  0.42410  0.68560  0.41660  1.0000 -0.099786776
C   C206      1.0  0.07590  0.68560  0.58340  1.0000 -0.099786776
C   C207      1.0  0.07590  0.18560  0.91660  1.0000 -0.099786776
C   C208      1.0  0.42410  0.18560  0.08340  1.0000 -0.099786776
C   C209      1.0  0.55840  0.69910  0.41310  1.0000 -0.0712400706
C   C210      1.0  0.94160  0.69910  0.58690  1.0000 -0.0712400706
C   C211      1.0  0.94160  0.19910  0.91310  1.0000 -0.0712400706
C   C212      1.0  0.55840  0.19910  0.08690  1.0000 -0.0712400706
C   C213      1.0  0.61860  0.68030  0.37740  1.0000 -0.099786776
C   C214      1.0  0.88140  0.68030  0.62260  1.0000 -0.099786776
C   C215      1.0  0.88140  0.18030  0.87740  1.0000 -0.099786776
C   C216      1.0  0.61860  0.18030  0.12260  1.0000 -0.099786776
C   C217      1.0  0.54980  0.64570  0.34750  1.0000 -0.1538884014
C   C218      1.0  0.95020  0.64570  0.65250  1.0000 -0.1538884014
C   C219      1.0  0.95020  0.14570  0.84750  1.0000 -0.1538884014
C   C220      1.0  0.54980  0.14570  0.15250  1.0000 -0.1538884014
C   C221      1.0  0.63420  0.72780  0.44760  1.0000 0.6493062425
C   C222      1.0  0.86580  0.72780  0.55240  1.0000 0.6493062425
C   C223      1.0  0.86580  0.22780  0.94760  1.0000 0.6493062425
C   C224      1.0  0.63420  0.22780  0.05240  1.0000 0.6493062425
O   O1        1.0  0.43730  0.19490  0.38276  1.0000 -0.5735151496
O   O2        1.0  0.06270  0.19490  0.61724  1.0000 -0.5735151496
O   O3        1.0  0.06270  0.69490  0.88276  1.0000 -0.5735151496
O   O4        1.0  0.43730  0.69490  0.11724  1.0000 -0.5735151496
O   O5        1.0  0.62840  0.17490  0.40900  1.0000 -0.5890709188
O   O6        1.0  0.87160  0.17490  0.59100  1.0000 -0.5890709188
O   O7        1.0  0.87160  0.67490  0.90900  1.0000 -0.5890709188
O   O8        1.0  0.62840  0.67490  0.09100  1.0000 -0.5890709188
O   O9        1.0  0.25500  0.76090  0.05740  1.0000 -0.6466802757
O   O10       1.0  0.24500  0.76090  0.94260  1.0000 -0.6466802757
O   O11       1.0  0.24500  0.26090  0.55740  1.0000 -0.6466802757
O   O12       1.0  0.25500  0.26090  0.44260  1.0000 -0.6466802757
O   O13       1.0  0.08000  0.76720  0.01910  1.0000 -0.6338855129
O   O14       1.0  0.42000  0.76720  0.98090  1.0000 -0.6338855129
O   O15       1.0  0.42000  0.26720  0.51910  1.0000 -0.6338855129
O   O16       1.0  0.08000  0.26720  0.48090  1.0000 -0.6338855129
O   O17       1.0  0.67830  0.19780  0.49270  1.0000 -0.4155299988
O   O18       1.0  0.82170  0.19780  0.50730  1.0000 -0.4155299988
O   O19       1.0  0.82170  0.69780  0.99270  1.0000 -0.4155299988
O   O20       1.0  0.67830  0.69780  0.00730  1.0000 -0.4155299988
O   O21       1.0  0.93730  0.30510  0.11724  1.0000 -0.5735151496
O   O22       1.0  0.56270  0.30510  0.88276  1.0000 -0.5735151496
O   O23       1.0  0.56270  0.80510  0.61724  1.0000 -0.5735151496
O   O24       1.0  0.93730  0.80510  0.38276  1.0000 -0.5735151496
O   O25       1.0  0.12840  0.32510  0.09100  1.0000 -0.5890709188
O   O26       1.0  0.37160  0.32510  0.90900  1.0000 -0.5890709188
O   O27       1.0  0.37160  0.82510  0.59100  1.0000 -0.5890709188
O   O28       1.0  0.12840  0.82510  0.40900  1.0000 -0.5890709188
O   O29       1.0  0.75500  0.73910  0.44260  1.0000 -0.6466802757
O   O30       1.0  0.74500  0.73910  0.55740  1.0000 -0.6466802757
O   O31       1.0  0.74500  0.23910  0.94260  1.0000 -0.6466802757
O   O32       1.0  0.75500  0.23910  0.05740  1.0000 -0.6466802757
O   O33       1.0  0.58000  0.73280  0.48090  1.0000 -0.6338855129
O   O34       1.0  0.92000  0.73280  0.51910  1.0000 -0.6338855129
O   O35       1.0  0.92000  0.23280  0.98090  1.0000 -0.6338855129
O   O36       1.0  0.58000  0.23280  0.01910  1.0000 -0.6338855129
O   O37       1.0  0.17830  0.30220  0.00730  1.0000 -0.4155299988
O   O38       1.0  0.32170  0.30220  0.99270  1.0000 -0.4155299988
O   O39       1.0  0.32170  0.80220  0.50730  1.0000 -0.4155299988
O   O40       1.0  0.17830  0.80220  0.49270  1.0000 -0.4155299988
