# DDEC6 charges by PACMAN v1.1 (https://github.com/mtap-research/PACMAN-charge/)
data_2023[Co][nan]3[ASR]8
_chemical_formula_sum              "Co8 H48 C104 N8 O32 F8"
_cell_length_a       9.5266
_cell_length_b       27.2091
_cell_length_c       16.8004
_cell_angle_alpha    90
_cell_angle_beta     93.387
_cell_angle_gamma    90

_symmetry_space_group_name_H-M    "P 1"
_symmetry_Int_Tables_number       1

loop_
  _symmetry_equiv_pos_as_xyz
  'x, y, z'

loop_
  _atom_site_type_symbol
  _atom_site_label
  _atom_site_symmetry_multiplicity
  _atom_site_fract_x
  _atom_site_fract_y
  _atom_site_fract_z
  _atom_site_occupancy
  _atom_site_charge
Co  Co1       1.0  0.77005  0.93569  0.75827  1.0000 0.8118035672
Co  Co2       1.0  0.22995  0.43569  0.74173  1.0000 0.8118035672
Co  Co3       1.0  0.22995  0.06431  0.24173  1.0000 0.8118035672
Co  Co4       1.0  0.77005  0.56431  0.25827  1.0000 0.8118035672
Co  Co5       1.0  0.72420  0.81243  0.77968  1.0000 0.987298849
Co  Co6       1.0  0.27580  0.31243  0.72032  1.0000 0.987298849
Co  Co7       1.0  0.27580  0.18757  0.22032  1.0000 0.987298849
Co  Co8       1.0  0.72420  0.68757  0.27968  1.0000 0.987298849
H   H1        1.0  0.00910  0.90770  0.92330  1.0000 0.1210919945
H   H2        1.0  0.99090  0.40770  0.57670  1.0000 0.1210919945
H   H3        1.0  0.99090  0.09230  0.07670  1.0000 0.1210919945
H   H4        1.0  0.00910  0.59230  0.42330  1.0000 0.1210919945
H   H5        1.0  0.41360  0.94660  0.90200  1.0000 0.1107503679
H   H6        1.0  0.58640  0.44660  0.59800  1.0000 0.1107503679
H   H7        1.0  0.58640  0.05340  0.09800  1.0000 0.1107503679
H   H8        1.0  0.41360  0.55340  0.40200  1.0000 0.1107503679
H   H9        1.0  0.07480  0.92300  0.05730  1.0000 0.1399742803
H   H10       1.0  0.92520  0.42300  0.44270  1.0000 0.1399742803
H   H11       1.0  0.92520  0.07700  0.94270  1.0000 0.1399742803
H   H12       1.0  0.07480  0.57700  0.55730  1.0000 0.1399742803
H   H13       1.0  0.07360  0.97330  0.16790  1.0000 0.1107503679
H   H14       1.0  0.92640  0.47330  0.33210  1.0000 0.1107503679
H   H15       1.0  0.92640  0.02670  0.83210  1.0000 0.1107503679
H   H16       1.0  0.07360  0.52670  0.66790  1.0000 0.1107503679
H   H17       1.0  0.31510  0.06960  0.06840  1.0000 0.1210919945
H   H18       1.0  0.68490  0.56960  0.43160  1.0000 0.1210919945
H   H19       1.0  0.68490  0.93040  0.93160  1.0000 0.1210919945
H   H20       1.0  0.31510  0.43040  0.56840  1.0000 0.1210919945
H   H21       1.0  0.32270  0.02170  0.95530  1.0000 0.1399742803
H   H22       1.0  0.67730  0.52170  0.54470  1.0000 0.1399742803
H   H23       1.0  0.67730  0.97830  0.04470  1.0000 0.1399742803
H   H24       1.0  0.32270  0.47830  0.45530  1.0000 0.1399742803
H   H25       1.0  0.52720  0.59010  0.76060  1.0000 0.1399742803
H   H26       1.0  0.47280  0.09010  0.73940  1.0000 0.1399742803
H   H27       1.0  0.47280  0.40990  0.23940  1.0000 0.1399742803
H   H28       1.0  0.52720  0.90990  0.26060  1.0000 0.1399742803
H   H29       1.0  0.58320  0.58370  0.02480  1.0000 0.1107503679
H   H30       1.0  0.41680  0.08370  0.47520  1.0000 0.1107503679
H   H31       1.0  0.41680  0.41630  0.97520  1.0000 0.1107503679
H   H32       1.0  0.58320  0.91630  0.52480  1.0000 0.1107503679
H   H33       1.0  0.56400  0.66170  0.82170  1.0000 0.1282693269
H   H34       1.0  0.43600  0.16170  0.67830  1.0000 0.1282693269
H   H35       1.0  0.43600  0.33830  0.17830  1.0000 0.1282693269
H   H36       1.0  0.56400  0.83830  0.32170  1.0000 0.1282693269
H   H37       1.0  0.38800  0.54810  0.97180  1.0000 0.1399742803
H   H38       1.0  0.61200  0.04810  0.52820  1.0000 0.1399742803
H   H39       1.0  0.61200  0.45190  0.02820  1.0000 0.1399742803
H   H40       1.0  0.38800  0.95190  0.47180  1.0000 0.1399742803
H   H41       1.0  0.25550  0.48770  0.90480  1.0000 0.1107503679
H   H42       1.0  0.74450  0.98770  0.59520  1.0000 0.1107503679
H   H43       1.0  0.74450  0.51230  0.09520  1.0000 0.1107503679
H   H44       1.0  0.25550  0.01230  0.40480  1.0000 0.1107503679
H   H45       1.0  0.40650  0.52610  0.70210  1.0000 0.1107503679
H   H46       1.0  0.59350  0.02610  0.79790  1.0000 0.1107503679
H   H47       1.0  0.59350  0.47390  0.29790  1.0000 0.1107503679
H   H48       1.0  0.40650  0.97390  0.20210  1.0000 0.1107503679
C   C1        1.0  0.49500  0.88207  0.80250  1.0000 0.604490566
C   C2        1.0  0.50500  0.38207  0.69750  1.0000 0.604490566
C   C3        1.0  0.50500  0.11793  0.19750  1.0000 0.604490566
C   C4        1.0  0.49500  0.61793  0.30250  1.0000 0.604490566
C   C5        1.0  0.34810  0.89190  0.82710  1.0000 -0.1196143209
C   C6        1.0  0.65190  0.39190  0.67290  1.0000 -0.1196143209
C   C7        1.0  0.65190  0.10810  0.17290  1.0000 -0.1196143209
C   C8        1.0  0.34810  0.60810  0.32710  1.0000 -0.1196143209
C   C9        1.0  0.23080  0.86434  0.79820  1.0000 0.2559230654
C   C10       1.0  0.76920  0.36434  0.70180  1.0000 0.2559230654
C   C11       1.0  0.76920  0.13566  0.20180  1.0000 0.2559230654
C   C12       1.0  0.23080  0.63566  0.29820  1.0000 0.2504412023
C   C13       1.0  0.10130  0.87234  0.83450  1.0000 -0.1196143209
C   C14       1.0  0.89870  0.37234  0.66550  1.0000 -0.1196143209
C   C15       1.0  0.89870  0.12766  0.16550  1.0000 -0.1196143209
C   C16       1.0  0.10130  0.62766  0.33450  1.0000 -0.1196143209
C   C17       1.0  0.09500  0.90452  0.89770  1.0000 -0.1417708816
C   C18       1.0  0.90500  0.40452  0.60230  1.0000 -0.1417708816
C   C19       1.0  0.90500  0.09548  0.10230  1.0000 -0.1417708816
C   C20       1.0  0.09500  0.59548  0.39770  1.0000 -0.1417708816
C   C21       1.0  0.21000  0.93250  0.92530  1.0000 0.0500438223
C   C22       1.0  0.79000  0.43250  0.57470  1.0000 0.0500438223
C   C23       1.0  0.79000  0.06750  0.07470  1.0000 0.0500438223
C   C24       1.0  0.21000  0.56750  0.42530  1.0000 0.0500438223
C   C25       1.0  0.33510  0.92640  0.88680  1.0000 -0.1597808013
C   C26       1.0  0.66490  0.42640  0.61320  1.0000 -0.1597808013
C   C27       1.0  0.66490  0.07360  0.11320  1.0000 -0.1597808013
C   C28       1.0  0.33510  0.57360  0.38680  1.0000 -0.1597808013
C   C29       1.0  0.96880  0.84786  0.80700  1.0000 0.582229021
C   C30       1.0  0.03120  0.34786  0.69300  1.0000 0.582229021
C   C31       1.0  0.03120  0.15214  0.19300  1.0000 0.582229021
C   C32       1.0  0.96880  0.65214  0.30700  1.0000 0.582229021
C   C33       1.0  0.20210  0.96603  0.99450  1.0000 0.1210919945
C   C34       1.0  0.79790  0.46603  0.50550  1.0000 0.1210919945
C   C35       1.0  0.79790  0.03397  0.00550  1.0000 0.1210919945
C   C36       1.0  0.20210  0.53397  0.49450  1.0000 0.1210919945
C   C37       1.0  0.12700  0.95280  0.05860  1.0000 -0.2004786267
C   C38       1.0  0.87300  0.45280  0.44140  1.0000 -0.2004786267
C   C39       1.0  0.87300  0.04720  0.94140  1.0000 -0.2004786267
C   C40       1.0  0.12700  0.54720  0.55860  1.0000 -0.2004786267
C   C41       1.0  0.12760  0.98297  0.12470  1.0000 0.0674192501
C   C42       1.0  0.87240  0.48297  0.37530  1.0000 0.0674192501
C   C43       1.0  0.87240  0.01703  0.87530  1.0000 0.0674192501
C   C44       1.0  0.12760  0.51703  0.62470  1.0000 0.0674192501
C   C45       1.0  0.26770  0.03887  0.06710  1.0000 0.0932200579
C   C46       1.0  0.73230  0.53887  0.43290  1.0000 0.0932200579
C   C47       1.0  0.73230  0.96113  0.93290  1.0000 0.0932200579
C   C48       1.0  0.26770  0.46113  0.56710  1.0000 0.0932200579
C   C49       1.0  0.27200  0.01060  0.99890  1.0000 -0.2004786267
C   C50       1.0  0.72800  0.51060  0.50110  1.0000 -0.2004786267
C   C51       1.0  0.72800  0.98940  0.00110  1.0000 -0.2004786267
C   C52       1.0  0.27200  0.48940  0.49890  1.0000 -0.2004786267
C   C53       1.0  0.70600  0.73865  0.86320  1.0000 0.5641079573
C   C54       1.0  0.29400  0.23865  0.63680  1.0000 0.5641079573
C   C55       1.0  0.29400  0.26135  0.13680  1.0000 0.5641079573
C   C56       1.0  0.70600  0.76135  0.36320  1.0000 0.5641079573
C   C57       1.0  0.68550  0.69280  0.91020  1.0000 -0.0891307975
C   C58       1.0  0.31450  0.19280  0.58980  1.0000 -0.0891307975
C   C59       1.0  0.31450  0.30720  0.08980  1.0000 -0.0891307975
C   C60       1.0  0.68550  0.80720  0.41020  1.0000 -0.0891307975
C   C61       1.0  0.74290  0.68710  0.98910  1.0000 0.2504412023
C   C62       1.0  0.25710  0.18710  0.51090  1.0000 0.2504412023
C   C63       1.0  0.25710  0.31290  0.01090  1.0000 0.2504412023
C   C64       1.0  0.74290  0.81290  0.48910  1.0000 0.2504412023
C   C65       1.0  0.69800  0.64637  0.03330  1.0000 -0.1196143209
C   C66       1.0  0.30200  0.14637  0.46670  1.0000 -0.1196143209
C   C67       1.0  0.30200  0.35363  0.96670  1.0000 -0.1196143209
C   C68       1.0  0.69800  0.85363  0.53330  1.0000 -0.1196143209
C   C69       1.0  0.47550  0.56850  0.79230  1.0000 -0.194048428
C   C70       1.0  0.52450  0.06850  0.70770  1.0000 -0.194048428
C   C71       1.0  0.52450  0.43150  0.20770  1.0000 -0.194048428
C   C72       1.0  0.47550  0.93150  0.29230  1.0000 -0.194048428
C   C73       1.0  0.61090  0.61142  0.99510  1.0000 -0.1597808013
C   C74       1.0  0.38910  0.11142  0.50490  1.0000 -0.1597808013
C   C75       1.0  0.38910  0.38858  0.00490  1.0000 -0.1597808013
C   C76       1.0  0.61090  0.88858  0.49510  1.0000 -0.1597808013
C   C77       1.0  0.56250  0.61510  0.91600  1.0000 0.0500438223
C   C78       1.0  0.43750  0.11510  0.58400  1.0000 0.0500438223
C   C79       1.0  0.43750  0.38490  0.08400  1.0000 0.0500438223
C   C80       1.0  0.56250  0.88490  0.41600  1.0000 0.0500438223
C   C81       1.0  0.59940  0.65724  0.87530  1.0000 -0.1319182748
C   C82       1.0  0.40060  0.15724  0.62470  1.0000 -0.1319182748
C   C83       1.0  0.40060  0.34276  0.12470  1.0000 -0.1319182748
C   C84       1.0  0.59940  0.84276  0.37530  1.0000 -0.1319182748
C   C85       1.0  0.72340  0.64099  0.12120  1.0000 0.6152924923
C   C86       1.0  0.27660  0.14099  0.37880  1.0000 0.6152924923
C   C87       1.0  0.27660  0.35901  0.87880  1.0000 0.6152924923
C   C88       1.0  0.72340  0.85901  0.62120  1.0000 0.6152924923
C   C89       1.0  0.47480  0.57581  0.87630  1.0000 0.1282693269
C   C90       1.0  0.52520  0.07581  0.62370  1.0000 0.1282693269
C   C91       1.0  0.52520  0.42419  0.12370  1.0000 0.1282693269
C   C92       1.0  0.47480  0.92419  0.37630  1.0000 0.1282693269
C   C93       1.0  0.39320  0.54480  0.91580  1.0000 -0.2004786267
C   C94       1.0  0.60680  0.04480  0.58420  1.0000 -0.2004786267
C   C95       1.0  0.60680  0.45520  0.08420  1.0000 -0.2004786267
C   C96       1.0  0.39320  0.95520  0.41580  1.0000 -0.2004786267
C   C97       1.0  0.31580  0.50760  0.87530  1.0000 0.1107503679
C   C98       1.0  0.68420  0.00760  0.62470  1.0000 0.1107503679
C   C99       1.0  0.68420  0.49240  0.12470  1.0000 0.1107503679
C   C100      1.0  0.31580  0.99240  0.37530  1.0000 0.1107503679
C   C101      1.0  0.40220  0.53070  0.75790  1.0000 0.0750260605
C   C102      1.0  0.59780  0.03070  0.74210  1.0000 0.0750260605
C   C103      1.0  0.59780  0.46930  0.24210  1.0000 0.0674192501
C   C104      1.0  0.40220  0.96930  0.25790  1.0000 0.0750260605
N   N1        1.0  0.20050  0.02534  0.13140  1.0000 -0.2572374242
N   N2        1.0  0.79950  0.52534  0.36860  1.0000 -0.2572374242
N   N3        1.0  0.79950  0.97466  0.86860  1.0000 -0.2572374242
N   N4        1.0  0.20050  0.47466  0.63140  1.0000 -0.2572374242
N   N5        1.0  0.32280  0.49909  0.79880  1.0000 -0.2419566671
N   N6        1.0  0.67720  0.99909  0.70120  1.0000 -0.2419566671
N   N7        1.0  0.67720  0.50091  0.20120  1.0000 -0.2419566671
N   N8        1.0  0.32280  0.00091  0.29880  1.0000 -0.2419566671
O   O1        1.0  0.53360  0.83871  0.80360  1.0000 -0.5098110112
O   O2        1.0  0.46640  0.33871  0.69640  1.0000 -0.5098110112
O   O3        1.0  0.46640  0.16129  0.19640  1.0000 -0.5098110112
O   O4        1.0  0.53360  0.66129  0.30360  1.0000 -0.5098110112
O   O5        1.0  0.56890  0.91813  0.78850  1.0000 -0.5612736317
O   O6        1.0  0.43110  0.41813  0.71150  1.0000 -0.5612736317
O   O7        1.0  0.43110  0.08187  0.21150  1.0000 -0.5612736317
O   O8        1.0  0.56890  0.58187  0.28850  1.0000 -0.5612736317
O   O9        1.0  0.96460  0.80561  0.77760  1.0000 -0.4698717268
O   O10       1.0  0.03540  0.30561  0.72240  1.0000 -0.4698717268
O   O11       1.0  0.03540  0.19439  0.22240  1.0000 -0.4698717268
O   O12       1.0  0.96460  0.69439  0.27760  1.0000 -0.4698717268
O   O13       1.0  0.85260  0.87098  0.81620  1.0000 -0.6036924543
O   O14       1.0  0.14740  0.37098  0.68380  1.0000 -0.6036924543
O   O15       1.0  0.14740  0.12902  0.18380  1.0000 -0.6036924543
O   O16       1.0  0.85260  0.62902  0.31620  1.0000 -0.6036924543
O   O17       1.0  0.73960  0.77778  0.89650  1.0000 -0.5098110112
O   O18       1.0  0.26040  0.27778  0.60350  1.0000 -0.5098110112
O   O19       1.0  0.26040  0.22222  0.10350  1.0000 -0.5098110112
O   O20       1.0  0.73960  0.72222  0.39650  1.0000 -0.5098110112
O   O21       1.0  0.68150  0.73748  0.78780  1.0000 -0.5272670837
O   O22       1.0  0.31850  0.23748  0.71220  1.0000 -0.5242895257
O   O23       1.0  0.31850  0.26252  0.21220  1.0000 -0.5242895257
O   O24       1.0  0.68150  0.76252  0.28780  1.0000 -0.5242895257
O   O25       1.0  0.70220  0.67891  0.16190  1.0000 -0.5272670837
O   O26       1.0  0.29780  0.17891  0.33810  1.0000 -0.5272670837
O   O27       1.0  0.29780  0.32109  0.83810  1.0000 -0.5272670837
O   O28       1.0  0.70220  0.82109  0.66190  1.0000 -0.5272670837
O   O29       1.0  0.75420  0.59945  0.14890  1.0000 -0.576080841
O   O30       1.0  0.24580  0.09945  0.35110  1.0000 -0.576080841
O   O31       1.0  0.24580  0.40055  0.85110  1.0000 -0.576080841
O   O32       1.0  0.75420  0.90055  0.64890  1.0000 -0.576080841
F   F1        1.0  0.23570  0.83230  0.73410  1.0000 -0.114076204
F   F2        1.0  0.76430  0.33230  0.76590  1.0000 -0.114076204
F   F3        1.0  0.76430  0.16770  0.26590  1.0000 -0.114076204
F   F4        1.0  0.23570  0.66770  0.23410  1.0000 -0.114076204
F   F5        1.0  0.84990  0.71810  0.01850  1.0000 -0.114076204
F   F6        1.0  0.15010  0.21810  0.48150  1.0000 -0.114076204
F   F7        1.0  0.15010  0.28190  0.98150  1.0000 -0.1196143209
F   F8        1.0  0.84990  0.78190  0.51850  1.0000 -0.114076204
