# DDEC6 charges by PACMAN v1.1 (https://github.com/mtap-research/PACMAN-charge/)
data_2023[Cu][nan]3[ASR]6
_chemical_formula_sum              "Cu12 H90 C204 Br6 N12 O48"
_cell_length_a       24.6256
_cell_length_b       24.6256
_cell_length_c       24.6256
_cell_angle_alpha    99.4802
_cell_angle_beta     99.4802
_cell_angle_gamma    99.4802

_symmetry_space_group_name_H-M    "P 1"
_symmetry_Int_Tables_number       1

loop_
  _symmetry_equiv_pos_as_xyz
  'x, y, z'

loop_
  _atom_site_type_symbol
  _atom_site_label
  _atom_site_symmetry_multiplicity
  _atom_site_fract_x
  _atom_site_fract_y
  _atom_site_fract_z
  _atom_site_occupancy
  _atom_site_charge
Cu  Cu1       1.0  0.43353  0.70192  0.84249  1.0000 0.8618089064
Cu  Cu2       1.0  0.70192  0.84249  0.43353  1.0000 0.8618089064
Cu  Cu3       1.0  0.84249  0.43353  0.70192  1.0000 0.8618089064
Cu  Cu4       1.0  0.56647  0.29808  0.15751  1.0000 0.8618089064
Cu  Cu5       1.0  0.29808  0.15751  0.56647  1.0000 0.8618089064
Cu  Cu6       1.0  0.15751  0.56647  0.29808  1.0000 0.8618089064
Cu  Cu7       1.0  0.35260  0.25113  0.54719  1.0000 0.8618089064
Cu  Cu8       1.0  0.25113  0.54719  0.35260  1.0000 0.8618089064
Cu  Cu9       1.0  0.54719  0.35260  0.25113  1.0000 0.8618089064
Cu  Cu10      1.0  0.64740  0.74887  0.45281  1.0000 0.8618089064
Cu  Cu11      1.0  0.74887  0.45281  0.64740  1.0000 0.8618089064
Cu  Cu12      1.0  0.45281  0.64740  0.74887  1.0000 0.8618089064
H   H1        1.0  0.60452  0.81320  0.61004  1.0000 0.1411031521
H   H2        1.0  0.81320  0.61004  0.60452  1.0000 0.1411031521
H   H3        1.0  0.61004  0.60452  0.81320  1.0000 0.1411031521
H   H4        1.0  0.39548  0.18680  0.38996  1.0000 0.1411031521
H   H5        1.0  0.18680  0.38996  0.39548  1.0000 0.1411031521
H   H6        1.0  0.38996  0.39548  0.18680  1.0000 0.1411031521
H   H7        1.0  0.54713  0.78628  0.69400  1.0000 0.1411031521
H   H8        1.0  0.78628  0.69400  0.54713  1.0000 0.1411031521
H   H9        1.0  0.69400  0.54713  0.78628  1.0000 0.1411031521
H   H10       1.0  0.45287  0.21372  0.30600  1.0000 0.1411031521
H   H11       1.0  0.21372  0.30600  0.45287  1.0000 0.1411031521
H   H12       1.0  0.30600  0.45287  0.21372  1.0000 0.1411031521
H   H13       1.0  0.69164  0.95644  0.58048  1.0000 0.1291530857
H   H14       1.0  0.95644  0.58048  0.69164  1.0000 0.1291530857
H   H15       1.0  0.58048  0.69164  0.95644  1.0000 0.1291530857
H   H16       1.0  0.30836  0.04356  0.41952  1.0000 0.1291530857
H   H17       1.0  0.04356  0.41952  0.30836  1.0000 0.1291530857
H   H18       1.0  0.41952  0.30836  0.04356  1.0000 0.1291530857
H   H19       1.0  0.66965  0.00560  0.84181  1.0000 0.1411031521
H   H20       1.0  0.00560  0.84181  0.66965  1.0000 0.1411031521
H   H21       1.0  0.84181  0.66965  0.00560  1.0000 0.1411031521
H   H22       1.0  0.33035  0.99440  0.15819  1.0000 0.1411031521
H   H23       1.0  0.99440  0.15819  0.33035  1.0000 0.1411031521
H   H24       1.0  0.15819  0.33035  0.99440  1.0000 0.1411031521
H   H25       1.0  0.60130  0.04967  0.69693  1.0000 0.1411031521
H   H26       1.0  0.04967  0.69693  0.60130  1.0000 0.1411031521
H   H27       1.0  0.69693  0.60130  0.04967  1.0000 0.1411031521
H   H28       1.0  0.39870  0.95033  0.30307  1.0000 0.1411031521
H   H29       1.0  0.95033  0.30307  0.39870  1.0000 0.1411031521
H   H30       1.0  0.30307  0.39870  0.95033  1.0000 0.1411031521
H   H31       1.0  0.51551  0.86787  0.83939  1.0000 0.1291530857
H   H32       1.0  0.86787  0.83939  0.51551  1.0000 0.1291530857
H   H33       1.0  0.83939  0.51551  0.86787  1.0000 0.1291530857
H   H34       1.0  0.48449  0.13213  0.16061  1.0000 0.1291530857
H   H35       1.0  0.13213  0.16061  0.48449  1.0000 0.1291530857
H   H36       1.0  0.16061  0.48449  0.13213  1.0000 0.1291530857
H   H37       1.0  0.56649  0.95174  0.82729  1.0000 0.1291530857
H   H38       1.0  0.95174  0.82729  0.56649  1.0000 0.1291530857
H   H39       1.0  0.82729  0.56649  0.95174  1.0000 0.1291530857
H   H40       1.0  0.43351  0.04826  0.17271  1.0000 0.1291530857
H   H41       1.0  0.04826  0.17271  0.43351  1.0000 0.1291530857
H   H42       1.0  0.17271  0.43351  0.04826  1.0000 0.1291530857
H   H43       1.0  0.73247  0.19847  0.76963  1.0000 0.1291530857
H   H44       1.0  0.19847  0.76963  0.73247  1.0000 0.1291530857
H   H45       1.0  0.76963  0.73247  0.19847  1.0000 0.1291530857
H   H46       1.0  0.26753  0.80153  0.23037  1.0000 0.1291530857
H   H47       1.0  0.80153  0.23037  0.26753  1.0000 0.1291530857
H   H48       1.0  0.23037  0.26753  0.80153  1.0000 0.1291530857
H   H49       1.0  0.52041  0.24802  0.63338  1.0000 0.1411031521
H   H50       1.0  0.24802  0.63338  0.52041  1.0000 0.1411031521
H   H51       1.0  0.63338  0.52041  0.24802  1.0000 0.1411031521
H   H52       1.0  0.47959  0.75198  0.36662  1.0000 0.1411031521
H   H53       1.0  0.75198  0.36662  0.47959  1.0000 0.1411031521
H   H54       1.0  0.36662  0.47959  0.75198  1.0000 0.1411031521
H   H55       1.0  0.67995  0.00928  0.66516  1.0000 0.1291530857
H   H56       1.0  0.00928  0.66516  0.67995  1.0000 0.1291530857
H   H57       1.0  0.66516  0.67995  0.00928  1.0000 0.1291530857
H   H58       1.0  0.32005  0.99072  0.33484  1.0000 0.1291530857
H   H59       1.0  0.99072  0.33484  0.32005  1.0000 0.1291530857
H   H60       1.0  0.33484  0.32005  0.99072  1.0000 0.1291530857
H   H61       1.0  0.43347  0.10372  0.65899  1.0000 0.1291530857
H   H62       1.0  0.10372  0.65899  0.43347  1.0000 0.1291530857
H   H63       1.0  0.65899  0.43347  0.10372  1.0000 0.1291530857
H   H64       1.0  0.56653  0.89628  0.34101  1.0000 0.1291530857
H   H65       1.0  0.89628  0.34101  0.56653  1.0000 0.1291530857
H   H66       1.0  0.34101  0.56653  0.89628  1.0000 0.1291530857
H   H67       1.0  0.63474  0.30588  0.66066  1.0000 0.1411031521
H   H68       1.0  0.30588  0.66066  0.63474  1.0000 0.1411031521
H   H69       1.0  0.66066  0.63474  0.30588  1.0000 0.1411031521
H   H70       1.0  0.36526  0.69412  0.33934  1.0000 0.1411031521
H   H71       1.0  0.69412  0.33934  0.36526  1.0000 0.1411031521
H   H72       1.0  0.33934  0.36526  0.69412  1.0000 0.1411031521
H   H73       1.0  0.51355  0.08852  0.71620  1.0000 0.1291530857
H   H74       1.0  0.08852  0.71620  0.51355  1.0000 0.1291530857
H   H75       1.0  0.71620  0.51355  0.08852  1.0000 0.1291530857
H   H76       1.0  0.48645  0.91148  0.28380  1.0000 0.1291530857
H   H77       1.0  0.91148  0.28380  0.48645  1.0000 0.1291530857
H   H78       1.0  0.28380  0.48645  0.91148  1.0000 0.1291530857
H   H79       1.0  0.77690  0.28194  0.75176  1.0000 0.1291530857
H   H80       1.0  0.28194  0.75176  0.77690  1.0000 0.1291530857
H   H81       1.0  0.75176  0.77690  0.28194  1.0000 0.1291530857
H   H82       1.0  0.22310  0.71806  0.24824  1.0000 0.1291530857
H   H83       1.0  0.71806  0.24824  0.22310  1.0000 0.1291530857
H   H84       1.0  0.24824  0.22310  0.71806  1.0000 0.1291530857
H   H85       1.0  0.66422  0.16708  0.83803  1.0000 0.1411031521
H   H86       1.0  0.16708  0.83803  0.66422  1.0000 0.1411031521
H   H87       1.0  0.83803  0.66422  0.16708  1.0000 0.1411031521
H   H88       1.0  0.33578  0.83292  0.16197  1.0000 0.1411031521
H   H89       1.0  0.83292  0.16197  0.33578  1.0000 0.1411031521
H   H90       1.0  0.16197  0.33578  0.83292  1.0000 0.1411031521
C   C1        1.0  0.58206  0.86904  0.71503  1.0000 -0.0173305369
C   C2        1.0  0.86904  0.71503  0.58206  1.0000 -0.0173305369
C   C3        1.0  0.71503  0.58206  0.86904  1.0000 -0.0173305369
C   C4        1.0  0.41794  0.13096  0.28497  1.0000 -0.0173305369
C   C5        1.0  0.13096  0.28497  0.41794  1.0000 -0.0173305369
C   C6        1.0  0.28497  0.41794  0.13096  1.0000 -0.0173305369
C   C7        1.0  0.61114  0.88381  0.67061  1.0000 -0.0173305369
C   C8        1.0  0.88381  0.67061  0.61114  1.0000 -0.0173305369
C   C9        1.0  0.67061  0.61114  0.88381  1.0000 -0.0173305369
C   C10       1.0  0.38886  0.11619  0.32939  1.0000 -0.0173305369
C   C11       1.0  0.11619  0.32939  0.38886  1.0000 -0.0173305369
C   C12       1.0  0.32939  0.38886  0.11619  1.0000 -0.0173305369
C   C13       1.0  0.64958  0.88120  0.58762  1.0000 -0.0399123084
C   C14       1.0  0.88120  0.58762  0.64958  1.0000 -0.0399123084
C   C15       1.0  0.58762  0.64958  0.88120  1.0000 -0.0399123084
C   C16       1.0  0.35042  0.11880  0.41238  1.0000 -0.0399123084
C   C17       1.0  0.11880  0.41238  0.35042  1.0000 -0.0399123084
C   C18       1.0  0.41238  0.35042  0.11880  1.0000 -0.0399123084
C   C19       1.0  0.65493  0.20385  0.72912  1.0000 0.1219348769
C   C20       1.0  0.20385  0.72912  0.65493  1.0000 0.1219348769
C   C21       1.0  0.72912  0.65493  0.20385  1.0000 0.1219348769
C   C22       1.0  0.34507  0.79615  0.27088  1.0000 0.1219348769
C   C23       1.0  0.79615  0.27088  0.34507  1.0000 0.1219348769
C   C24       1.0  0.27088  0.34507  0.79615  1.0000 0.1219348769
C   C25       1.0  0.61916  0.85242  0.62081  1.0000 -0.1105161231
C   C26       1.0  0.85242  0.62081  0.61916  1.0000 -0.1105161231
C   C27       1.0  0.62081  0.61916  0.85242  1.0000 -0.1105161231
C   C28       1.0  0.38084  0.14758  0.37919  1.0000 -0.1105161231
C   C29       1.0  0.14758  0.37919  0.38084  1.0000 -0.1105161231
C   C30       1.0  0.37919  0.38084  0.14758  1.0000 -0.1105161231
C   C31       1.0  0.62502  0.23436  0.69510  1.0000 -0.0173305369
C   C32       1.0  0.23436  0.69510  0.62502  1.0000 -0.0173305369
C   C33       1.0  0.69510  0.62502  0.23436  1.0000 -0.0173305369
C   C34       1.0  0.37498  0.76564  0.30490  1.0000 -0.0173305369
C   C35       1.0  0.76564  0.30490  0.37498  1.0000 -0.0173305369
C   C36       1.0  0.30490  0.37498  0.76564  1.0000 -0.0173305369
C   C37       1.0  0.52591  0.81796  0.76916  1.0000 -0.0776624895
C   C38       1.0  0.81796  0.76916  0.52591  1.0000 -0.0776624895
C   C39       1.0  0.76916  0.52591  0.81796  1.0000 -0.0776624895
C   C40       1.0  0.47409  0.18204  0.23084  1.0000 -0.0776624895
C   C41       1.0  0.18204  0.23084  0.47409  1.0000 -0.0776624895
C   C42       1.0  0.23084  0.47409  0.18204  1.0000 -0.0776624895
C   C43       1.0  0.58743  0.91817  0.75338  1.0000 0.1219348769
C   C44       1.0  0.91817  0.75338  0.58743  1.0000 0.1219348769
C   C45       1.0  0.75338  0.58743  0.91817  1.0000 0.1219348769
C   C46       1.0  0.41257  0.08183  0.24662  1.0000 0.1219348769
C   C47       1.0  0.08183  0.24662  0.41257  1.0000 0.1219348769
C   C48       1.0  0.24662  0.41257  0.08183  1.0000 0.1219348769
C   C49       1.0  0.55138  0.81951  0.72141  1.0000 -0.1041148648
C   C50       1.0  0.81951  0.72141  0.55138  1.0000 -0.1041148648
C   C51       1.0  0.72141  0.55138  0.81951  1.0000 -0.1041148648
C   C52       1.0  0.44862  0.18049  0.27859  1.0000 -0.1041148648
C   C53       1.0  0.18049  0.27859  0.44862  1.0000 -0.1041148648
C   C54       1.0  0.27859  0.44862  0.18049  1.0000 -0.1041148648
C   C55       1.0  0.63326  0.94100  0.68583  1.0000 0.1219348769
C   C56       1.0  0.94100  0.68583  0.63326  1.0000 0.1219348769
C   C57       1.0  0.68583  0.63326  0.94100  1.0000 0.1219348769
C   C58       1.0  0.36674  0.05900  0.31417  1.0000 0.1219348769
C   C59       1.0  0.05900  0.31417  0.36674  1.0000 0.1219348769
C   C60       1.0  0.31417  0.36674  0.05900  1.0000 0.1219348769
C   C61       1.0  0.63198  0.01795  0.76487  1.0000 0.1664951607
C   C62       1.0  0.01795  0.76487  0.63198  1.0000 0.1664951607
C   C63       1.0  0.76487  0.63198  0.01795  1.0000 0.1664951607
C   C64       1.0  0.36802  0.98205  0.23513  1.0000 0.1638696744
C   C65       1.0  0.98205  0.23513  0.36802  1.0000 0.1664951607
C   C66       1.0  0.23513  0.36802  0.98205  1.0000 0.1638696744
C   C67       1.0  0.74114  0.35202  0.69190  1.0000 0.5709586843
C   C68       1.0  0.35202  0.69190  0.74114  1.0000 0.5709586843
C   C69       1.0  0.69190  0.74114  0.35202  1.0000 0.5709586843
C   C70       1.0  0.25886  0.64798  0.30810  1.0000 0.5709586843
C   C71       1.0  0.64798  0.30810  0.25886  1.0000 0.5709586843
C   C72       1.0  0.30810  0.25886  0.64798  1.0000 0.5709586843
C   C73       1.0  0.41680  0.18741  0.60989  1.0000 0.5764131997
C   C74       1.0  0.18741  0.60989  0.41680  1.0000 0.5764131997
C   C75       1.0  0.60989  0.41680  0.18741  1.0000 0.5764131997
C   C76       1.0  0.58320  0.81259  0.39011  1.0000 0.5764131997
C   C77       1.0  0.81259  0.39011  0.58320  1.0000 0.5764131997
C   C78       1.0  0.39011  0.58320  0.81259  1.0000 0.5764131997
C   C79       1.0  0.49617  0.76678  0.77979  1.0000 0.5709586843
C   C80       1.0  0.76678  0.77979  0.49617  1.0000 0.5709586843
C   C81       1.0  0.77979  0.49617  0.76678  1.0000 0.5709586843
C   C82       1.0  0.50383  0.23322  0.22021  1.0000 0.5709586843
C   C83       1.0  0.23322  0.22021  0.50383  1.0000 0.5709586843
C   C84       1.0  0.22021  0.50383  0.23322  1.0000 0.5709586843
C   C85       1.0  0.67120  0.93824  0.60415  1.0000 -0.0688458838
C   C86       1.0  0.93824  0.60415  0.67120  1.0000 -0.0688458838
C   C87       1.0  0.60415  0.67120  0.93824  1.0000 -0.0688458838
C   C88       1.0  0.32880  0.06176  0.39585  1.0000 -0.0688458838
C   C89       1.0  0.06176  0.39585  0.32880  1.0000 -0.0688458838
C   C90       1.0  0.39585  0.32880  0.06176  1.0000 -0.0688458838
C   C91       1.0  0.56773  0.20596  0.68062  1.0000 -0.0173305369
C   C92       1.0  0.20596  0.68062  0.56773  1.0000 -0.0173305369
C   C93       1.0  0.68062  0.56773  0.20596  1.0000 -0.0173305369
C   C94       1.0  0.43227  0.79404  0.31938  1.0000 -0.0173305369
C   C95       1.0  0.79404  0.31938  0.43227  1.0000 -0.0173305369
C   C96       1.0  0.31938  0.43227  0.79404  1.0000 -0.0173305369
C   C97       1.0  0.65938  0.03335  0.82173  1.0000 -0.2415432603
C   C98       1.0  0.03335  0.82173  0.65938  1.0000 -0.2415432603
C   C99       1.0  0.82173  0.65938  0.03335  1.0000 -0.2415432603
C   C100      1.0  0.34062  0.96665  0.17827  1.0000 -0.2415432603
C   C101      1.0  0.96665  0.17827  0.34062  1.0000 -0.2415432603
C   C102      1.0  0.17827  0.34062  0.96665  1.0000 -0.2415432603
C   C103      1.0  0.65831  0.84953  0.53457  1.0000 0.5764131997
C   C104      1.0  0.84953  0.53457  0.65831  1.0000 0.5764131997
C   C105      1.0  0.53457  0.65831  0.84953  1.0000 0.5764131997
C   C106      1.0  0.34169  0.15047  0.46543  1.0000 0.5764131997
C   C107      1.0  0.15047  0.46543  0.34169  1.0000 0.5764131997
C   C108      1.0  0.46543  0.34169  0.15047  1.0000 0.5764131997
C   C109      1.0  0.56444  0.15731  0.70391  1.0000 0.1219348769
C   C110      1.0  0.15731  0.70391  0.56444  1.0000 0.1219348769
C   C111      1.0  0.70391  0.56444  0.15731  1.0000 0.1219348769
C   C112      1.0  0.43556  0.84269  0.29609  1.0000 0.1219348769
C   C113      1.0  0.84269  0.29609  0.43556  1.0000 0.1219348769
C   C114      1.0  0.29609  0.43556  0.84269  1.0000 0.1219348769
C   C115      1.0  0.61875  0.05961  0.73554  1.0000 -0.2590159571
C   C116      1.0  0.05961  0.73554  0.61875  1.0000 -0.2590159571
C   C117      1.0  0.73554  0.61875  0.05961  1.0000 -0.2590159571
C   C118      1.0  0.38125  0.94039  0.26446  1.0000 -0.2590159571
C   C119      1.0  0.94039  0.26446  0.38125  1.0000 -0.2590159571
C   C120      1.0  0.26446  0.38125  0.94039  1.0000 -0.2590159571
C   C121      1.0  0.71092  0.30129  0.70433  1.0000 -0.0585578313
C   C122      1.0  0.30129  0.70433  0.71092  1.0000 -0.0585578313
C   C123      1.0  0.70433  0.71092  0.30129  1.0000 -0.0585578313
C   C124      1.0  0.28908  0.69871  0.29567  1.0000 -0.0585578313
C   C125      1.0  0.69871  0.29567  0.28908  1.0000 -0.0585578313
C   C126      1.0  0.29567  0.28908  0.69871  1.0000 -0.0585578313
C   C127      1.0  0.53243  0.86808  0.80741  1.0000 -0.0585578313
C   C128      1.0  0.86808  0.80741  0.53243  1.0000 -0.0585578313
C   C129      1.0  0.80741  0.53243  0.86808  1.0000 -0.0585578313
C   C130      1.0  0.46757  0.13192  0.19259  1.0000 -0.0585578313
C   C131      1.0  0.13192  0.19259  0.46757  1.0000 -0.0585578313
C   C132      1.0  0.19259  0.46757  0.13192  1.0000 -0.0585578313
C   C133      1.0  0.46856  0.17875  0.64260  1.0000 -0.0585578313
C   C134      1.0  0.17875  0.64260  0.46856  1.0000 -0.0585578313
C   C135      1.0  0.64260  0.46856  0.17875  1.0000 -0.0585578313
C   C136      1.0  0.53144  0.82125  0.35740  1.0000 -0.0585578313
C   C137      1.0  0.82125  0.35740  0.53144  1.0000 -0.0585578313
C   C138      1.0  0.35740  0.53144  0.82125  1.0000 -0.0585578313
C   C139      1.0  0.56264  0.91811  0.80055  1.0000 -0.2019180453
C   C140      1.0  0.91811  0.80055  0.56264  1.0000 -0.2019180453
C   C141      1.0  0.80055  0.56264  0.91811  1.0000 -0.2019180453
C   C142      1.0  0.43736  0.08189  0.19945  1.0000 -0.2019180453
C   C143      1.0  0.08189  0.19945  0.43736  1.0000 -0.2019180453
C   C144      1.0  0.19945  0.43736  0.08189  1.0000 -0.2019180453
C   C145      1.0  0.71196  0.22024  0.74870  1.0000 -0.2019180453
C   C146      1.0  0.22024  0.74870  0.71196  1.0000 -0.2019180453
C   C147      1.0  0.74870  0.71196  0.22024  1.0000 -0.2019180453
C   C148      1.0  0.28804  0.77976  0.25130  1.0000 -0.2019180453
C   C149      1.0  0.77976  0.25130  0.28804  1.0000 -0.2019180453
C   C150      1.0  0.25130  0.28804  0.77976  1.0000 -0.2019180453
C   C151      1.0  0.51899  0.21562  0.64977  1.0000 -0.1105161231
C   C152      1.0  0.21562  0.64977  0.51899  1.0000 -0.1105161231
C   C153      1.0  0.64977  0.51899  0.21562  1.0000 -0.1105161231
C   C154      1.0  0.48101  0.78438  0.35023  1.0000 -0.1105161231
C   C155      1.0  0.78438  0.35023  0.48101  1.0000 -0.1105161231
C   C156      1.0  0.35023  0.48101  0.78438  1.0000 -0.1105161231
C   C157      1.0  0.66441  0.97027  0.65391  1.0000 -0.214463164
C   C158      1.0  0.97027  0.65391  0.66441  1.0000 -0.214463164
C   C159      1.0  0.65391  0.66441  0.97027  1.0000 -0.214463164
C   C160      1.0  0.33559  0.02973  0.34609  1.0000 -0.214463164
C   C161      1.0  0.02973  0.34609  0.33559  1.0000 -0.214463164
C   C162      1.0  0.34609  0.33559  0.02973  1.0000 -0.214463164
C   C163      1.0  0.46767  0.13037  0.66577  1.0000 -0.0585578313
C   C164      1.0  0.13037  0.66577  0.46767  1.0000 -0.0585578313
C   C165      1.0  0.66577  0.46767  0.13037  1.0000 -0.0585578313
C   C166      1.0  0.53233  0.86963  0.33423  1.0000 -0.0585578313
C   C167      1.0  0.86963  0.33423  0.53233  1.0000 -0.0585578313
C   C168      1.0  0.33423  0.53233  0.86963  1.0000 -0.0585578313
C   C169      1.0  0.63103  0.11504  0.76263  1.0000 0.1664951607
C   C170      1.0  0.11504  0.76263  0.63103  1.0000 0.1664951607
C   C171      1.0  0.76263  0.63103  0.11504  1.0000 0.1664951607
C   C172      1.0  0.36897  0.88496  0.23737  1.0000 0.1664951607
C   C173      1.0  0.88496  0.23737  0.36897  1.0000 0.1664951607
C   C174      1.0  0.23737  0.36897  0.88496  1.0000 0.1664951607
C   C175      1.0  0.65413  0.28443  0.68303  1.0000 -0.1105161231
C   C176      1.0  0.28443  0.68303  0.65413  1.0000 -0.1105161231
C   C177      1.0  0.68303  0.65413  0.28443  1.0000 -0.1105161231
C   C178      1.0  0.34587  0.71557  0.31697  1.0000 -0.1105161231
C   C179      1.0  0.71557  0.31697  0.34587  1.0000 -0.1105161231
C   C180      1.0  0.31697  0.34587  0.71557  1.0000 -0.1105161231
C   C181      1.0  0.67070  0.08750  0.84710  1.0000 0.1089087853
C   C182      1.0  0.08750  0.84710  0.67070  1.0000 0.1089087853
C   C183      1.0  0.84710  0.67070  0.08750  1.0000 0.1089087853
C   C184      1.0  0.32930  0.91250  0.15290  1.0000 0.1089087853
C   C185      1.0  0.91250  0.15290  0.32930  1.0000 0.1089087853
C   C186      1.0  0.15290  0.32930  0.91250  1.0000 0.1089087853
C   C187      1.0  0.51520  0.12010  0.69850  1.0000 -0.214463164
C   C188      1.0  0.12010  0.69850  0.51520  1.0000 -0.214463164
C   C189      1.0  0.69850  0.51520  0.12010  1.0000 -0.214463164
C   C190      1.0  0.48480  0.87990  0.30150  1.0000 -0.214463164
C   C191      1.0  0.87990  0.30150  0.48480  1.0000 -0.214463164
C   C192      1.0  0.30150  0.48480  0.87990  1.0000 -0.214463164
C   C193      1.0  0.73790  0.26920  0.73680  1.0000 -0.0688458838
C   C194      1.0  0.26920  0.73680  0.73790  1.0000 -0.0688458838
C   C195      1.0  0.73680  0.73790  0.26920  1.0000 -0.0688458838
C   C196      1.0  0.26210  0.73080  0.26320  1.0000 -0.0688458838
C   C197      1.0  0.73080  0.26320  0.26210  1.0000 -0.0688458838
C   C198      1.0  0.26320  0.26210  0.73080  1.0000 -0.0688458838
C   C199      1.0  0.65650  0.12906  0.81878  1.0000 -0.2415432603
C   C200      1.0  0.12906  0.81878  0.65650  1.0000 -0.2415432603
C   C201      1.0  0.81878  0.65650  0.12906  1.0000 -0.2415432603
C   C202      1.0  0.34350  0.87094  0.18122  1.0000 -0.2415432603
C   C203      1.0  0.87094  0.18122  0.34350  1.0000 -0.2415432603
C   C204      1.0  0.18122  0.34350  0.87094  1.0000 -0.2415432603
Br  Br1       1.0  0.70691  0.10777  0.92382  1.0000 -0.0919689954
Br  Br2       1.0  0.10777  0.92382  0.70691  1.0000 -0.0919689954
Br  Br3       1.0  0.92382  0.70691  0.10777  1.0000 -0.0919689954
Br  Br4       1.0  0.29309  0.89223  0.07618  1.0000 -0.0919689954
Br  Br5       1.0  0.89223  0.07618  0.29309  1.0000 -0.0919689954
Br  Br6       1.0  0.07618  0.29309  0.89223  1.0000 -0.0919689954
N   N1        1.0  0.61971  0.96133  0.73665  1.0000 -0.0776624895
N   N2        1.0  0.96133  0.73665  0.61971  1.0000 -0.0776624895
N   N3        1.0  0.73665  0.61971  0.96133  1.0000 -0.0776624895
N   N4        1.0  0.38029  0.03867  0.26335  1.0000 -0.0776624895
N   N5        1.0  0.03867  0.26335  0.38029  1.0000 -0.0776624895
N   N6        1.0  0.26335  0.38029  0.03867  1.0000 -0.0776624895
N   N7        1.0  0.61685  0.15729  0.73369  1.0000 -0.0776624895
N   N8        1.0  0.15729  0.73369  0.61685  1.0000 -0.0776624895
N   N9        1.0  0.73369  0.61685  0.15729  1.0000 -0.0776624895
N   N10       1.0  0.38315  0.84271  0.26631  1.0000 -0.0776624895
N   N11       1.0  0.84271  0.26631  0.38315  1.0000 -0.0776624895
N   N12       1.0  0.26631  0.38315  0.84271  1.0000 -0.0776624895
O   O1        1.0  0.63805  0.79698  0.52116  1.0000 -0.5222936798
O   O2        1.0  0.79698  0.52116  0.63805  1.0000 -0.5222936798
O   O3        1.0  0.52116  0.63805  0.79698  1.0000 -0.5222936798
O   O4        1.0  0.36195  0.20302  0.47884  1.0000 -0.5222936798
O   O5        1.0  0.20302  0.47884  0.36195  1.0000 -0.5222936798
O   O6        1.0  0.47884  0.36195  0.20302  1.0000 -0.5222936798
O   O7        1.0  0.49172  0.72240  0.74378  1.0000 -0.5222936798
O   O8        1.0  0.72240  0.74378  0.49172  1.0000 -0.5222936798
O   O9        1.0  0.74378  0.49172  0.72240  1.0000 -0.5222936798
O   O10       1.0  0.50828  0.27760  0.25622  1.0000 -0.5222936798
O   O11       1.0  0.27760  0.25622  0.50828  1.0000 -0.5222936798
O   O12       1.0  0.25622  0.50828  0.27760  1.0000 -0.5222936798
O   O13       1.0  0.71436  0.38091  0.66420  1.0000 -0.5086202816
O   O14       1.0  0.38091  0.66420  0.71436  1.0000 -0.5086202816
O   O15       1.0  0.66420  0.71436  0.38091  1.0000 -0.5086202816
O   O16       1.0  0.28564  0.61909  0.33580  1.0000 -0.5086202816
O   O17       1.0  0.61909  0.33580  0.28564  1.0000 -0.5086202816
O   O18       1.0  0.33580  0.28564  0.61909  1.0000 -0.5086202816
O   O19       1.0  0.47620  0.76862  0.82351  1.0000 -0.5086202816
O   O20       1.0  0.76862  0.82351  0.47620  1.0000 -0.5086202816
O   O21       1.0  0.82351  0.47620  0.76862  1.0000 -0.5086202816
O   O22       1.0  0.52380  0.23138  0.17649  1.0000 -0.5086202816
O   O23       1.0  0.23138  0.17649  0.52380  1.0000 -0.5086202816
O   O24       1.0  0.17649  0.52380  0.23138  1.0000 -0.5086202816
O   O25       1.0  0.68513  0.87681  0.50423  1.0000 -0.5293438778
O   O26       1.0  0.87681  0.50423  0.68513  1.0000 -0.5293438778
O   O27       1.0  0.50423  0.68513  0.87681  1.0000 -0.5293438778
O   O28       1.0  0.31487  0.12319  0.49577  1.0000 -0.5293438778
O   O29       1.0  0.12319  0.49577  0.31487  1.0000 -0.5293438778
O   O30       1.0  0.49577  0.31487  0.12319  1.0000 -0.5293438778
O   O31       1.0  0.37261  0.15232  0.60541  1.0000 -0.5086202816
O   O32       1.0  0.15232  0.60541  0.37261  1.0000 -0.5086202816
O   O33       1.0  0.60541  0.37261  0.15232  1.0000 -0.5086202816
O   O34       1.0  0.62739  0.84768  0.39459  1.0000 -0.5086202816
O   O35       1.0  0.84768  0.39459  0.62739  1.0000 -0.5086202816
O   O36       1.0  0.39459  0.62739  0.84768  1.0000 -0.5086202816
O   O37       1.0  0.41896  0.23175  0.58895  1.0000 -0.5222936798
O   O38       1.0  0.23175  0.58895  0.41896  1.0000 -0.5222936798
O   O39       1.0  0.58895  0.41896  0.23175  1.0000 -0.5222936798
O   O40       1.0  0.58104  0.76825  0.41105  1.0000 -0.5222936798
O   O41       1.0  0.76825  0.41105  0.58104  1.0000 -0.5222936798
O   O42       1.0  0.41105  0.58104  0.76825  1.0000 -0.5222936798
O   O43       1.0  0.79425  0.36525  0.71142  1.0000 -0.5293438778
O   O44       1.0  0.36525  0.71142  0.79425  1.0000 -0.5293438778
O   O45       1.0  0.71142  0.79425  0.36525  1.0000 -0.5293438778
O   O46       1.0  0.20575  0.63475  0.28858  1.0000 -0.5293438778
O   O47       1.0  0.63475  0.28858  0.20575  1.0000 -0.5293438778
O   O48       1.0  0.28858  0.20575  0.63475  1.0000 -0.5293438778
