# DDEC6 charges by PACMAN v1.1 (https://github.com/mtap-research/PACMAN-charge/)
data_2023[Tm][nan]3[ASR]1
_chemical_formula_sum              "Tm4 H12 C36 O24"
_cell_length_a       10.1794
_cell_length_b       10.1794
_cell_length_c       14.4025
_cell_angle_alpha    90
_cell_angle_beta     90
_cell_angle_gamma    90

_symmetry_space_group_name_H-M    "P 1"
_symmetry_Int_Tables_number       1

loop_
  _symmetry_equiv_pos_as_xyz
  'x, y, z'

loop_
  _atom_site_type_symbol
  _atom_site_label
  _atom_site_symmetry_multiplicity
  _atom_site_fract_x
  _atom_site_fract_y
  _atom_site_fract_z
  _atom_site_occupancy
  _atom_site_charge
Tm  Tm1       1.0  0.84952  0.84952  0.62500  1.0000 2.117383804
Tm  Tm2       1.0  0.15048  0.15048  0.12500  1.0000 2.117383804
Tm  Tm3       1.0  0.15048  0.84952  0.37500  1.0000 2.117383804
Tm  Tm4       1.0  0.84952  0.15048  0.87500  1.0000 2.117383804
H   H1        1.0  0.00000  0.09907  0.50000  1.0000 0.1139144114
H   H2        1.0  0.00000  0.90093  0.00000  1.0000 0.1139144114
H   H3        1.0  0.90093  0.00000  0.25000  1.0000 0.1139144114
H   H4        1.0  0.09907  0.00000  0.75000  1.0000 0.1139144114
H   H5        1.0  0.07354  0.43944  0.37076  1.0000 0.1382147184
H   H6        1.0  0.92646  0.56056  0.87076  1.0000 0.1382147184
H   H7        1.0  0.56056  0.07354  0.12076  1.0000 0.1382147184
H   H8        1.0  0.43944  0.92646  0.62076  1.0000 0.1382147184
H   H9        1.0  0.92646  0.43944  0.62924  1.0000 0.1382147184
H   H10       1.0  0.07354  0.56056  0.12924  1.0000 0.1382147184
H   H11       1.0  0.43944  0.07354  0.87924  1.0000 0.1382147184
H   H12       1.0  0.56056  0.92646  0.37924  1.0000 0.1382147184
C   C1        1.0  0.00000  0.19040  0.50000  1.0000 -0.1071774551
C   C2        1.0  0.00000  0.80960  0.00000  1.0000 -0.1071774551
C   C3        1.0  0.80960  0.00000  0.25000  1.0000 -0.1071774551
C   C4        1.0  0.19040  0.00000  0.75000  1.0000 -0.1071774551
C   C5        1.0  0.00000  0.60920  0.50000  1.0000 0.6797558925
C   C6        1.0  0.00000  0.39080  0.00000  1.0000 0.6797558925
C   C7        1.0  0.39080  0.00000  0.25000  1.0000 0.6797558925
C   C8        1.0  0.60920  0.00000  0.75000  1.0000 0.6797558925
C   C9        1.0  0.04410  0.39390  0.42270  1.0000 -0.0886198284
C   C10       1.0  0.95590  0.60610  0.92270  1.0000 -0.0886198284
C   C11       1.0  0.60610  0.04410  0.17270  1.0000 -0.0886198284
C   C12       1.0  0.39390  0.95590  0.67270  1.0000 -0.0886198284
C   C13       1.0  0.95590  0.39390  0.57730  1.0000 -0.0886198284
C   C14       1.0  0.04410  0.60610  0.07730  1.0000 -0.0886198284
C   C15       1.0  0.39390  0.04410  0.82730  1.0000 -0.0886198284
C   C16       1.0  0.60610  0.95590  0.32730  1.0000 -0.0886198284
C   C17       1.0  0.04420  0.25810  0.42270  1.0000 -0.0392980475
C   C18       1.0  0.95580  0.74190  0.92270  1.0000 -0.0392980475
C   C19       1.0  0.74190  0.04420  0.17270  1.0000 -0.0392980475
C   C20       1.0  0.25810  0.95580  0.67270  1.0000 -0.0392980475
C   C21       1.0  0.95580  0.25810  0.57730  1.0000 -0.0392980475
C   C22       1.0  0.04420  0.74190  0.07730  1.0000 -0.0392980475
C   C23       1.0  0.25810  0.04420  0.82730  1.0000 -0.0392980475
C   C24       1.0  0.74190  0.95580  0.32730  1.0000 -0.0392980475
C   C25       1.0  0.00000  0.46260  0.50000  1.0000 -0.0526288255
C   C26       1.0  0.00000  0.53740  0.00000  1.0000 -0.0526288255
C   C27       1.0  0.53740  0.00000  0.25000  1.0000 -0.0526288255
C   C28       1.0  0.46260  0.00000  0.75000  1.0000 -0.0526288255
C   C29       1.0  0.08920  0.18120  0.33980  1.0000 0.649346914
C   C30       1.0  0.91080  0.81880  0.83980  1.0000 0.649346914
C   C31       1.0  0.81880  0.08920  0.08980  1.0000 0.649346914
C   C32       1.0  0.18120  0.91080  0.58980  1.0000 0.649346914
C   C33       1.0  0.91080  0.18120  0.66020  1.0000 0.649346914
C   C34       1.0  0.08920  0.81880  0.16020  1.0000 0.649346914
C   C35       1.0  0.18120  0.08920  0.91020  1.0000 0.649346914
C   C36       1.0  0.81880  0.91080  0.41020  1.0000 0.649346914
O   O1        1.0  0.09600  0.23970  0.26300  1.0000 -0.6689703727
O   O2        1.0  0.90400  0.76030  0.76300  1.0000 -0.6689703727
O   O3        1.0  0.76030  0.09600  0.01300  1.0000 -0.6689703727
O   O4        1.0  0.23970  0.90400  0.51300  1.0000 -0.6689703727
O   O5        1.0  0.90400  0.23970  0.73700  1.0000 -0.6689703727
O   O6        1.0  0.09600  0.76030  0.23700  1.0000 -0.6689703727
O   O7        1.0  0.23970  0.09600  0.98700  1.0000 -0.6689703727
O   O8        1.0  0.76030  0.90400  0.48700  1.0000 -0.6689703727
O   O9        1.0  0.11430  0.06490  0.35000  1.0000 -0.6689703727
O   O10       1.0  0.88570  0.93510  0.85000  1.0000 -0.6689703727
O   O11       1.0  0.93510  0.11430  0.10000  1.0000 -0.6689703727
O   O12       1.0  0.06490  0.88570  0.60000  1.0000 -0.6689703727
O   O13       1.0  0.88570  0.06490  0.65000  1.0000 -0.6689703727
O   O14       1.0  0.11430  0.93510  0.15000  1.0000 -0.6689703727
O   O15       1.0  0.06490  0.11430  0.90000  1.0000 -0.6689703727
O   O16       1.0  0.93510  0.88570  0.40000  1.0000 -0.6689703727
O   O17       1.0  0.92400  0.66420  0.55700  1.0000 -0.6973269248
O   O18       1.0  0.07600  0.33580  0.05700  1.0000 -0.6973269248
O   O19       1.0  0.33580  0.92400  0.30700  1.0000 -0.6973269248
O   O20       1.0  0.66420  0.07600  0.80700  1.0000 -0.6973269248
O   O21       1.0  0.07600  0.66420  0.44300  1.0000 -0.6973269248
O   O22       1.0  0.92400  0.33580  0.94300  1.0000 -0.6973269248
O   O23       1.0  0.66420  0.92400  0.69300  1.0000 -0.6973269248
O   O24       1.0  0.33580  0.07600  0.19300  1.0000 -0.6973269248
