# DDEC6 charges by PACMAN v1.1 (https://github.com/mtap-research/PACMAN-charge/)
data_2023[Dy][nan]3[ASR]1
_chemical_formula_sum              "Dy8 H24 C72 O48"
_cell_length_a       14.1906
_cell_length_b       14.1906
_cell_length_c       14.4586
_cell_angle_alpha    90
_cell_angle_beta     90
_cell_angle_gamma    90

_symmetry_space_group_name_H-M    "P 1"
_symmetry_Int_Tables_number       1

loop_
  _symmetry_equiv_pos_as_xyz
  'x, y, z'

loop_
  _atom_site_type_symbol
  _atom_site_label
  _atom_site_symmetry_multiplicity
  _atom_site_fract_x
  _atom_site_fract_y
  _atom_site_fract_z
  _atom_site_occupancy
  _atom_site_charge
Dy  Dy1       1.0  0.14781  0.47812  0.87036  1.0000 2.0877012904
Dy  Dy2       1.0  0.85219  0.52188  0.37036  1.0000 2.0877012904
Dy  Dy3       1.0  0.02188  0.64781  0.12036  1.0000 2.0877012904
Dy  Dy4       1.0  0.97812  0.35219  0.62036  1.0000 2.0877012904
Dy  Dy5       1.0  0.35219  0.97812  0.37964  1.0000 2.0877012904
Dy  Dy6       1.0  0.64781  0.02188  0.87964  1.0000 2.0877012904
Dy  Dy7       1.0  0.47812  0.14781  0.12964  1.0000 2.0877012904
Dy  Dy8       1.0  0.52188  0.85219  0.62964  1.0000 2.0877012904
H   H1        1.0  0.92180  0.47930  0.98990  1.0000 0.1064228737
H   H2        1.0  0.07820  0.52070  0.48990  1.0000 0.1064228737
H   H3        1.0  0.02070  0.42180  0.23990  1.0000 0.1064228737
H   H4        1.0  0.97930  0.57820  0.73990  1.0000 0.1064228737
H   H5        1.0  0.57820  0.97930  0.26010  1.0000 0.1064228737
H   H6        1.0  0.42180  0.02070  0.76010  1.0000 0.1064228737
H   H7        1.0  0.47930  0.92180  0.01010  1.0000 0.1064228737
H   H8        1.0  0.52070  0.07820  0.51010  1.0000 0.1064228737
H   H9        1.0  0.71160  0.34910  0.12460  1.0000 0.1314293067
H   H10       1.0  0.28840  0.65090  0.62460  1.0000 0.1314293067
H   H11       1.0  0.15090  0.21160  0.37460  1.0000 0.1314293067
H   H12       1.0  0.84910  0.78840  0.87460  1.0000 0.1314293067
H   H13       1.0  0.78840  0.84910  0.12540  1.0000 0.1314293067
H   H14       1.0  0.21160  0.15090  0.62540  1.0000 0.1314293067
H   H15       1.0  0.34910  0.71160  0.87540  1.0000 0.1314293067
H   H16       1.0  0.65090  0.28840  0.37540  1.0000 0.1314293067
H   H17       1.0  0.77380  0.27890  0.86150  1.0000 0.1314293067
H   H18       1.0  0.22620  0.72110  0.36150  1.0000 0.1314293067
H   H19       1.0  0.22110  0.27380  0.11150  1.0000 0.1314293067
H   H20       1.0  0.77890  0.72620  0.61150  1.0000 0.1314293067
H   H21       1.0  0.72620  0.77890  0.38850  1.0000 0.1314293067
H   H22       1.0  0.27380  0.22110  0.88850  1.0000 0.1314293067
H   H23       1.0  0.27890  0.77380  0.13850  1.0000 0.1314293067
H   H24       1.0  0.72110  0.22620  0.63850  1.0000 0.1314293067
C   C1        1.0  0.91840  0.39120  0.83110  1.0000 0.6502061705
C   C2        1.0  0.08160  0.60880  0.33110  1.0000 0.6502061705
C   C3        1.0  0.10880  0.41840  0.08110  1.0000 0.6502061705
C   C4        1.0  0.89120  0.58160  0.58110  1.0000 0.6502061705
C   C5        1.0  0.58160  0.89120  0.41890  1.0000 0.6502061705
C   C6        1.0  0.41840  0.10880  0.91890  1.0000 0.6502061705
C   C7        1.0  0.39120  0.91840  0.16890  1.0000 0.6502061705
C   C8        1.0  0.60880  0.08160  0.66890  1.0000 0.6502061705
C   C9        1.0  0.85680  0.38040  0.91340  1.0000 -0.0504173808
C   C10       1.0  0.14320  0.61960  0.41340  1.0000 -0.0504173808
C   C11       1.0  0.11960  0.35680  0.16340  1.0000 -0.0504173808
C   C12       1.0  0.88040  0.64320  0.66340  1.0000 -0.0504173808
C   C13       1.0  0.64320  0.88040  0.33660  1.0000 -0.0504173808
C   C14       1.0  0.35680  0.11960  0.83660  1.0000 -0.0504173808
C   C15       1.0  0.38040  0.85680  0.08660  1.0000 -0.0504173808
C   C16       1.0  0.61960  0.14320  0.58660  1.0000 -0.0504173808
C   C17       1.0  0.87350  0.43500  0.99140  1.0000 -0.0977236931
C   C18       1.0  0.12650  0.56500  0.49140  1.0000 -0.0977236931
C   C19       1.0  0.06500  0.37350  0.24140  1.0000 -0.0977236931
C   C20       1.0  0.93500  0.62650  0.74140  1.0000 -0.0977236931
C   C21       1.0  0.62650  0.93500  0.25860  1.0000 -0.0977236931
C   C22       1.0  0.37350  0.06500  0.75860  1.0000 -0.0977236931
C   C23       1.0  0.43500  0.87350  0.00860  1.0000 -0.0977236931
C   C24       1.0  0.56500  0.12650  0.50860  1.0000 -0.0977236931
C   C25       1.0  0.82020  0.42550  0.07190  1.0000 -0.0504173808
C   C26       1.0  0.17980  0.57450  0.57190  1.0000 -0.0504173808
C   C27       1.0  0.07450  0.32020  0.32190  1.0000 -0.0504173808
C   C28       1.0  0.92550  0.67980  0.82190  1.0000 -0.0504173808
C   C29       1.0  0.67980  0.92550  0.17810  1.0000 -0.0504173808
C   C30       1.0  0.32020  0.07450  0.67810  1.0000 -0.0504173808
C   C31       1.0  0.42550  0.82020  0.92810  1.0000 -0.0504173808
C   C32       1.0  0.57450  0.17980  0.42810  1.0000 -0.0504173808
C   C33       1.0  0.74640  0.35880  0.07090  1.0000 -0.0852649272
C   C34       1.0  0.25360  0.64120  0.57090  1.0000 -0.0852649272
C   C35       1.0  0.14120  0.24640  0.32090  1.0000 -0.0852649272
C   C36       1.0  0.85880  0.75360  0.82090  1.0000 -0.0852649272
C   C37       1.0  0.75360  0.85880  0.17910  1.0000 -0.0852649272
C   C38       1.0  0.24640  0.14120  0.67910  1.0000 -0.0852649272
C   C39       1.0  0.35880  0.74640  0.92910  1.0000 -0.0852649272
C   C40       1.0  0.64120  0.25360  0.42910  1.0000 -0.0852649272
C   C41       1.0  0.72390  0.30670  0.99200  1.0000 -0.065988176
C   C42       1.0  0.27610  0.69330  0.49200  1.0000 -0.065988176
C   C43       1.0  0.19330  0.22390  0.24200  1.0000 -0.065988176
C   C44       1.0  0.80670  0.77610  0.74200  1.0000 -0.065988176
C   C45       1.0  0.77610  0.80670  0.25800  1.0000 -0.065988176
C   C46       1.0  0.22390  0.19330  0.75800  1.0000 -0.065988176
C   C47       1.0  0.30670  0.72390  0.00800  1.0000 -0.065988176
C   C48       1.0  0.69330  0.27610  0.50800  1.0000 -0.065988176
C   C49       1.0  0.78400  0.31630  0.91340  1.0000 -0.0808165972
C   C50       1.0  0.21600  0.68370  0.41340  1.0000 -0.0808165972
C   C51       1.0  0.18370  0.28400  0.16340  1.0000 -0.0808165972
C   C52       1.0  0.81630  0.71600  0.66340  1.0000 -0.0808165972
C   C53       1.0  0.71600  0.81630  0.33660  1.0000 -0.0808165972
C   C54       1.0  0.28400  0.18370  0.83660  1.0000 -0.0808165972
C   C55       1.0  0.31630  0.78400  0.08660  1.0000 -0.0808165972
C   C56       1.0  0.68370  0.21600  0.58660  1.0000 -0.0808165972
C   C57       1.0  0.84660  0.48360  0.15280  1.0000 0.6214120384
C   C58       1.0  0.15340  0.51640  0.65280  1.0000 0.6214120384
C   C59       1.0  0.01640  0.34660  0.40280  1.0000 0.6214120384
C   C60       1.0  0.98360  0.65340  0.90280  1.0000 0.6214120384
C   C61       1.0  0.65340  0.98360  0.09720  1.0000 0.6214120384
C   C62       1.0  0.34660  0.01640  0.59720  1.0000 0.6214120384
C   C63       1.0  0.48360  0.84660  0.84720  1.0000 0.6214120384
C   C64       1.0  0.51640  0.15340  0.34720  1.0000 0.6214120384
C   C65       1.0  0.65080  0.23250  0.99610  1.0000 0.6502061705
C   C66       1.0  0.34920  0.76750  0.49610  1.0000 0.6502061705
C   C67       1.0  0.26750  0.15080  0.24610  1.0000 0.6502061705
C   C68       1.0  0.73250  0.84920  0.74610  1.0000 0.6502061705
C   C69       1.0  0.84920  0.73250  0.25390  1.0000 0.6502061705
C   C70       1.0  0.15080  0.26750  0.75390  1.0000 0.6502061705
C   C71       1.0  0.23250  0.65080  0.00390  1.0000 0.6502061705
C   C72       1.0  0.76750  0.34920  0.50390  1.0000 0.6502061705
O   O1        1.0  0.99420  0.43520  0.84260  1.0000 -0.7112148111
O   O2        1.0  0.00580  0.56480  0.34260  1.0000 -0.7112148111
O   O3        1.0  0.06480  0.49420  0.09260  1.0000 -0.7112148111
O   O4        1.0  0.93520  0.50580  0.59260  1.0000 -0.7112148111
O   O5        1.0  0.50580  0.93520  0.40740  1.0000 -0.7112148111
O   O6        1.0  0.49420  0.06480  0.90740  1.0000 -0.7112148111
O   O7        1.0  0.43520  0.99420  0.15740  1.0000 -0.7112148111
O   O8        1.0  0.56480  0.00580  0.65740  1.0000 -0.7112148111
O   O9        1.0  0.89570  0.35270  0.75660  1.0000 -0.6530641098
O   O10       1.0  0.10430  0.64730  0.25660  1.0000 -0.6530641098
O   O11       1.0  0.14730  0.39570  0.00660  1.0000 -0.6530641098
O   O12       1.0  0.85270  0.60430  0.50660  1.0000 -0.6530641098
O   O13       1.0  0.60430  0.85270  0.49340  1.0000 -0.6530641098
O   O14       1.0  0.39570  0.14730  0.99340  1.0000 -0.6530641098
O   O15       1.0  0.35270  0.89570  0.24340  1.0000 -0.6530641098
O   O16       1.0  0.64730  0.10430  0.74340  1.0000 -0.6530641098
O   O17       1.0  0.89020  0.55370  0.14330  1.0000 -0.607411832
O   O18       1.0  0.10980  0.44630  0.64330  1.0000 -0.607411832
O   O19       1.0  0.94630  0.39020  0.39330  1.0000 -0.607411832
O   O20       1.0  0.05370  0.60980  0.89330  1.0000 -0.607411832
O   O21       1.0  0.60980  0.05370  0.10670  1.0000 -0.607411832
O   O22       1.0  0.39020  0.94630  0.60670  1.0000 -0.607411832
O   O23       1.0  0.55370  0.89020  0.85670  1.0000 -0.607411832
O   O24       1.0  0.44630  0.10980  0.35670  1.0000 -0.607411832
O   O25       1.0  0.81340  0.45750  0.22940  1.0000 -0.6530641098
O   O26       1.0  0.18660  0.54250  0.72940  1.0000 -0.6530641098
O   O27       1.0  0.04250  0.31340  0.47940  1.0000 -0.6530641098
O   O28       1.0  0.95750  0.68660  0.97940  1.0000 -0.6530641098
O   O29       1.0  0.68660  0.95750  0.02060  1.0000 -0.6530641098
O   O30       1.0  0.31340  0.04250  0.52060  1.0000 -0.6530641098
O   O31       1.0  0.45750  0.81340  0.77060  1.0000 -0.6530641098
O   O32       1.0  0.54250  0.18660  0.27060  1.0000 -0.6530641098
O   O33       1.0  0.65160  0.17380  0.93410  1.0000 -0.6617120695
O   O34       1.0  0.34840  0.82620  0.43410  1.0000 -0.6617120695
O   O35       1.0  0.32620  0.15160  0.18410  1.0000 -0.6617120695
O   O36       1.0  0.67380  0.84840  0.68410  1.0000 -0.6617120695
O   O37       1.0  0.84840  0.67380  0.31590  1.0000 -0.6617120695
O   O38       1.0  0.15160  0.32620  0.81590  1.0000 -0.6617120695
O   O39       1.0  0.17380  0.65160  0.06590  1.0000 -0.6617120695
O   O40       1.0  0.82620  0.34840  0.56590  1.0000 -0.6617120695
O   O41       1.0  0.58920  0.24210  0.05630  1.0000 -0.6617120695
O   O42       1.0  0.41080  0.75790  0.55630  1.0000 -0.6617120695
O   O43       1.0  0.25790  0.08920  0.30630  1.0000 -0.6617120695
O   O44       1.0  0.74210  0.91080  0.80630  1.0000 -0.6617120695
O   O45       1.0  0.91080  0.74210  0.19370  1.0000 -0.6617120695
O   O46       1.0  0.08920  0.25790  0.69370  1.0000 -0.6617120695
O   O47       1.0  0.24210  0.58920  0.94370  1.0000 -0.6617120695
O   O48       1.0  0.75790  0.41080  0.44370  1.0000 -0.6617120695
