# DDEC6 charges by PACMAN v1.1 (https://github.com/mtap-research/PACMAN-charge/)
data_2023[Y][nan]3[ASR]1
_chemical_formula_sum              "Y4 H60 C108 O24"
_cell_length_a       16.5537
_cell_length_b       8.0629
_cell_length_c       31.477
_cell_angle_alpha    90
_cell_angle_beta     121.091
_cell_angle_gamma    90

_symmetry_space_group_name_H-M    "P 1"
_symmetry_Int_Tables_number       1

loop_
  _symmetry_equiv_pos_as_xyz
  'x, y, z'

loop_
  _atom_site_type_symbol
  _atom_site_label
  _atom_site_symmetry_multiplicity
  _atom_site_fract_x
  _atom_site_fract_y
  _atom_site_fract_z
  _atom_site_occupancy
  _atom_site_charge
Y   Y1        1.0  0.49109  0.24247  0.97723  1.0000 1.7868546041
Y   Y2        1.0  0.50891  0.24247  0.52277  1.0000 1.7868546041
Y   Y3        1.0  0.50891  0.75753  0.02277  1.0000 1.7868546041
Y   Y4        1.0  0.49109  0.75753  0.47723  1.0000 1.7868546041
H   H1        1.0  0.37420  0.40150  0.83820  1.0000 0.1298244686
H   H2        1.0  0.62580  0.40150  0.66180  1.0000 0.1298244686
H   H3        1.0  0.62580  0.59850  0.16180  1.0000 0.1298244686
H   H4        1.0  0.37420  0.59850  0.33820  1.0000 0.1298244686
H   H5        1.0  0.29070  0.43410  0.75340  1.0000 0.1123553075
H   H6        1.0  0.70930  0.43410  0.74660  1.0000 0.1123553075
H   H7        1.0  0.70930  0.56590  0.24660  1.0000 0.1123553075
H   H8        1.0  0.29070  0.56590  0.25340  1.0000 0.1123553075
H   H9        1.0  0.22910  0.90090  0.77030  1.0000 0.1205217155
H   H10       1.0  0.77090  0.90090  0.72970  1.0000 0.1205217155
H   H11       1.0  0.77090  0.09910  0.22970  1.0000 0.1205217155
H   H12       1.0  0.22910  0.09910  0.27030  1.0000 0.1205217155
H   H13       1.0  0.32020  0.87070  0.85570  1.0000 0.1298244686
H   H14       1.0  0.67980  0.87070  0.64430  1.0000 0.1298244686
H   H15       1.0  0.67980  0.12930  0.14430  1.0000 0.1298244686
H   H16       1.0  0.32020  0.12930  0.35570  1.0000 0.1298244686
H   H17       1.0  0.28190  0.59830  0.68060  1.0000 0.1123553075
H   H18       1.0  0.71810  0.59830  0.81940  1.0000 0.1123553075
H   H19       1.0  0.71810  0.40170  0.31940  1.0000 0.1123553075
H   H20       1.0  0.28190  0.40170  0.18060  1.0000 0.1123553075
H   H21       1.0  0.26590  0.40840  0.61720  1.0000 0.1123553075
H   H22       1.0  0.73410  0.40840  0.88280  1.0000 0.1123553075
H   H23       1.0  0.73410  0.59160  0.38280  1.0000 0.1123553075
H   H24       1.0  0.26590  0.59160  0.11720  1.0000 0.1123553075
H   H25       1.0  0.33640  0.35150  0.57190  1.0000 0.1205217155
H   H26       1.0  0.66360  0.35150  0.92810  1.0000 0.1205217155
H   H27       1.0  0.66360  0.64850  0.42810  1.0000 0.1205217155
H   H28       1.0  0.33640  0.64850  0.07190  1.0000 0.1205217155
H   H29       1.0  0.23710  0.77910  0.49790  1.0000 0.1205217155
H   H30       1.0  0.76290  0.77910  0.00210  1.0000 0.1205217155
H   H31       1.0  0.76290  0.22090  0.50210  1.0000 0.1205217155
H   H32       1.0  0.23710  0.22090  0.99790  1.0000 0.1205217155
H   H33       1.0  0.15880  0.82820  0.54010  1.0000 0.1123553075
H   H34       1.0  0.84120  0.82820  0.95990  1.0000 0.1123553075
H   H35       1.0  0.84120  0.17180  0.45990  1.0000 0.1123553075
H   H36       1.0  0.15880  0.17180  0.04010  1.0000 0.1123553075
H   H37       1.0  0.03930  0.75010  0.56200  1.0000 0.1123553075
H   H38       1.0  0.96070  0.75010  0.93800  1.0000 0.1123553075
H   H39       1.0  0.96070  0.24990  0.43800  1.0000 0.1123553075
H   H40       1.0  0.03930  0.24990  0.06200  1.0000 0.1123553075
H   H41       1.0  0.07750  0.78370  0.69850  1.0000 0.1123553075
H   H42       1.0  0.92250  0.78370  0.80150  1.0000 0.1123553075
H   H43       1.0  0.92250  0.21630  0.30150  1.0000 0.1123553075
H   H44       1.0  0.07750  0.21630  0.19850  1.0000 0.1123553075
H   H45       1.0  0.88410  0.74330  0.53770  1.0000 0.1123553075
H   H46       1.0  0.11590  0.74330  0.96230  1.0000 0.1123553075
H   H47       1.0  0.11590  0.25670  0.46230  1.0000 0.1123553075
H   H48       1.0  0.88410  0.25670  0.03770  1.0000 0.1123553075
H   H49       1.0  0.73360  0.84030  0.50800  1.0000 0.1205217155
H   H50       1.0  0.26640  0.84030  0.99200  1.0000 0.1205217155
H   H51       1.0  0.26640  0.15970  0.49200  1.0000 0.1205217155
H   H52       1.0  0.73360  0.15970  0.00800  1.0000 0.1205217155
H   H53       1.0  0.81990  0.06550  0.63780  1.0000 0.1205217155
H   H54       1.0  0.18010  0.06550  0.86220  1.0000 0.1205217155
H   H55       1.0  0.18010  0.93450  0.36220  1.0000 0.1205217155
H   H56       1.0  0.81990  0.93450  0.13780  1.0000 0.1205217155
H   H57       1.0  0.96990  0.96950  0.66710  1.0000 0.1123553075
H   H58       1.0  0.03010  0.96950  0.83290  1.0000 0.1123553075
H   H59       1.0  0.03010  0.03050  0.33290  1.0000 0.1123553075
H   H60       1.0  0.96990  0.03050  0.16710  1.0000 0.1123553075
C   C1        1.0  0.41131  0.60960  0.91091  1.0000 0.6267734559
C   C2        1.0  0.58869  0.60960  0.58909  1.0000 0.6267734559
C   C3        1.0  0.58869  0.39040  0.08909  1.0000 0.6267734559
C   C4        1.0  0.41131  0.39040  0.41091  1.0000 0.6267734559
C   C5        1.0  0.35521  0.63100  0.85561  1.0000 -0.0376427889
C   C6        1.0  0.64479  0.63100  0.64439  1.0000 -0.0376427889
C   C7        1.0  0.64479  0.36900  0.14439  1.0000 -0.0376427889
C   C8        1.0  0.35521  0.36900  0.35561  1.0000 -0.0376427889
C   C9        1.0  0.34570  0.50280  0.82460  1.0000 -0.0970709168
C   C10       1.0  0.65430  0.50280  0.67540  1.0000 -0.0970709168
C   C11       1.0  0.65430  0.49720  0.17540  1.0000 -0.0970709168
C   C12       1.0  0.34570  0.49720  0.32460  1.0000 -0.0970709168
C   C13       1.0  0.29458  0.52130  0.77368  1.0000 -0.1500844591
C   C14       1.0  0.70542  0.52130  0.72632  1.0000 -0.1500844591
C   C15       1.0  0.70542  0.47870  0.22632  1.0000 -0.1500844591
C   C16       1.0  0.29458  0.47870  0.27368  1.0000 -0.1500844591
C   C17       1.0  0.24906  0.66950  0.75286  1.0000 0.0768097892
C   C18       1.0  0.75094  0.66950  0.74714  1.0000 0.0727300443
C   C19       1.0  0.75094  0.33050  0.24714  1.0000 0.0727300443
C   C20       1.0  0.24906  0.33050  0.25286  1.0000 0.0727300443
C   C21       1.0  0.25882  0.80030  0.78392  1.0000 -0.1500844591
C   C22       1.0  0.74118  0.80030  0.71608  1.0000 -0.1500844591
C   C23       1.0  0.74118  0.19970  0.21608  1.0000 -0.1500844591
C   C24       1.0  0.25882  0.19970  0.28392  1.0000 -0.1500844591
C   C25       1.0  0.31270  0.78180  0.83510  1.0000 -0.0916371895
C   C26       1.0  0.68730  0.78180  0.66490  1.0000 -0.0916371895
C   C27       1.0  0.68730  0.21820  0.16490  1.0000 -0.0916371895
C   C28       1.0  0.31270  0.21820  0.33510  1.0000 -0.0916371895
C   C29       1.0  0.18986  0.69040  0.69806  1.0000 0.0727300443
C   C30       1.0  0.81014  0.69040  0.80194  1.0000 0.0727300443
C   C31       1.0  0.81014  0.30960  0.30194  1.0000 0.0727300443
C   C32       1.0  0.18986  0.30960  0.19806  1.0000 0.0727300443
C   C33       1.0  0.22219  0.64500  0.66709  1.0000 -0.1940155031
C   C34       1.0  0.77781  0.64500  0.83291  1.0000 -0.1940155031
C   C35       1.0  0.77781  0.35500  0.33291  1.0000 -0.1940155031
C   C36       1.0  0.22219  0.35500  0.16709  1.0000 -0.1940155031
C   C37       1.0  0.16672  0.66790  0.61602  1.0000 0.0768097892
C   C38       1.0  0.83328  0.66790  0.88398  1.0000 0.0768097892
C   C39       1.0  0.83328  0.33210  0.38398  1.0000 0.0768097892
C   C40       1.0  0.16672  0.33210  0.11602  1.0000 0.0768097892
C   C41       1.0  0.20697  0.62840  0.58447  1.0000 0.0727300443
C   C42       1.0  0.79303  0.62840  0.91553  1.0000 0.0727300443
C   C43       1.0  0.79303  0.37160  0.41553  1.0000 0.0727300443
C   C44       1.0  0.20697  0.37160  0.08447  1.0000 0.0727300443
C   C45       1.0  0.25990  0.48320  0.59323  1.0000 -0.1500844591
C   C46       1.0  0.74010  0.48320  0.90677  1.0000 -0.1500844591
C   C47       1.0  0.74010  0.51680  0.40677  1.0000 -0.1500844591
C   C48       1.0  0.25990  0.51680  0.09323  1.0000 -0.1500844591
C   C49       1.0  0.30322  0.44990  0.56662  1.0000 -0.1108453481
C   C50       1.0  0.69678  0.44990  0.93338  1.0000 -0.1108453481
C   C51       1.0  0.69678  0.55010  0.43338  1.0000 -0.1108453481
C   C52       1.0  0.30322  0.55010  0.06662  1.0000 -0.1108453481
C   C53       1.0  0.29713  0.56450  0.53173  1.0000 -0.0376427889
C   C54       1.0  0.70287  0.56450  0.96827  1.0000 -0.0376427889
C   C55       1.0  0.70287  0.43550  0.46827  1.0000 -0.0376427889
C   C56       1.0  0.29713  0.43550  0.03173  1.0000 -0.0376427889
C   C57       1.0  0.35556  0.53740  0.50831  1.0000 0.6224157603
C   C58       1.0  0.64444  0.53740  0.99169  1.0000 0.6224157603
C   C59       1.0  0.64444  0.46260  0.49169  1.0000 0.6224157603
C   C60       1.0  0.35556  0.46260  0.00831  1.0000 0.6224157603
C   C61       1.0  0.24297  0.70440  0.52187  1.0000 -0.0970709168
C   C62       1.0  0.75703  0.70440  0.97813  1.0000 -0.0970709168
C   C63       1.0  0.75703  0.29560  0.47813  1.0000 -0.0970709168
C   C64       1.0  0.24297  0.29560  0.02187  1.0000 -0.0970709168
C   C65       1.0  0.19686  0.73480  0.54776  1.0000 -0.1500844591
C   C66       1.0  0.80314  0.73480  0.95224  1.0000 -0.1500844591
C   C67       1.0  0.80314  0.26520  0.45224  1.0000 -0.1500844591
C   C68       1.0  0.19686  0.26520  0.04776  1.0000 -0.1500844591
C   C69       1.0  0.07667  0.73460  0.59607  1.0000 -0.1977487935
C   C70       1.0  0.92333  0.73460  0.90393  1.0000 -0.1977487935
C   C71       1.0  0.92333  0.26540  0.40393  1.0000 -0.1977487935
C   C72       1.0  0.07667  0.26540  0.09607  1.0000 -0.1977487935
C   C73       1.0  0.04140  0.77880  0.62650  1.0000 0.0768097892
C   C74       1.0  0.95860  0.77880  0.87350  1.0000 0.0768097892
C   C75       1.0  0.95860  0.22120  0.37350  1.0000 0.0768097892
C   C76       1.0  0.04140  0.22120  0.12650  1.0000 0.0768097892
C   C77       1.0  0.09971  0.75520  0.67771  1.0000 -0.1940155031
C   C78       1.0  0.90029  0.75520  0.82229  1.0000 -0.1940155031
C   C79       1.0  0.90029  0.24480  0.32229  1.0000 -0.1940155031
C   C80       1.0  0.09971  0.24480  0.17771  1.0000 -0.1940155031
C   C81       1.0  0.94416  0.84490  0.60606  1.0000 0.0727300443
C   C82       1.0  0.05584  0.84490  0.89394  1.0000 0.0768097892
C   C83       1.0  0.05584  0.15510  0.39394  1.0000 0.0768097892
C   C84       1.0  0.94416  0.15510  0.10606  1.0000 0.0768097892
C   C85       1.0  0.87137  0.80770  0.55807  1.0000 -0.1500844591
C   C86       1.0  0.12863  0.80770  0.94193  1.0000 -0.1500844591
C   C87       1.0  0.12863  0.19230  0.44193  1.0000 -0.1500844591
C   C88       1.0  0.87137  0.19230  0.05807  1.0000 -0.1500844591
C   C89       1.0  0.78095  0.86480  0.54035  1.0000 -0.0916371895
C   C90       1.0  0.21905  0.86480  0.95965  1.0000 -0.0916371895
C   C91       1.0  0.21905  0.13520  0.45965  1.0000 -0.0848710446
C   C92       1.0  0.78095  0.13520  0.04035  1.0000 -0.0848710446
C   C93       1.0  0.75994  0.95840  0.57024  1.0000 -0.0376427889
C   C94       1.0  0.24006  0.95840  0.92976  1.0000 -0.0376427889
C   C95       1.0  0.24006  0.04160  0.42976  1.0000 -0.0376427889
C   C96       1.0  0.75994  0.04160  0.07024  1.0000 -0.0376427889
C   C97       1.0  0.66347  0.02120  0.55317  1.0000 0.5935184302
C   C98       1.0  0.33653  0.02120  0.94683  1.0000 0.5935184302
C   C99       1.0  0.33653  0.97880  0.44683  1.0000 0.5935184302
C   C100      1.0  0.66347  0.97880  0.05317  1.0000 0.5935184302
C   C101      1.0  0.83233  0.99920  0.61763  1.0000 -0.0916371895
C   C102      1.0  0.16767  0.99920  0.88237  1.0000 -0.0916371895
C   C103      1.0  0.16767  0.00080  0.38237  1.0000 -0.0916371895
C   C104      1.0  0.83233  0.00080  0.11763  1.0000 -0.0916371895
C   C105      1.0  0.92249  0.94210  0.63509  1.0000 -0.1500844591
C   C106      1.0  0.07751  0.94210  0.86491  1.0000 -0.1500844591
C   C107      1.0  0.07751  0.05790  0.36491  1.0000 -0.1500844591
C   C108      1.0  0.92249  0.05790  0.13509  1.0000 -0.1500844591
O   O1        1.0  0.43279  0.46440  0.92696  1.0000 -0.6342214553
O   O2        1.0  0.56721  0.46440  0.57304  1.0000 -0.6342214553
O   O3        1.0  0.56721  0.53560  0.07304  1.0000 -0.6342214553
O   O4        1.0  0.43279  0.53560  0.42696  1.0000 -0.6342214553
O   O5        1.0  0.43269  0.73650  0.93729  1.0000 -0.5803592511
O   O6        1.0  0.56731  0.73650  0.56271  1.0000 -0.5803592511
O   O7        1.0  0.56731  0.26350  0.06271  1.0000 -0.5803592511
O   O8        1.0  0.43269  0.26350  0.43729  1.0000 -0.5803592511
O   O9        1.0  0.38005  0.39050  0.50658  1.0000 -0.6360895244
O   O10       1.0  0.61995  0.39050  0.99342  1.0000 -0.6360895244
O   O11       1.0  0.61995  0.60950  0.49342  1.0000 -0.6360895244
O   O12       1.0  0.38005  0.60950  0.00658  1.0000 -0.6360895244
O   O13       1.0  0.37714  0.66260  0.49348  1.0000 -0.5803592511
O   O14       1.0  0.62286  0.66260  0.00652  1.0000 -0.5803592511
O   O15       1.0  0.62286  0.33740  0.50652  1.0000 -0.5803592511
O   O16       1.0  0.37714  0.33740  0.99348  1.0000 -0.5803592511
O   O17       1.0  0.59489  0.98560  0.50973  1.0000 -0.6521623937
O   O18       1.0  0.40511  0.98560  0.99027  1.0000 -0.6521623937
O   O19       1.0  0.40511  0.01440  0.49027  1.0000 -0.6521623937
O   O20       1.0  0.59489  0.01440  0.00973  1.0000 -0.6521623937
O   O21       1.0  0.65099  0.11280  0.58142  1.0000 -0.5803592511
O   O22       1.0  0.34901  0.11280  0.91858  1.0000 -0.5803592511
O   O23       1.0  0.34901  0.88720  0.41858  1.0000 -0.5803592511
O   O24       1.0  0.65099  0.88720  0.08142  1.0000 -0.5803592511
