# DDEC6 charges by PACMAN v1.1 (https://github.com/mtap-research/PACMAN-charge/)
data_2023[Co][sql]2[ASR]5
_chemical_formula_sum              "Co8 H32 C56 N24 O32"
_cell_length_a       7.1317
_cell_length_b       17.204
_cell_length_c       17.746
_cell_angle_alpha    90
_cell_angle_beta     90
_cell_angle_gamma    90

_symmetry_space_group_name_H-M    "P 1"
_symmetry_Int_Tables_number       1

loop_
  _symmetry_equiv_pos_as_xyz
  'x, y, z'

loop_
  _atom_site_type_symbol
  _atom_site_label
  _atom_site_symmetry_multiplicity
  _atom_site_fract_x
  _atom_site_fract_y
  _atom_site_fract_z
  _atom_site_occupancy
  _atom_site_charge
Co  Co1       1.0  0.75000  0.70753  0.07518  1.0000 0.8214830101
Co  Co2       1.0  0.75000  0.20753  0.42482  1.0000 0.8214830101
Co  Co3       1.0  0.75000  0.60980  0.26000  1.0000 0.8011777937
Co  Co4       1.0  0.75000  0.10980  0.24000  1.0000 0.8011777937
Co  Co5       1.0  0.25000  0.79247  0.57518  1.0000 0.8214830101
Co  Co6       1.0  0.25000  0.29247  0.92482  1.0000 0.8214830101
Co  Co7       1.0  0.25000  0.89020  0.76000  1.0000 0.8011777937
Co  Co8       1.0  0.25000  0.39020  0.74000  1.0000 0.8011777937
H   H1        1.0  0.75000  0.56150  0.93740  1.0000 0.2766027987
H   H2        1.0  0.75000  0.06150  0.56260  1.0000 0.2766027987
H   H3        1.0  0.75000  0.92160  0.17600  1.0000 0.3097165465
H   H4        1.0  0.75000  0.42160  0.32400  1.0000 0.3097165465
H   H5        1.0  0.75000  0.73010  0.79130  1.0000 0.1548124045
H   H6        1.0  0.75000  0.23010  0.70870  1.0000 0.1548124045
H   H7        1.0  0.75000  0.85960  0.38650  1.0000 0.1597597539
H   H8        1.0  0.75000  0.35960  0.11350  1.0000 0.1597597539
H   H9        1.0  0.40970  0.60300  0.03540  1.0000 0.1300318107
H   H10       1.0  0.09030  0.10300  0.46460  1.0000 0.1300318107
H   H11       1.0  0.40970  0.10300  0.46460  1.0000 0.1300318107
H   H12       1.0  0.09030  0.60300  0.03540  1.0000 0.1300318107
H   H13       1.0  0.40960  0.80890  0.12540  1.0000 0.1300318107
H   H14       1.0  0.09040  0.30890  0.37460  1.0000 0.1300318107
H   H15       1.0  0.40960  0.30890  0.37460  1.0000 0.1300318107
H   H16       1.0  0.09040  0.80890  0.12540  1.0000 0.1300318107
H   H17       1.0  0.25000  0.93850  0.43740  1.0000 0.2766027987
H   H18       1.0  0.25000  0.43850  0.06260  1.0000 0.2766027987
H   H19       1.0  0.25000  0.57840  0.67600  1.0000 0.3097165465
H   H20       1.0  0.25000  0.07840  0.82400  1.0000 0.3097165465
H   H21       1.0  0.25000  0.76990  0.29130  1.0000 0.1597597539
H   H22       1.0  0.25000  0.26990  0.20870  1.0000 0.1597597539
H   H23       1.0  0.25000  0.64040  0.88650  1.0000 0.1597597539
H   H24       1.0  0.25000  0.14040  0.61350  1.0000 0.1597597539
H   H25       1.0  0.59030  0.89700  0.53540  1.0000 0.1300318107
H   H26       1.0  0.90970  0.39700  0.96460  1.0000 0.1300318107
H   H27       1.0  0.59030  0.39700  0.96460  1.0000 0.1300318107
H   H28       1.0  0.90970  0.89700  0.53540  1.0000 0.1300318107
H   H29       1.0  0.59040  0.69110  0.62540  1.0000 0.1300318107
H   H30       1.0  0.90960  0.19110  0.87460  1.0000 0.1300318107
H   H31       1.0  0.59040  0.19110  0.87460  1.0000 0.1300318107
H   H32       1.0  0.90960  0.69110  0.62540  1.0000 0.1300318107
C   C1        1.0  0.75000  0.81080  0.94000  1.0000 0.5474963128
C   C2        1.0  0.75000  0.31080  0.56000  1.0000 0.5474963128
C   C3        1.0  0.75000  0.73070  0.90920  1.0000 0.050245991
C   C4        1.0  0.75000  0.23070  0.59080  1.0000 0.050245991
C   C5        1.0  0.75000  0.70180  0.83590  1.0000 -0.2298816403
C   C6        1.0  0.75000  0.20180  0.66410  1.0000 -0.2298816403
C   C7        1.0  0.75000  0.62290  0.84390  1.0000 0.050245991
C   C8        1.0  0.75000  0.12290  0.65610  1.0000 0.050245991
C   C9        1.0  0.75000  0.55930  0.78670  1.0000 0.5312388778
C   C10       1.0  0.75000  0.05930  0.71330  1.0000 0.5312388778
C   C11       1.0  0.75000  0.78160  0.23710  1.0000 0.5580467522
C   C12       1.0  0.75000  0.28160  0.26290  1.0000 0.5580467522
C   C13       1.0  0.75000  0.86140  0.26950  1.0000 0.0586921741
C   C14       1.0  0.75000  0.36140  0.23050  1.0000 0.0586921741
C   C15       1.0  0.75000  0.88870  0.34230  1.0000 -0.2298816403
C   C16       1.0  0.75000  0.38870  0.15770  1.0000 -0.2298816403
C   C17       1.0  0.75000  0.96960  0.33580  1.0000 0.0586921741
C   C18       1.0  0.75000  0.46960  0.16420  1.0000 0.0586921741
C   C19       1.0  0.75000  0.03220  0.39270  1.0000 0.5660779118
C   C20       1.0  0.75000  0.53220  0.10730  1.0000 0.5660779118
C   C21       1.0  0.34660  0.64650  0.05350  1.0000 0.050245991
C   C22       1.0  0.15340  0.14650  0.44650  1.0000 0.050245991
C   C23       1.0  0.34660  0.14650  0.44650  1.0000 0.050245991
C   C24       1.0  0.15340  0.64650  0.05350  1.0000 0.050245991
C   C25       1.0  0.34630  0.76620  0.10580  1.0000 0.0441071294
C   C26       1.0  0.15370  0.26620  0.39420  1.0000 0.0441071294
C   C27       1.0  0.34630  0.26620  0.39420  1.0000 0.0441071294
C   C28       1.0  0.15370  0.76620  0.10580  1.0000 0.0441071294
C   C29       1.0  0.25000  0.68920  0.44000  1.0000 0.5474963128
C   C30       1.0  0.25000  0.18920  0.06000  1.0000 0.5474963128
C   C31       1.0  0.25000  0.76930  0.40920  1.0000 0.050245991
C   C32       1.0  0.25000  0.26930  0.09080  1.0000 0.050245991
C   C33       1.0  0.25000  0.79820  0.33590  1.0000 -0.2298816403
C   C34       1.0  0.25000  0.29820  0.16410  1.0000 -0.2298816403
C   C35       1.0  0.25000  0.87710  0.34390  1.0000 0.050245991
C   C36       1.0  0.25000  0.37710  0.15610  1.0000 0.050245991
C   C37       1.0  0.25000  0.94070  0.28670  1.0000 0.5312388778
C   C38       1.0  0.25000  0.44070  0.21330  1.0000 0.5312388778
C   C39       1.0  0.25000  0.71840  0.73710  1.0000 0.5580467522
C   C40       1.0  0.25000  0.21840  0.76290  1.0000 0.5580467522
C   C41       1.0  0.25000  0.63860  0.76950  1.0000 0.0586921741
C   C42       1.0  0.25000  0.13860  0.73050  1.0000 0.0586921741
C   C43       1.0  0.25000  0.61130  0.84230  1.0000 -0.2298816403
C   C44       1.0  0.25000  0.11130  0.65770  1.0000 -0.2298816403
C   C45       1.0  0.25000  0.53040  0.83580  1.0000 0.0586921741
C   C46       1.0  0.25000  0.03040  0.66420  1.0000 0.0586921741
C   C47       1.0  0.25000  0.46780  0.89270  1.0000 0.5660779118
C   C48       1.0  0.25000  0.96780  0.60730  1.0000 0.5660779118
C   C49       1.0  0.65340  0.85350  0.55350  1.0000 0.050245991
C   C50       1.0  0.84660  0.35350  0.94650  1.0000 0.050245991
C   C51       1.0  0.65340  0.35350  0.94650  1.0000 0.050245991
C   C52       1.0  0.84660  0.85350  0.55350  1.0000 0.050245991
C   C53       1.0  0.65370  0.73380  0.60580  1.0000 0.0441071294
C   C54       1.0  0.84630  0.23380  0.89420  1.0000 0.0441071294
C   C55       1.0  0.65370  0.23380  0.89420  1.0000 0.0441071294
C   C56       1.0  0.84630  0.73380  0.60580  1.0000 0.0441071294
N   N1        1.0  0.75000  0.67270  0.95950  1.0000 -0.2298816403
N   N2        1.0  0.75000  0.17270  0.54050  1.0000 -0.2298816403
N   N3        1.0  0.75000  0.60760  0.91850  1.0000 -0.0580442011
N   N4        1.0  0.75000  0.10760  0.58150  1.0000 -0.0580442011
N   N5        1.0  0.75000  0.92400  0.22450  1.0000 -0.0509628034
N   N6        1.0  0.75000  0.42400  0.27550  1.0000 -0.0509628034
N   N7        1.0  0.75000  0.99060  0.26330  1.0000 -0.2026054844
N   N8        1.0  0.75000  0.49060  0.23670  1.0000 -0.2026054844
N   N9        1.0  0.44560  0.70658  0.07847  1.0000 -0.1825763494
N   N10       1.0  0.05440  0.20658  0.42153  1.0000 -0.1825763494
N   N11       1.0  0.44560  0.20658  0.42153  1.0000 -0.1825763494
N   N12       1.0  0.05440  0.70658  0.07847  1.0000 -0.1825763494
N   N13       1.0  0.25000  0.82730  0.45950  1.0000 -0.2298816403
N   N14       1.0  0.25000  0.32730  0.04050  1.0000 -0.2298816403
N   N15       1.0  0.25000  0.89240  0.41850  1.0000 -0.0580442011
N   N16       1.0  0.25000  0.39240  0.08150  1.0000 -0.0580442011
N   N17       1.0  0.25000  0.57600  0.72450  1.0000 -0.0509628034
N   N18       1.0  0.25000  0.07600  0.77550  1.0000 -0.0509628034
N   N19       1.0  0.25000  0.50940  0.76330  1.0000 -0.2026054844
N   N20       1.0  0.25000  0.00940  0.73670  1.0000 -0.2026054844
N   N21       1.0  0.55440  0.79342  0.57847  1.0000 -0.1825763494
N   N22       1.0  0.94560  0.29342  0.92153  1.0000 -0.1825763494
N   N23       1.0  0.55440  0.29342  0.92153  1.0000 -0.1825763494
N   N24       1.0  0.94560  0.79342  0.57847  1.0000 -0.1825763494
O   O1        1.0  0.75000  0.81480  0.01150  1.0000 -0.5600099027
O   O2        1.0  0.75000  0.31480  0.48850  1.0000 -0.5600099027
O   O3        1.0  0.75000  0.86690  0.89590  1.0000 -0.4870389164
O   O4        1.0  0.75000  0.36690  0.60410  1.0000 -0.4870389164
O   O5        1.0  0.75000  0.49080  0.81300  1.0000 -0.5804919958
O   O6        1.0  0.75000  0.99080  0.68700  1.0000 -0.5804919958
O   O7        1.0  0.75000  0.57870  0.72090  1.0000 -0.550101763
O   O8        1.0  0.75000  0.07870  0.77910  1.0000 -0.550101763
O   O9        1.0  0.75000  0.77920  0.16640  1.0000 -0.5449903667
O   O10       1.0  0.75000  0.27920  0.33360  1.0000 -0.550101763
O   O11       1.0  0.75000  0.72710  0.28210  1.0000 -0.4870389164
O   O12       1.0  0.75000  0.22710  0.21790  1.0000 -0.4870389164
O   O13       1.0  0.75000  0.10160  0.36560  1.0000 -0.5804919958
O   O14       1.0  0.75000  0.60160  0.13440  1.0000 -0.5804919958
O   O15       1.0  0.75000  0.01460  0.45970  1.0000 -0.496465987
O   O16       1.0  0.75000  0.51460  0.04030  1.0000 -0.496465987
O   O17       1.0  0.25000  0.68520  0.51150  1.0000 -0.5600099027
O   O18       1.0  0.25000  0.18520  0.98850  1.0000 -0.5600099027
O   O19       1.0  0.25000  0.63310  0.39590  1.0000 -0.4870389164
O   O20       1.0  0.25000  0.13310  0.10410  1.0000 -0.4870389164
O   O21       1.0  0.25000  0.00920  0.31300  1.0000 -0.5804919958
O   O22       1.0  0.25000  0.50920  0.18700  1.0000 -0.5804919958
O   O23       1.0  0.25000  0.92130  0.22090  1.0000 -0.550101763
O   O24       1.0  0.25000  0.42130  0.27910  1.0000 -0.550101763
O   O25       1.0  0.25000  0.72080  0.66640  1.0000 -0.550101763
O   O26       1.0  0.25000  0.22080  0.83360  1.0000 -0.5449903667
O   O27       1.0  0.25000  0.77290  0.78210  1.0000 -0.4870389164
O   O28       1.0  0.25000  0.27290  0.71790  1.0000 -0.4870389164
O   O29       1.0  0.25000  0.39840  0.86560  1.0000 -0.5804919958
O   O30       1.0  0.25000  0.89840  0.63440  1.0000 -0.5804919958
O   O31       1.0  0.25000  0.48540  0.95970  1.0000 -0.496465987
O   O32       1.0  0.25000  0.98540  0.54030  1.0000 -0.496465987
