# DDEC6 charges by PACMAN v1.1 (https://github.com/mtap-research/PACMAN-charge/)
data_2023[Zn][sql]2[ASR]16
_chemical_formula_sum              "Zn2 H36 C60 N8 O8"
_cell_length_a       6.76
_cell_length_b       12.639
_cell_length_c       17.247
_cell_angle_alpha    109.196
_cell_angle_beta     98.175
_cell_angle_gamma    89.589

_symmetry_space_group_name_H-M    "P 1"
_symmetry_Int_Tables_number       1

loop_
  _symmetry_equiv_pos_as_xyz
  'x, y, z'

loop_
  _atom_site_type_symbol
  _atom_site_label
  _atom_site_symmetry_multiplicity
  _atom_site_fract_x
  _atom_site_fract_y
  _atom_site_fract_z
  _atom_site_occupancy
  _atom_site_charge
Zn  Zn1       1.0  0.19540  0.00621  0.20219  1.0000 0.7411900209
Zn  Zn2       1.0  0.80460  0.99379  0.79781  1.0000 0.7411900209
H   H1        1.0  0.98227  0.41009  0.31952  1.0000 0.1397651868
H   H2        1.0  0.01773  0.58991  0.68048  1.0000 0.1397651868
H   H3        1.0  0.21760  0.19122  0.13557  1.0000 0.1194188855
H   H4        1.0  0.78240  0.80878  0.86443  1.0000 0.1194188855
H   H5        1.0  0.62125  0.94568  0.20245  1.0000 0.1008842523
H   H6        1.0  0.37875  0.05432  0.79755  1.0000 0.1008842523
H   H7        1.0  0.95056  0.72199  0.31239  1.0000 0.1194188855
H   H8        1.0  0.04944  0.27801  0.68761  1.0000 0.1194188855
H   H9        1.0  0.81602  0.81140  0.23006  1.0000 0.1397651868
H   H10       1.0  0.18398  0.18860  0.76994  1.0000 0.1397651868
H   H11       1.0  0.33844  0.03338  0.51312  1.0000 0.1194188855
H   H12       1.0  0.66156  0.96662  0.48688  1.0000 0.1194188855
H   H13       1.0  0.39796  0.35053  0.15279  1.0000 0.1397651868
H   H14       1.0  0.60204  0.64947  0.84721  1.0000 0.1397651868
H   H15       1.0  0.24014  0.86722  0.95312  1.0000 0.1194188855
H   H16       1.0  0.75986  0.13278  0.04688  1.0000 0.1268708156
H   H17       1.0  0.78450  0.27690  0.32344  1.0000 0.1397651868
H   H18       1.0  0.21550  0.72310  0.67656  1.0000 0.1397651868
H   H19       1.0  0.54135  0.82754  0.01676  1.0000 0.1141368886
H   H20       1.0  0.45865  0.17246  0.98324  1.0000 0.1141368886
H   H21       1.0  0.32282  0.62229  0.19906  1.0000 0.1397651868
H   H22       1.0  0.67718  0.37771  0.80094  1.0000 0.1397651868
H   H23       1.0  0.79688  0.98199  0.37663  1.0000 0.1194188855
H   H24       1.0  0.20312  0.01801  0.62337  1.0000 0.1194188855
H   H25       1.0  0.58575  0.12440  0.30541  1.0000 0.1141368886
H   H26       1.0  0.41425  0.87560  0.69459  1.0000 0.1141368886
H   H27       1.0  0.31104  0.44948  0.34253  1.0000 0.1141368886
H   H28       1.0  0.68896  0.55052  0.65747  1.0000 0.1141368886
H   H29       1.0  0.14933  0.76504  0.43592  1.0000 0.1194188855
H   H30       1.0  0.85067  0.23496  0.56408  1.0000 0.1194188855
H   H31       1.0  0.62045  0.49784  0.42464  1.0000 0.1141368886
H   H32       1.0  0.37955  0.50216  0.57536  1.0000 0.1141368886
H   H33       1.0  0.14123  0.76023  0.16835  1.0000 0.1194188855
H   H34       1.0  0.85877  0.23977  0.83165  1.0000 0.1194188855
H   H35       1.0  0.45613  0.81235  0.51856  1.0000 0.1268708156
H   H36       1.0  0.54387  0.18765  0.48144  1.0000 0.1268708156
C   C1        1.0  0.71160  0.61930  0.24950  1.0000 0.1996768648
C   C2        1.0  0.28840  0.38070  0.75050  1.0000 0.1996768648
C   C3        1.0  0.61490  0.33400  0.24060  1.0000 0.090787552
C   C4        1.0  0.38510  0.66600  0.75940  1.0000 0.090787552
C   C5        1.0  0.72540  0.44150  0.25760  1.0000 0.1996768648
C   C6        1.0  0.27460  0.55850  0.74240  1.0000 0.1996768648
C   C7        1.0  0.17630  0.01540  0.36030  1.0000 0.5490924763
C   C8        1.0  0.82370  0.98460  0.63970  1.0000 0.5490924763
C   C9        1.0  0.08410  0.00840  0.43230  1.0000 -0.0284762373
C   C10       1.0  0.91590  0.99160  0.56770  1.0000 -0.0284762373
C   C11       1.0  0.91440  0.46560  0.30360  1.0000 -0.2183819665
C   C12       1.0  0.08560  0.53440  0.69640  1.0000 -0.2183819665
C   C13       1.0  0.87540  0.95200  0.08380  1.0000 0.5393337654
C   C14       1.0  0.12460  0.04800  0.91620  1.0000 0.5393337654
C   C15       1.0  0.59240  0.70260  0.22250  1.0000 0.1008842523
C   C16       1.0  0.40760  0.29740  0.77750  1.0000 0.1008842523
C   C17       1.0  0.33190  0.21000  0.17510  1.0000 0.090787552
C   C18       1.0  0.66810  0.79000  0.82490  1.0000 0.090787552
C   C19       1.0  0.00320  0.57180  0.32600  1.0000 0.1194188855
C   C20       1.0  0.99680  0.42820  0.67400  1.0000 0.1194188855
C   C21       1.0  0.55980  0.88020  0.20260  1.0000 0.090787552
C   C22       1.0  0.44020  0.11980  0.79740  1.0000 0.090787552
C   C23       1.0  0.89730  0.64930  0.29830  1.0000 -0.2183819665
C   C24       1.0  0.10270  0.35070  0.70170  1.0000 -0.2183819665
C   C25       1.0  0.67760  0.80010  0.21990  1.0000 -0.17880823
C   C26       1.0  0.32240  0.19990  0.78010  1.0000 -0.17880823
C   C27       1.0  0.20060  0.60320  0.37930  1.0000 0.0799284177
C   C28       1.0  0.79940  0.39680  0.62070  1.0000 0.0799284177
C   C29       1.0  0.68100  0.97690  0.03870  1.0000 -0.0207182318
C   C30       1.0  0.31900  0.02310  0.96130  1.0000 -0.0207182318
C   C31       1.0  0.20130  0.01960  0.50750  1.0000 -0.1179856363
C   C32       1.0  0.79870  0.98040  0.49250  1.0000 -0.1179856363
C   C33       1.0  0.44090  0.30530  0.18430  1.0000 -0.17880823
C   C34       1.0  0.55910  0.69470  0.81570  1.0000 -0.17880823
C   C35       1.0  0.34480  0.92110  0.97190  1.0000 -0.1110457173
C   C36       1.0  0.65520  0.07890  0.02810  1.0000 -0.1110457173
C   C37       1.0  0.66750  0.26220  0.28540  1.0000 -0.1879248573
C   C38       1.0  0.33250  0.73780  0.71460  1.0000 -0.1879248573
C   C39       1.0  0.52500  0.89740  0.01020  1.0000 -0.1179856363
C   C40       1.0  0.47500  0.10260  0.98980  1.0000 -0.1179856363
C   C41       1.0  0.38730  0.68820  0.20120  1.0000 -0.1744463397
C   C42       1.0  0.61270  0.31180  0.79880  1.0000 -0.1744463397
C   C43       1.0  0.87970  0.98910  0.42610  1.0000 -0.1179856363
C   C44       1.0  0.12030  0.01090  0.57390  1.0000 -0.1179856363
C   C45       1.0  0.54790  0.17030  0.27380  1.0000 0.0799284177
C   C46       1.0  0.45210  0.82970  0.72620  1.0000 0.0799284177
C   C47       1.0  0.34050  0.52300  0.37720  1.0000 -0.148675437
C   C48       1.0  0.65950  0.47700  0.62280  1.0000 -0.148675437
C   C49       1.0  0.24450  0.71090  0.43310  1.0000 -0.1312929047
C   C50       1.0  0.75550  0.28910  0.56690  1.0000 -0.1312929047
C   C51       1.0  0.56660  0.65860  0.47860  1.0000 0.0414667251
C   C52       1.0  0.43340  0.34140  0.52140  1.0000 0.0414667251
C   C53       1.0  0.52510  0.55170  0.42680  1.0000 -0.1312929047
C   C54       1.0  0.47490  0.44830  0.57320  1.0000 -0.1312929047
C   C55       1.0  0.27910  0.77170  0.18320  1.0000 0.0799284177
C   C56       1.0  0.72090  0.22830  0.81680  1.0000 0.0799284177
C   C57       1.0  0.75900  0.68530  0.53240  1.0000 0.2736268686
C   C58       1.0  0.24100  0.31470  0.46760  1.0000 0.2736268686
C   C59       1.0  0.42710  0.73940  0.48270  1.0000 -0.1110457173
C   C60       1.0  0.57290  0.26060  0.51730  1.0000 -0.1110457173
N   N1        1.0  0.38020  0.14260  0.21974  1.0000 -0.2294293893
N   N2        1.0  0.61980  0.85740  0.78026  1.0000 -0.2294293893
N   N3        1.0  0.62610  0.51670  0.22950  1.0000 -0.3291516257
N   N4        1.0  0.37390  0.48330  0.77050  1.0000 -0.3291516257
N   N5        1.0  0.36250  0.86900  0.18615  1.0000 -0.2294293893
N   N6        1.0  0.63750  0.13100  0.81385  1.0000 -0.2294293893
N   N7        1.0  0.90450  0.70090  0.57270  1.0000 -0.3575537456
N   N8        1.0  0.09550  0.29910  0.42730  1.0000 -0.3575537456
O   O1        1.0  0.99310  0.03410  0.12166  1.0000 -0.5256259693
O   O2        1.0  0.00690  0.96590  0.87834  1.0000 -0.5256259693
O   O3        1.0  0.05520  0.00220  0.29272  1.0000 -0.5472108526
O   O4        1.0  0.94480  0.99780  0.70728  1.0000 -0.5472108526
O   O5        1.0  0.35710  0.03210  0.36750  1.0000 -0.5472108526
O   O6        1.0  0.64290  0.96790  0.63250  1.0000 -0.5472108526
O   O7        1.0  0.90400  0.85600  0.08400  1.0000 -0.540433879
O   O8        1.0  0.09600  0.14400  0.91600  1.0000 -0.540433879
