# DDEC6 charges by PACMAN v1.1 (https://github.com/mtap-research/PACMAN-charge/)
data_2023[Co][nan]3[ASR]13
_chemical_formula_sum              "Co6 H6 C24 O18"
_cell_length_a       15.1242
_cell_length_b       15.1242
_cell_length_c       15.1242
_cell_angle_alpha    117.796
_cell_angle_beta     117.796
_cell_angle_gamma    117.796

_symmetry_space_group_name_H-M    "P 1"
_symmetry_Int_Tables_number       1

loop_
  _symmetry_equiv_pos_as_xyz
  'x, y, z'

loop_
  _atom_site_type_symbol
  _atom_site_label
  _atom_site_symmetry_multiplicity
  _atom_site_fract_x
  _atom_site_fract_y
  _atom_site_fract_z
  _atom_site_occupancy
  _atom_site_charge
Co  Co1       1.0  0.95006  0.53169  0.22695  1.0000 1.0135307944
Co  Co2       1.0  0.53169  0.22695  0.95006  1.0000 1.0135307944
Co  Co3       1.0  0.22695  0.95006  0.53169  1.0000 1.0135307944
Co  Co4       1.0  0.95006  0.22695  0.53169  1.0000 1.0135307944
Co  Co5       1.0  0.53169  0.95006  0.22695  1.0000 1.0135307944
Co  Co6       1.0  0.22695  0.53169  0.95006  1.0000 1.0135307944
H   H1        1.0  0.80679  0.23332  0.80679  1.0000 0.1320952263
H   H2        1.0  0.23332  0.80679  0.80679  1.0000 0.1320952263
H   H3        1.0  0.80679  0.80679  0.23332  1.0000 0.1320952263
H   H4        1.0  0.12718  0.63912  0.12718  1.0000 0.1645512219
H   H5        1.0  0.63912  0.12718  0.12718  1.0000 0.1645512219
H   H6        1.0  0.12718  0.12718  0.63912  1.0000 0.1645512219
C   C1        1.0  0.60926  0.15236  0.79508  1.0000 0.6390774981
C   C2        1.0  0.15236  0.79508  0.60926  1.0000 0.6390774981
C   C3        1.0  0.79508  0.60926  0.15236  1.0000 0.6390774981
C   C4        1.0  0.60926  0.79508  0.15236  1.0000 0.6390774981
C   C5        1.0  0.15236  0.60926  0.79508  1.0000 0.6390774981
C   C6        1.0  0.79508  0.15236  0.60926  1.0000 0.6390774981
C   C7        1.0  0.52796  0.03403  0.62211  1.0000 -0.1998236864
C   C8        1.0  0.03403  0.62211  0.52796  1.0000 -0.1998236864
C   C9        1.0  0.62211  0.52796  0.03403  1.0000 -0.1998236864
C   C10       1.0  0.52796  0.62211  0.03403  1.0000 -0.1998236864
C   C11       1.0  0.03403  0.52796  0.62211  1.0000 -0.1998236864
C   C12       1.0  0.62211  0.03403  0.52796  1.0000 -0.1998236864
C   C13       1.0  0.31675  0.85091  0.41104  1.0000 0.354159468
C   C14       1.0  0.85091  0.41104  0.31675  1.0000 0.354159468
C   C15       1.0  0.41104  0.31675  0.85091  1.0000 0.354159468
C   C16       1.0  0.31675  0.41104  0.85091  1.0000 0.354159468
C   C17       1.0  0.85091  0.31675  0.41104  1.0000 0.354159468
C   C18       1.0  0.41104  0.85091  0.31675  1.0000 0.354159468
C   C19       1.0  0.67030  0.11590  0.67030  1.0000 -0.0613170777
C   C20       1.0  0.11590  0.67030  0.67030  1.0000 -0.0613170777
C   C21       1.0  0.67030  0.67030  0.11590  1.0000 -0.0613170777
C   C22       1.0  0.26505  0.76240  0.26505  1.0000 -0.3427347207
C   C23       1.0  0.76240  0.26505  0.26505  1.0000 -0.3427347207
C   C24       1.0  0.26505  0.26505  0.76240  1.0000 -0.3427347207
O   O1        1.0  0.79346  0.30001  0.97173  1.0000 -0.5199312929
O   O2        1.0  0.30001  0.97173  0.79346  1.0000 -0.5199312929
O   O3        1.0  0.97173  0.79346  0.30001  1.0000 -0.5199312929
O   O4        1.0  0.79346  0.97173  0.30001  1.0000 -0.5199312929
O   O5        1.0  0.30001  0.79346  0.97173  1.0000 -0.5199312929
O   O6        1.0  0.97173  0.30001  0.79346  1.0000 -0.5199312929
O   O7        1.0  0.48965  0.10409  0.76166  1.0000 -0.5975854063
O   O8        1.0  0.10409  0.76166  0.48965  1.0000 -0.5975854063
O   O9        1.0  0.76166  0.48965  0.10409  1.0000 -0.5975854063
O   O10       1.0  0.48965  0.76166  0.10409  1.0000 -0.5975854063
O   O11       1.0  0.10409  0.48965  0.76166  1.0000 -0.5975854063
O   O12       1.0  0.76166  0.10409  0.48965  1.0000 -0.5975854063
O   O13       1.0  0.17143  0.76914  0.35433  1.0000 -0.6357246999
O   O14       1.0  0.76914  0.35433  0.17143  1.0000 -0.6357246999
O   O15       1.0  0.35433  0.17143  0.76914  1.0000 -0.6357246999
O   O16       1.0  0.17143  0.35433  0.76914  1.0000 -0.6357246999
O   O17       1.0  0.76914  0.17143  0.35433  1.0000 -0.6357246999
O   O18       1.0  0.35433  0.76914  0.17143  1.0000 -0.6357246999
