# DDEC6 charges by PACMAN v1.1 (https://github.com/mtap-research/PACMAN-charge/)
data_2023[Eu][nan]3[ASR]4
_chemical_formula_sum              "Eu4 H60 C96 O24"
_cell_length_a       9.8652
_cell_length_b       13.8653
_cell_length_c       22.5242
_cell_angle_alpha    83.601
_cell_angle_beta     78.971
_cell_angle_gamma    85.08

_symmetry_space_group_name_H-M    "P 1"
_symmetry_Int_Tables_number       1

loop_
  _symmetry_equiv_pos_as_xyz
  'x, y, z'

loop_
  _atom_site_type_symbol
  _atom_site_label
  _atom_site_symmetry_multiplicity
  _atom_site_fract_x
  _atom_site_fract_y
  _atom_site_fract_z
  _atom_site_occupancy
  _atom_site_charge
Eu  Eu1       1.0  0.74378  0.01212  0.00390  1.0000 2.1025856645
Eu  Eu2       1.0  0.25622  0.98788  0.99610  1.0000 2.1025856645
Eu  Eu3       1.0  0.48270  0.42414  0.40437  1.0000 2.0571484478
Eu  Eu4       1.0  0.51730  0.57586  0.59563  1.0000 2.0542173298
H   H1        1.0  0.41796  0.07053  0.44592  1.0000 0.1107905372
H   H2        1.0  0.58204  0.92947  0.55408  1.0000 0.1107905372
H   H3        1.0  0.77584  0.13349  0.33343  1.0000 0.1192638567
H   H4        1.0  0.22416  0.86651  0.66657  1.0000 0.1192638567
H   H5        1.0  0.48560  0.90666  0.44740  1.0000 0.1107905372
H   H6        1.0  0.51440  0.09334  0.55260  1.0000 0.1107905372
H   H7        1.0  0.84369  0.96863  0.33387  1.0000 0.1107905372
H   H8        1.0  0.15631  0.03137  0.66613  1.0000 0.1107905372
H   H9        1.0  0.67078  0.77651  0.42792  1.0000 0.1308102967
H   H10       1.0  0.32922  0.22349  0.57208  1.0000 0.1308102967
H   H11       1.0  0.79511  0.69724  0.35610  1.0000 0.1308102967
H   H12       1.0  0.20489  0.30276  0.64390  1.0000 0.1308102967
H   H13       1.0  0.64448  0.85934  0.26324  1.0000 0.1192638567
H   H14       1.0  0.35552  0.14066  0.73676  1.0000 0.1192638567
H   H15       1.0  0.03203  0.76419  0.28218  1.0000 0.1192638567
H   H16       1.0  0.96797  0.23581  0.71782  1.0000 0.1192638567
H   H17       1.0  0.72576  0.91679  0.16229  1.0000 0.1192638567
H   H18       1.0  0.27424  0.08321  0.83771  1.0000 0.1192638567
H   H19       1.0  0.11515  0.82803  0.18374  1.0000 0.1192638567
H   H20       1.0  0.88485  0.17197  0.81626  1.0000 0.1192638567
H   H21       1.0  0.81320  0.96033  0.85177  1.0000 0.1192638567
H   H22       1.0  0.18680  0.03967  0.14823  1.0000 0.1192638567
H   H23       1.0  0.45580  0.96610  0.78850  1.0000 0.1107905372
H   H24       1.0  0.54420  0.03390  0.21150  1.0000 0.1107905372
H   H25       1.0  0.93625  0.93711  0.75529  1.0000 0.1192638567
H   H26       1.0  0.06375  0.06289  0.24471  1.0000 0.1192638567
H   H27       1.0  0.58042  0.94778  0.69142  1.0000 0.1107905372
H   H28       1.0  0.41958  0.05222  0.30858  1.0000 0.1107905372
H   H29       1.0  0.90784  0.86383  0.65023  1.0000 0.1192638567
H   H30       1.0  0.09216  0.13617  0.34977  1.0000 0.1192638567
H   H31       1.0  0.91507  0.94820  0.56574  1.0000 0.1107905372
H   H32       1.0  0.08493  0.05180  0.43426  1.0000 0.1107905372
H   H33       1.0  0.74889  0.12060  0.66992  1.0000 0.1107905372
H   H34       1.0  0.25111  0.87940  0.33008  1.0000 0.1107905372
H   H35       1.0  0.83871  0.06785  0.49374  1.0000 0.1107905372
H   H36       1.0  0.16129  0.93215  0.50626  1.0000 0.1107905372
H   H37       1.0  0.64791  0.27252  0.64245  1.0000 0.1192638567
H   H38       1.0  0.35209  0.72748  0.35755  1.0000 0.1192638567
H   H39       1.0  0.74133  0.22080  0.46605  1.0000 0.1192638567
H   H40       1.0  0.25867  0.77920  0.53395  1.0000 0.1192638567
H   H41       1.0  0.94322  0.51707  0.28043  1.0000 0.1192638567
H   H42       1.0  0.05678  0.48293  0.71957  1.0000 0.1192638567
H   H43       1.0  0.61512  0.60513  0.20322  1.0000 0.1192638567
H   H44       1.0  0.38488  0.39487  0.79678  1.0000 0.1192638567
H   H45       1.0  0.08782  0.56439  0.19055  1.0000 0.1192638567
H   H46       1.0  0.91218  0.43561  0.80945  1.0000 0.1192638567
H   H47       1.0  0.76097  0.66387  0.11611  1.0000 0.1192638567
H   H48       1.0  0.23903  0.33613  0.88389  1.0000 0.1192638567
H   H49       1.0  0.02593  0.71966  0.07542  1.0000 0.1192638567
H   H50       1.0  0.97407  0.28034  0.92458  1.0000 0.1192638567
H   H51       1.0  0.17860  0.63723  0.01621  1.0000 0.1192638567
H   H52       1.0  0.82140  0.36277  0.98379  1.0000 0.1107905372
H   H53       1.0  0.96991  0.44959  0.09925  1.0000 0.1107905372
H   H54       1.0  0.03009  0.55041  0.90075  1.0000 0.1107905372
H   H55       1.0  0.33861  0.50272  0.99304  1.0000 0.1107905372
H   H56       1.0  0.66139  0.49728  0.00696  1.0000 0.1107905372
H   H57       1.0  0.01311  0.28387  0.08771  1.0000 0.1192638567
H   H58       1.0  0.98689  0.71613  0.91229  1.0000 0.1192638567
H   H59       1.0  0.38041  0.33758  0.98003  1.0000 0.1192638567
H   H60       1.0  0.61959  0.66242  0.01997  1.0000 0.1192638567
C   C1        1.0  0.54490  0.22490  0.38920  1.0000 0.5634928258
C   C2        1.0  0.45510  0.77510  0.61080  1.0000 0.5634928258
C   C3        1.0  0.58960  0.11930  0.38870  1.0000 -0.0300026433
C   C4        1.0  0.41040  0.88070  0.61130  1.0000 -0.0300026433
C   C5        1.0  0.50450  0.05010  0.42280  1.0000 -0.0980540651
C   C6        1.0  0.49550  0.94990  0.57720  1.0000 -0.0980540651
C   C7        1.0  0.71570  0.08730  0.35630  1.0000 -0.1100869341
C   C8        1.0  0.28430  0.91270  0.64370  1.0000 -0.1100869341
C   C9        1.0  0.54450  0.95250  0.42330  1.0000 -0.1523662645
C   C10       1.0  0.45550  0.04750  0.57670  1.0000 -0.1523662645
C   C11       1.0  0.75630  0.98890  0.35640  1.0000 -0.1579828599
C   C12       1.0  0.24370  0.01110  0.64360  1.0000 -0.1579828599
C   C13       1.0  0.66950  0.91970  0.38930  1.0000 0.1107905372
C   C14       1.0  0.33050  0.08030  0.61070  1.0000 0.1107905372
C   C15       1.0  0.70400  0.81390  0.39080  1.0000 -0.1381640501
C   C16       1.0  0.29600  0.18610  0.60920  1.0000 -0.1326122461
C   C17       1.0  0.77600  0.76490  0.34640  1.0000 -0.1326122461
C   C18       1.0  0.22400  0.23510  0.65360  1.0000 -0.1326122461
C   C19       1.0  0.82990  0.80480  0.28300  1.0000 0.1107905372
C   C20       1.0  0.17010  0.19520  0.71700  1.0000 0.1107905372
C   C21       1.0  0.74050  0.85140  0.24680  1.0000 -0.1381640501
C   C22       1.0  0.25950  0.14860  0.75320  1.0000 -0.1381640501
C   C23       1.0  0.96910  0.79630  0.25820  1.0000 -0.1579828599
C   C24       1.0  0.03090  0.20370  0.74180  1.0000 -0.1579828599
C   C25       1.0  0.78880  0.88690  0.18690  1.0000 -0.0916970064
C   C26       1.0  0.21120  0.11310  0.81310  1.0000 -0.0916970064
C   C27       1.0  0.01860  0.83340  0.19950  1.0000 -0.0916970064
C   C28       1.0  0.98140  0.16660  0.80050  1.0000 -0.0916970064
C   C29       1.0  0.92890  0.87830  0.16340  1.0000 -0.0504314782
C   C30       1.0  0.07110  0.12170  0.83660  1.0000 -0.0504314782
C   C31       1.0  0.98240  0.91600  0.09880  1.0000 0.6527404101
C   C32       1.0  0.01760  0.08400  0.90120  1.0000 0.6527404101
C   C33       1.0  0.54030  0.98180  0.89240  1.0000 0.658310345
C   C34       1.0  0.45970  0.01820  0.10760  1.0000 0.658310345
C   C35       1.0  0.62090  0.96630  0.83010  1.0000 -0.0380351287
C   C36       1.0  0.37910  0.03370  0.16990  1.0000 -0.0380351287
C   C37       1.0  0.76500  0.95740  0.81940  1.0000 -0.0916970064
C   C38       1.0  0.23500  0.04260  0.18060  1.0000 -0.0916970064
C   C39       1.0  0.55410  0.96140  0.78190  1.0000 -0.0980540651
C   C40       1.0  0.44590  0.03860  0.21810  1.0000 -0.0980540651
C   C41       1.0  0.83800  0.94420  0.76170  1.0000 -0.1579828599
C   C42       1.0  0.16200  0.05580  0.23830  1.0000 -0.1579828599
C   C43       1.0  0.62840  0.94980  0.72400  1.0000 -0.1523662645
C   C44       1.0  0.37160  0.05020  0.27600  1.0000 -0.1523662645
C   C45       1.0  0.77170  0.94110  0.71310  1.0000 0.1192638567
C   C46       1.0  0.22830  0.05890  0.28690  1.0000 0.1192638567
C   C47       1.0  0.85310  0.92360  0.65180  1.0000 -0.1326122461
C   C48       1.0  0.14690  0.07640  0.34820  1.0000 -0.1326122461
C   C49       1.0  0.86130  0.97760  0.59950  1.0000 -0.1381640501
C   C50       1.0  0.13870  0.02240  0.40050  1.0000 -0.1381640501
C   C51       1.0  0.80080  0.07650  0.58450  1.0000 0.1192638567
C   C52       1.0  0.19920  0.92350  0.41550  1.0000 0.1192638567
C   C53       1.0  0.74570  0.14000  0.62840  1.0000 -0.1523662645
C   C54       1.0  0.25430  0.86000  0.37160  1.0000 -0.1523662645
C   C55       1.0  0.79910  0.10900  0.52440  1.0000 -0.1661660834
C   C56       1.0  0.20090  0.89100  0.47560  1.0000 -0.1661660834
C   C57       1.0  0.68630  0.23080  0.61190  1.0000 -0.0916970064
C   C58       1.0  0.31370  0.76920  0.38810  1.0000 -0.0916970064
C   C59       1.0  0.74080  0.20040  0.50780  1.0000 -0.0916970064
C   C60       1.0  0.25920  0.79960  0.49220  1.0000 -0.0916970064
C   C61       1.0  0.68200  0.26190  0.55130  1.0000 -0.0504314782
C   C62       1.0  0.31800  0.73810  0.44870  1.0000 -0.0504314782
C   C63       1.0  0.61590  0.35970  0.53520  1.0000 0.658310345
C   C64       1.0  0.38410  0.64030  0.46480  1.0000 0.658310345
C   C65       1.0  0.66800  0.51490  0.30700  1.0000 0.5721151741
C   C66       1.0  0.33200  0.48510  0.69300  1.0000 0.5721151741
C   C67       1.0  0.76480  0.55290  0.25100  1.0000 -0.0300026433
C   C68       1.0  0.23520  0.44710  0.74900  1.0000 -0.0300026433
C   C69       1.0  0.90430  0.54400  0.24630  1.0000 -0.0916970064
C   C70       1.0  0.09570  0.45600  0.75370  1.0000 -0.0916970064
C   C71       1.0  0.71250  0.59730  0.20120  1.0000 -0.0916970064
C   C72       1.0  0.28750  0.40270  0.79880  1.0000 -0.0916970064
C   C73       1.0  0.99050  0.57340  0.19290  1.0000 -0.1523662645
C   C74       1.0  0.00950  0.42660  0.80710  1.0000 -0.1523662645
C   C75       1.0  0.79920  0.63020  0.14880  1.0000 -0.1523662645
C   C76       1.0  0.20080  0.36980  0.85120  1.0000 -0.1523662645
C   C77       1.0  0.93950  0.61510  0.14320  1.0000 0.1032652097
C   C78       1.0  0.06050  0.38490  0.85680  1.0000 0.1032652097
C   C79       1.0  0.03200  0.65140  0.08600  1.0000 -0.1208148239
C   C80       1.0  0.96800  0.34860  0.91400  1.0000 -0.1208148239
C   C81       1.0  0.12240  0.59950  0.04780  1.0000 -0.1381640501
C   C82       1.0  0.87760  0.40050  0.95220  1.0000 -0.1381640501
C   C83       1.0  0.14920  0.49380  0.04650  1.0000 0.1107905372
C   C84       1.0  0.85080  0.50620  0.95350  1.0000 0.1107905372
C   C85       1.0  0.05360  0.42730  0.07470  1.0000 -0.1523662645
C   C86       1.0  0.94640  0.57270  0.92530  1.0000 -0.1523662645
C   C87       1.0  0.27090  0.45870  0.01190  1.0000 -0.1661660834
C   C88       1.0  0.72910  0.54130  0.98810  1.0000 -0.1661660834
C   C89       1.0  0.07880  0.32850  0.06750  1.0000 -0.0916970064
C   C90       1.0  0.92120  0.67150  0.93250  1.0000 -0.0916970064
C   C91       1.0  0.29610  0.36000  0.00410  1.0000 -0.0980540651
C   C92       1.0  0.70390  0.64000  0.99590  1.0000 -0.0980540651
C   C93       1.0  0.19980  0.29490  0.03090  1.0000 -0.0380351287
C   C94       1.0  0.80020  0.70510  0.96910  1.0000 -0.0380351287
C   C95       1.0  0.22000  0.19080  0.01860  1.0000 0.5721151741
C   C96       1.0  0.78000  0.80920  0.98140  1.0000 0.5721151741
O   O1        1.0  0.60480  0.99620  0.93334  1.0000 -0.7093617209
O   O2        1.0  0.39520  0.00380  0.06666  1.0000 -0.7093617209
O   O3        1.0  0.89750  0.94380  0.06450  1.0000 -0.7044608085
O   O4        1.0  0.10250  0.05620  0.93550  1.0000 -0.7093617209
O   O5        1.0  0.11120  0.91880  0.08218  1.0000 -0.6808953522
O   O6        1.0  0.88880  0.08120  0.91782  1.0000 -0.6808953522
O   O7        1.0  0.41090  0.97970  0.90102  1.0000 -0.6808953522
O   O8        1.0  0.58910  0.02030  0.09898  1.0000 -0.6808953522
O   O9        1.0  0.71100  0.49120  0.35570  1.0000 -0.6022295742
O   O10       1.0  0.28900  0.50880  0.64430  1.0000 -0.6022295742
O   O11       1.0  0.54320  0.50640  0.30320  1.0000 -0.6569964378
O   O12       1.0  0.45680  0.49360  0.69680  1.0000 -0.6569964378
O   O13       1.0  0.61060  0.38360  0.47990  1.0000 -0.691287273
O   O14       1.0  0.38940  0.61640  0.52010  1.0000 -0.691287273
O   O15       1.0  0.57160  0.41240  0.57730  1.0000 -0.691287273
O   O16       1.0  0.42840  0.58760  0.42270  1.0000 -0.691287273
O   O17       1.0  0.43380  0.25130  0.42310  1.0000 -0.6661739735
O   O18       1.0  0.56620  0.74870  0.57690  1.0000 -0.6661739735
O   O19       1.0  0.62150  0.28750  0.35670  1.0000 -0.6334176747
O   O20       1.0  0.37850  0.71250  0.64330  1.0000 -0.6334176747
O   O21       1.0  0.13150  0.13150  0.04579  1.0000 -0.6375208883
O   O22       1.0  0.86850  0.86850  0.95421  1.0000 -0.6375208883
O   O23       1.0  0.32450  0.16110  0.98120  1.0000 -0.6334176747
O   O24       1.0  0.67550  0.83890  0.01880  1.0000 -0.6334176747
