# DDEC6 charges by PACMAN v1.1 (https://github.com/mtap-research/PACMAN-charge/)
data_2023[CuMo][nan]2[ASR]2
_chemical_formula_sum              "Cu6 Mo16 H144 C60 N24 O38"
_cell_length_a       12.2304
_cell_length_b       17.1665
_cell_length_c       17.5702
_cell_angle_alpha    87.179
_cell_angle_beta     87.928
_cell_angle_gamma    83.282

_symmetry_space_group_name_H-M    "P 1"
_symmetry_Int_Tables_number       1

loop_
  _symmetry_equiv_pos_as_xyz
  'x, y, z'

loop_
  _atom_site_type_symbol
  _atom_site_label
  _atom_site_symmetry_multiplicity
  _atom_site_fract_x
  _atom_site_fract_y
  _atom_site_fract_z
  _atom_site_occupancy
  _atom_site_charge
Cu  Cu1       1.0  0.00000  0.50000  0.50000  1.0000 0.6361714728
Cu  Cu2       1.0  0.00000  0.00000  0.50000  1.0000 0.6639684565
Cu  Cu3       1.0  0.00000  0.00000  0.00000  1.0000 0.6639684565
Cu  Cu4       1.0  0.00000  0.50000  0.00000  1.0000 0.6885991819
Cu  Cu5       1.0  0.50720  0.23628  0.76050  1.0000 0.6639684565
Cu  Cu6       1.0  0.49280  0.76372  0.23950  1.0000 0.6639684565
Mo  Mo1       1.0  0.13834  0.28609  0.57202  1.0000 1.6475746162
Mo  Mo2       1.0  0.86166  0.71391  0.42798  1.0000 1.673650337
Mo  Mo3       1.0  0.21693  0.34355  0.73334  1.0000 1.5213042028
Mo  Mo4       1.0  0.78307  0.65645  0.26666  1.0000 1.5213042028
Mo  Mo5       1.0  0.10509  0.17285  0.73157  1.0000 1.5444744356
Mo  Mo6       1.0  0.89491  0.82715  0.26843  1.0000 1.5475209482
Mo  Mo7       1.0  0.86944  0.20907  0.57913  1.0000 1.5755881793
Mo  Mo8       1.0  0.13056  0.79093  0.42087  1.0000 1.5589614637
Mo  Mo9       1.0  0.91020  0.30561  0.73763  1.0000 1.567153228
Mo  Mo10      1.0  0.08980  0.69439  0.26237  1.0000 1.5589614637
Mo  Mo11      1.0  0.79944  0.12918  0.74082  1.0000 1.4743287094
Mo  Mo12      1.0  0.20056  0.87082  0.25918  1.0000 1.4832863338
Mo  Mo13      1.0  0.88227  0.19153  0.89879  1.0000 1.567153228
Mo  Mo14      1.0  0.11773  0.80847  0.10121  1.0000 1.5589614637
Mo  Mo15      1.0  0.07566  0.29946  0.91126  1.0000 1.3634523876
Mo  Mo16      1.0  0.92434  0.70054  0.08874  1.0000 1.3697220809
H   H1        1.0  0.87226  0.41031  0.55978  1.0000 0.2512587845
H   H2        1.0  0.12774  0.58969  0.44022  1.0000 0.2512587845
H   H3        1.0  0.96139  0.97666  0.63836  1.0000 0.2319445271
H   H4        1.0  0.03861  0.02334  0.36164  1.0000 0.2319445271
H   H5        1.0  0.04259  0.50604  0.63779  1.0000 0.2319445271
H   H6        1.0  0.95741  0.49396  0.36221  1.0000 0.2319445271
H   H7        1.0  0.12782  0.08174  0.55649  1.0000 0.2581103719
H   H8        1.0  0.87218  0.91826  0.44351  1.0000 0.2581103719
H   H9        1.0  0.10169  0.02808  0.87727  1.0000 0.2319445271
H   H10       1.0  0.89831  0.97192  0.12273  1.0000 0.2319445271
H   H11       1.0  0.88704  0.44918  0.89950  1.0000 0.2319445271
H   H12       1.0  0.11296  0.55082  0.10050  1.0000 0.2319445271
H   H13       1.0  0.84960  0.02127  0.91402  1.0000 0.2397264145
H   H14       1.0  0.15040  0.97873  0.08598  1.0000 0.2397264145
H   H15       1.0  0.09097  0.60193  0.92393  1.0000 0.2512587845
H   H16       1.0  0.90903  0.39807  0.07607  1.0000 0.2512587845
H   H17       1.0  0.77443  0.48661  0.43158  1.0000 0.1181901874
H   H18       1.0  0.22557  0.51339  0.56842  1.0000 0.1181901874
H   H19       1.0  0.75168  0.40474  0.46904  1.0000 0.1105691103
H   H20       1.0  0.24832  0.59526  0.53096  1.0000 0.1105691103
H   H21       1.0  0.87968  0.86775  0.64078  1.0000 0.1105691103
H   H22       1.0  0.12032  0.13225  0.35922  1.0000 0.1105691103
H   H23       1.0  0.93446  0.84260  0.56210  1.0000 0.1105691103
H   H24       1.0  0.06554  0.15740  0.43790  1.0000 0.1105691103
H   H25       1.0  0.13021  0.61061  0.64075  1.0000 0.1105691103
H   H26       1.0  0.86979  0.38939  0.35925  1.0000 0.1105691103
H   H27       1.0  0.07260  0.65057  0.56773  1.0000 0.1105691103
H   H28       1.0  0.92740  0.34943  0.43227  1.0000 0.1105691103
H   H29       1.0  0.77572  0.97402  0.58085  1.0000 0.1181901874
H   H30       1.0  0.22428  0.02598  0.41915  1.0000 0.1181901874
H   H31       1.0  0.75456  0.89681  0.54154  1.0000 0.1105691103
H   H32       1.0  0.24544  0.10319  0.45846  1.0000 0.1105691103
H   H33       1.0  0.88362  0.63272  0.60286  1.0000 0.0900629751
H   H34       1.0  0.11638  0.36728  0.39714  1.0000 0.0900629751
H   H35       1.0  0.92550  0.60797  0.68475  1.0000 0.0900629751
H   H36       1.0  0.07450  0.39203  0.31525  1.0000 0.0900629751
H   H37       1.0  0.24861  0.93589  0.52955  1.0000 0.1009223111
H   H38       1.0  0.75139  0.06411  0.47045  1.0000 0.1009223111
H   H39       1.0  0.29261  0.00430  0.57121  1.0000 0.1009223111
H   H40       1.0  0.70739  0.99570  0.42879  1.0000 0.1009223111
H   H41       1.0  0.76262  0.56012  0.67853  1.0000 0.1105691103
H   H42       1.0  0.23738  0.43988  0.32147  1.0000 0.1105691103
H   H43       1.0  0.85199  0.48717  0.67521  1.0000 0.1105691103
H   H44       1.0  0.14801  0.51283  0.32479  1.0000 0.1105691103
H   H45       1.0  0.15024  0.99415  0.66421  1.0000 0.1105691103
H   H46       1.0  0.84976  0.00585  0.33579  1.0000 0.1105691103
H   H47       1.0  0.24197  0.92260  0.66464  1.0000 0.1105691103
H   H48       1.0  0.75803  0.07740  0.33536  1.0000 0.1105691103
H   H49       1.0  0.70949  0.48367  0.58610  1.0000 0.0900629751
H   H50       1.0  0.29051  0.51633  0.41390  1.0000 0.0900629751
H   H51       1.0  0.74944  0.55780  0.54266  1.0000 0.1009223111
H   H52       1.0  0.25056  0.44220  0.45734  1.0000 0.1009223111
H   H53       1.0  0.12017  0.85216  0.59651  1.0000 0.0900629751
H   H54       1.0  0.87983  0.14784  0.40349  1.0000 0.0900629751
H   H55       1.0  0.07892  0.87010  0.68029  1.0000 0.084009945
H   H56       1.0  0.92108  0.12990  0.31971  1.0000 0.0900629751
H   H57       1.0  0.24456  0.92412  0.96461  1.0000 0.1105691103
H   H58       1.0  0.75544  0.07588  0.03539  1.0000 0.1105691103
H   H59       1.0  0.27605  0.98760  0.90243  1.0000 0.1009223111
H   H60       1.0  0.72395  0.01240  0.09757  1.0000 0.1009223111
H   H61       1.0  0.89920  0.61013  0.87337  1.0000 0.1181901874
H   H62       1.0  0.10080  0.38987  0.12663  1.0000 0.1181901874
H   H63       1.0  0.87706  0.55017  0.81240  1.0000 0.0900629751
H   H64       1.0  0.12294  0.44983  0.18760  1.0000 0.0900629751
H   H65       1.0  0.71283  0.97286  0.97238  1.0000 0.1105691103
H   H66       1.0  0.28717  0.02714  0.02762  1.0000 0.1105691103
H   H67       1.0  0.78944  0.91364  0.02342  1.0000 0.1181901874
H   H68       1.0  0.21056  0.08636  0.97658  1.0000 0.1181901874
H   H69       1.0  0.05971  0.48513  0.82501  1.0000 0.1105691103
H   H70       1.0  0.94029  0.51487  0.17499  1.0000 0.1105691103
H   H71       1.0  0.06764  0.57464  0.80410  1.0000 0.1009223111
H   H72       1.0  0.93236  0.42536  0.19590  1.0000 0.1009223111
H   H73       1.0  0.82570  0.91142  0.86277  1.0000 0.1009223111
H   H74       1.0  0.17430  0.08858  0.13723  1.0000 0.1009223111
H   H75       1.0  0.90563  0.86211  0.91923  1.0000 0.1105691103
H   H76       1.0  0.09437  0.13789  0.08077  1.0000 0.1105691103
H   H77       1.0  0.25130  0.54570  0.87265  1.0000 0.1009223111
H   H78       1.0  0.74870  0.45430  0.12735  1.0000 0.1009223111
H   H79       1.0  0.22469  0.46177  0.90156  1.0000 0.1105691103
H   H80       1.0  0.77531  0.53823  0.09844  1.0000 0.1105691103
H   H81       1.0  0.97159  0.97128  0.80936  1.0000 0.1181901874
H   H82       1.0  0.02841  0.02872  0.19064  1.0000 0.1181901874
H   H83       1.0  0.98468  0.88106  0.79858  1.0000 0.1105691103
H   H84       1.0  0.01532  0.11894  0.20142  1.0000 0.1105691103
H   H85       1.0  0.75178  0.41841  0.99763  1.0000 0.1181901874
H   H86       1.0  0.24822  0.58159  0.00237  1.0000 0.1181901874
H   H87       1.0  0.65387  0.48161  0.01830  1.0000 0.1105691103
H   H88       1.0  0.34613  0.51839  0.98170  1.0000 0.1105691103
H   H89       1.0  0.11906  0.86537  0.89424  1.0000 0.1105691103
H   H90       1.0  0.88094  0.13463  0.10576  1.0000 0.1105691103
H   H91       1.0  0.15483  0.91462  0.82156  1.0000 0.0900629751
H   H92       1.0  0.84517  0.08538  0.17844  1.0000 0.0900629751
H   H93       1.0  0.71910  0.52309  0.90300  1.0000 0.084009945
H   H94       1.0  0.28090  0.47691  0.09700  1.0000 0.0900629751
H   H95       1.0  0.76038  0.57944  0.96066  1.0000 0.1105691103
H   H96       1.0  0.23962  0.42056  0.03934  1.0000 0.1105691103
H   H97       1.0  0.66036  0.29888  0.70067  1.0000 0.2397264145
H   H98       1.0  0.33964  0.70112  0.29933  1.0000 0.2397264145
H   H99       1.0  0.38994  0.22225  0.65248  1.0000 0.2512587845
H   H100      1.0  0.61006  0.77775  0.34752  1.0000 0.2512587845
H   H101      1.0  0.35192  0.16947  0.81088  1.0000 0.2512587845
H   H102      1.0  0.64808  0.83053  0.18912  1.0000 0.2512587845
H   H103      1.0  0.61263  0.24521  0.87661  1.0000 0.2397264145
H   H104      1.0  0.38737  0.75479  0.12339  1.0000 0.2397264145
H   H105      1.0  0.58955  0.35635  0.59519  1.0000 0.1009223111
H   H106      1.0  0.41045  0.64365  0.40481  1.0000 0.1009223111
H   H107      1.0  0.46894  0.36472  0.63031  1.0000 0.1181901874
H   H108      1.0  0.53106  0.63528  0.36969  1.0000 0.1181901874
H   H109      1.0  0.47739  0.25738  0.55487  1.0000 0.1105691103
H   H110      1.0  0.52261  0.74262  0.44513  1.0000 0.1105691103
H   H111      1.0  0.59264  0.22241  0.58560  1.0000 0.1181901874
H   H112      1.0  0.40736  0.77759  0.41440  1.0000 0.1181901874
H   H113      1.0  0.55734  0.10289  0.63440  1.0000 0.1105691103
H   H114      1.0  0.44266  0.89711  0.36560  1.0000 0.1105691103
H   H115      1.0  0.44993  0.11930  0.58705  1.0000 0.0900629751
H   H116      1.0  0.55007  0.88070  0.41295  1.0000 0.0900629751
H   H117      1.0  0.34358  0.09367  0.68930  1.0000 0.1181901874
H   H118      1.0  0.65642  0.90633  0.31070  1.0000 0.1181901874
H   H119      1.0  0.43209  0.02238  0.67729  1.0000 0.1105691103
H   H120      1.0  0.56791  0.97762  0.32271  1.0000 0.1105691103
H   H121      1.0  0.51608  0.04518  0.78246  1.0000 0.1105691103
H   H122      1.0  0.48392  0.95482  0.21754  1.0000 0.1105691103
H   H123      1.0  0.39118  0.03834  0.80053  1.0000 0.084009945
H   H124      1.0  0.60882  0.96166  0.19947  1.0000 0.084009945
H   H125      1.0  0.52608  0.11200  0.89899  1.0000 0.1105691103
H   H126      1.0  0.47392  0.88800  0.10101  1.0000 0.1105691103
H   H127      1.0  0.39968  0.12161  0.92148  1.0000 0.1009223111
H   H128      1.0  0.60032  0.87839  0.07852  1.0000 0.1009223111
H   H129      1.0  0.39251  0.25487  0.91876  1.0000 0.1181901874
H   H130      1.0  0.60749  0.74513  0.08124  1.0000 0.1181901874
H   H131      1.0  0.49372  0.22231  0.96793  1.0000 0.1105691103
H   H132      1.0  0.50628  0.77769  0.03207  1.0000 0.1105691103
H   H133      1.0  0.55498  0.35533  0.93102  1.0000 0.0900629751
H   H134      1.0  0.44502  0.64467  0.06898  1.0000 0.0900629751
H   H135      1.0  0.45931  0.37421  0.87375  1.0000 0.1105691103
H   H136      1.0  0.54069  0.62579  0.12625  1.0000 0.1105691103
H   H137      1.0  0.60999  0.44694  0.84123  1.0000 0.1105691103
H   H138      1.0  0.39001  0.55306  0.15877  1.0000 0.1105691103
H   H139      1.0  0.68588  0.36849  0.82935  1.0000 0.1181901874
H   H140      1.0  0.31412  0.63151  0.17065  1.0000 0.1181901874
H   H141      1.0  0.64114  0.42690  0.71511  1.0000 0.0900629751
H   H142      1.0  0.35886  0.57310  0.28489  1.0000 0.0900629751
H   H143      1.0  0.51531  0.43015  0.73624  1.0000 0.1009223111
H   H144      1.0  0.48469  0.56985  0.26376  1.0000 0.1009223111
C   C1        1.0  0.80810  0.43930  0.45790  1.0000 -0.1015129969
C   C2        1.0  0.19190  0.56070  0.54210  1.0000 -0.1015129969
C   C3        1.0  0.90400  0.88720  0.59110  1.0000 -0.111864476
C   C4        1.0  0.09600  0.11280  0.40890  1.0000 -0.111864476
C   C5        1.0  0.10180  0.60070  0.59170  1.0000 -0.111864476
C   C6        1.0  0.89820  0.39930  0.40830  1.0000 -0.111864476
C   C7        1.0  0.81000  0.93130  0.55070  1.0000 -0.111864476
C   C8        1.0  0.19000  0.06870  0.44930  1.0000 -0.111864476
C   C9        1.0  0.91040  0.58820  0.63590  1.0000 -0.0897822552
C   C10       1.0  0.08960  0.41180  0.36410  1.0000 -0.0897822552
C   C11       1.0  0.22700  0.97940  0.56220  1.0000 -0.070177883
C   C12       1.0  0.77300  0.02060  0.43780  1.0000 -0.070177883
C   C13       1.0  0.82190  0.53450  0.64720  1.0000 -0.2566716396
C   C14       1.0  0.17810  0.46550  0.35280  1.0000 -0.2566716396
C   C15       1.0  0.18200  0.94950  0.63570  1.0000 -0.2566716396
C   C16       1.0  0.81800  0.05050  0.36430  1.0000 -0.2566716396
C   C17       1.0  0.77340  0.51090  0.57360  1.0000 -0.0522142439
C   C18       1.0  0.22660  0.48910  0.42640  1.0000 -0.0522142439
C   C19       1.0  0.09400  0.89380  0.63030  1.0000 -0.070177883
C   C20       1.0  0.90600  0.10620  0.36970  1.0000 -0.070177883
C   C21       1.0  0.22300  0.97600  0.94300  1.0000 -0.1293901898
C   C22       1.0  0.77700  0.02400  0.05700  1.0000 -0.1293901898
C   C23       1.0  0.91600  0.55640  0.85820  1.0000 -0.1015129969
C   C24       1.0  0.08400  0.44360  0.14180  1.0000 -0.1015129969
C   C25       1.0  0.78100  0.96600  0.99930  1.0000 -0.1293901898
C   C26       1.0  0.21900  0.03400  0.00070  1.0000 -0.1293901898
C   C27       1.0  0.04200  0.53790  0.84270  1.0000 -0.117357722
C   C28       1.0  0.95800  0.46210  0.15730  1.0000 -0.117357722
C   C29       1.0  0.89200  0.91220  0.89120  1.0000 -0.0522142439
C   C30       1.0  0.10800  0.08780  0.10880  1.0000 -0.0522142439
C   C31       1.0  0.21500  0.51690  0.91300  1.0000 -0.0522142439
C   C32       1.0  0.78500  0.48310  0.08700  1.0000 -0.0522142439
C   C33       1.0  0.98600  0.92050  0.83610  1.0000 -0.2467382499
C   C34       1.0  0.01400  0.07950  0.16390  1.0000 -0.2467382499
C   C35       1.0  0.73300  0.47250  0.01130  1.0000 -0.2405965674
C   C36       1.0  0.26700  0.52750  0.98870  1.0000 -0.2405965674
C   C37       1.0  0.10300  0.91410  0.86440  1.0000 -0.070177883
C   C38       1.0  0.89700  0.08590  0.13560  1.0000 -0.070177883
C   C39       1.0  0.76800  0.52560  0.94510  1.0000 -0.0598979441
C   C40       1.0  0.23200  0.47440  0.05490  1.0000 -0.070177883
C   C41       1.0  0.53900  0.33130  0.62920  1.0000 -0.0897822552
C   C42       1.0  0.46100  0.66870  0.37080  1.0000 -0.0897822552
C   C43       1.0  0.52200  0.25000  0.59990  1.0000 -0.0769524547
C   C44       1.0  0.47800  0.75000  0.40010  1.0000 -0.070177883
C   C45       1.0  0.48000  0.12300  0.63700  1.0000 -0.0598979441
C   C46       1.0  0.52000  0.87700  0.36300  1.0000 -0.0598979441
C   C47       1.0  0.42100  0.07600  0.69400  1.0000 -0.2405965674
C   C48       1.0  0.57900  0.92400  0.30600  1.0000 -0.2405965674
C   C49       1.0  0.44200  0.07090  0.77500  1.0000 -0.0769524547
C   C50       1.0  0.55800  0.92910  0.22500  1.0000 -0.0769524547
C   C51       1.0  0.45700  0.14490  0.89170  1.0000 -0.117357722
C   C52       1.0  0.54300  0.85510  0.10830  1.0000 -0.117357722
C   C53       1.0  0.46500  0.22580  0.91690  1.0000 -0.111864476
C   C54       1.0  0.53500  0.77420  0.08310  1.0000 -0.111864476
C   C55       1.0  0.53400  0.34960  0.87900  1.0000 -0.0522142439
C   C56       1.0  0.46600  0.65040  0.12100  1.0000 -0.0522142439
C   C57       1.0  0.61100  0.39390  0.82400  1.0000 -0.2405965674
C   C58       1.0  0.38900  0.60610  0.17600  1.0000 -0.2405965674
C   C59       1.0  0.58600  0.39920  0.74300  1.0000 -0.070177883
C   C60       1.0  0.41400  0.60080  0.25700  1.0000 -0.070177883
N   N1        1.0  0.85560  0.45930  0.52920  1.0000 -0.3177687161
N   N2        1.0  0.14440  0.54070  0.47080  1.0000 -0.3177687161
N   N3        1.0  0.98940  0.93910  0.60010  1.0000 -0.3177687161
N   N4        1.0  0.01060  0.06090  0.39990  1.0000 -0.3177687161
N   N5        1.0  0.01550  0.54880  0.60180  1.0000 -0.3106146352
N   N6        1.0  0.98450  0.45120  0.39820  1.0000 -0.3106146352
N   N7        1.0  0.14420  0.03740  0.52330  1.0000 -0.3106146352
N   N8        1.0  0.85580  0.96260  0.47670  1.0000 -0.3106146352
N   N9        1.0  0.11100  0.98100  0.91130  1.0000 -0.3177687161
N   N10       1.0  0.88900  0.01900  0.08870  1.0000 -0.3106146352
N   N11       1.0  0.88290  0.50170  0.91970  1.0000 -0.3254797928
N   N12       1.0  0.11710  0.49830  0.08030  1.0000 -0.3254797928
N   N13       1.0  0.87300  0.97370  0.94520  1.0000 -0.3106146352
N   N14       1.0  0.12700  0.02630  0.05480  1.0000 -0.3106146352
N   N15       1.0  0.09590  0.54550  0.91600  1.0000 -0.3106146352
N   N16       1.0  0.90410  0.45450  0.08400  1.0000 -0.3106146352
N   N17       1.0  0.58320  0.32100  0.70740  1.0000 -0.3106146352
N   N18       1.0  0.41680  0.67900  0.29260  1.0000 -0.3106146352
N   N19       1.0  0.46860  0.20430  0.65680  1.0000 -0.3106146352
N   N20       1.0  0.53140  0.79570  0.34320  1.0000 -0.3106146352
N   N21       1.0  0.43060  0.15040  0.81210  1.0000 -0.2988414415
N   N22       1.0  0.56940  0.84960  0.18790  1.0000 -0.2988414415
N   N23       1.0  0.53730  0.26840  0.86600  1.0000 -0.2988414415
N   N24       1.0  0.46270  0.73160  0.13400  1.0000 -0.2988414415
O   O1        1.0  0.67020  0.13090  0.78310  1.0000 -0.7292771015
O   O2        1.0  0.32980  0.86910  0.21690  1.0000 -0.7292771015
O   O3        1.0  0.07900  0.37160  0.97650  1.0000 -0.7673873775
O   O4        1.0  0.92100  0.62840  0.02350  1.0000 -0.7673873775
O   O5        1.0  0.10210  0.38250  0.54930  1.0000 -0.7235924475
O   O6        1.0  0.89790  0.61750  0.45070  1.0000 -0.7235924475
O   O7        1.0  0.25850  0.29910  0.63650  1.0000 -0.8906525247
O   O8        1.0  0.74150  0.70090  0.36350  1.0000 -0.8906525247
O   O9        1.0  0.15430  0.16760  0.63310  1.0000 -0.8284792178
O   O10       1.0  0.84570  0.83240  0.36690  1.0000 -0.8284792178
O   O11       1.0  0.00040  0.25090  0.55110  1.0000 -0.8491796427
O   O12       1.0  0.99960  0.74910  0.44890  1.0000 -0.8491796427
O   O13       1.0  0.34880  0.33800  0.76710  1.0000 -0.7292771015
O   O14       1.0  0.65120  0.66200  0.23290  1.0000 -0.7292771015
O   O15       1.0  0.21780  0.21720  0.76940  1.0000 -0.8229605728
O   O16       1.0  0.78220  0.78280  0.23060  1.0000 -0.8229605728
O   O17       1.0  0.13530  0.35390  0.83010  1.0000 -0.8491796427
O   O18       1.0  0.86470  0.64610  0.16990  1.0000 -0.8491796427
O   O19       1.0  0.90610  0.11550  0.55090  1.0000 -0.7439777129
O   O20       1.0  0.09390  0.88450  0.44910  1.0000 -0.7439777129
O   O21       1.0  0.84450  0.32540  0.64910  1.0000 -0.7673873775
O   O22       1.0  0.15550  0.67460  0.35090  1.0000 -0.7673873775
O   O23       1.0  0.75110  0.18950  0.65110  1.0000 -0.8797539942
O   O24       1.0  0.24890  0.81050  0.34890  1.0000 -0.8797539942
O   O25       1.0  0.88670  0.10940  0.82970  1.0000 -0.8696350031
O   O26       1.0  0.11330  0.89060  0.17030  1.0000 -0.8696350031
O   O27       1.0  0.95780  0.13280  0.96370  1.0000 -0.7292771015
O   O28       1.0  0.04220  0.86720  0.03630  1.0000 -0.7292771015
O   O29       1.0  0.92470  0.28780  0.93580  1.0000 -0.8906525247
O   O30       1.0  0.07530  0.71220  0.06420  1.0000 -0.8906525247
O   O31       1.0  0.06290  0.30200  0.69270  1.0000 -1.0566071742
O   O32       1.0  0.93710  0.69800  0.30730  1.0000 -1.0566071742
O   O33       1.0  0.01170  0.23130  0.82120  1.0000 -1.1045296662
O   O34       1.0  0.98830  0.76870  0.17880  1.0000 -1.1051289313
O   O35       1.0  0.94440  0.18260  0.69320  1.0000 -1.0687039368
O   O36       1.0  0.05560  0.81740  0.30680  1.0000 -1.0687039368
O   O37       1.0  0.80580  0.25160  0.79170  1.0000 -0.9226277344
O   O38       1.0  0.19420  0.74840  0.20830  1.0000 -0.9226277344
