# DDEC6 charges by PACMAN v1.1 (https://github.com/mtap-research/PACMAN-charge/)
data_2023[Mg][bpq]3[ASR]3
_chemical_formula_sum              "Mg8 H64 C96 O40"
_cell_length_a       13.7341
_cell_length_b       14.2633
_cell_length_c       16.6953
_cell_angle_alpha    90
_cell_angle_beta     90
_cell_angle_gamma    90

_symmetry_space_group_name_H-M    "P 1"
_symmetry_Int_Tables_number       1

loop_
  _symmetry_equiv_pos_as_xyz
  'x, y, z'

loop_
  _atom_site_type_symbol
  _atom_site_label
  _atom_site_symmetry_multiplicity
  _atom_site_fract_x
  _atom_site_fract_y
  _atom_site_fract_z
  _atom_site_occupancy
  _atom_site_charge
Mg  Mg1       1.0  0.50000  0.25000  0.99895  1.0000 1.3436637878
Mg  Mg2       1.0  0.00000  0.75000  0.50105  1.0000 1.3436637878
Mg  Mg3       1.0  0.50000  0.75000  0.00105  1.0000 1.3436637878
Mg  Mg4       1.0  0.00000  0.25000  0.49895  1.0000 1.3436637878
Mg  Mg5       1.0  0.50000  0.00000  0.00000  1.0000 1.353325045
Mg  Mg6       1.0  0.00000  0.50000  0.50000  1.0000 1.353325045
Mg  Mg7       1.0  0.50000  0.50000  0.00000  1.0000 1.353325045
Mg  Mg8       1.0  0.00000  0.00000  0.50000  1.0000 1.353325045
H   H1        1.0  0.36100  0.12890  0.98480  1.0000 0.3492686509
H   H2        1.0  0.13900  0.62890  0.51520  1.0000 0.3492686509
H   H3        1.0  0.63900  0.37110  0.98480  1.0000 0.3492686509
H   H4        1.0  0.86100  0.87110  0.51520  1.0000 0.3492686509
H   H5        1.0  0.63900  0.87110  0.01520  1.0000 0.3492686509
H   H6        1.0  0.86100  0.37110  0.48480  1.0000 0.3492686509
H   H7        1.0  0.36100  0.62890  0.01520  1.0000 0.3492686509
H   H8        1.0  0.13900  0.12890  0.48480  1.0000 0.3492686509
H   H9        1.0  0.40300  0.12760  0.05700  1.0000 0.3492686509
H   H10       1.0  0.09700  0.62760  0.44300  1.0000 0.3492686509
H   H11       1.0  0.59700  0.37240  0.05700  1.0000 0.3492686509
H   H12       1.0  0.90300  0.87240  0.44300  1.0000 0.3492686509
H   H13       1.0  0.59700  0.87240  0.94300  1.0000 0.3492686509
H   H14       1.0  0.90300  0.37240  0.55700  1.0000 0.3492686509
H   H15       1.0  0.40300  0.62760  0.94300  1.0000 0.3492686509
H   H16       1.0  0.09700  0.12760  0.55700  1.0000 0.3492686509
H   H17       1.0  0.76317  0.23782  0.15352  1.0000 0.1191104064
H   H18       1.0  0.73683  0.73782  0.34648  1.0000 0.1191104064
H   H19       1.0  0.23683  0.26218  0.15352  1.0000 0.1191104064
H   H20       1.0  0.26317  0.76218  0.34648  1.0000 0.1191104064
H   H21       1.0  0.23683  0.76218  0.84648  1.0000 0.1191104064
H   H22       1.0  0.26317  0.26218  0.65352  1.0000 0.1191104064
H   H23       1.0  0.76317  0.73782  0.84648  1.0000 0.1191104064
H   H24       1.0  0.73683  0.23782  0.65352  1.0000 0.1191104064
H   H25       1.0  0.87106  0.23534  0.26273  1.0000 0.1191104064
H   H26       1.0  0.62894  0.73534  0.23727  1.0000 0.1191104064
H   H27       1.0  0.12894  0.26466  0.26273  1.0000 0.1191104064
H   H28       1.0  0.37106  0.76466  0.23727  1.0000 0.1191104064
H   H29       1.0  0.12894  0.76466  0.73727  1.0000 0.1191104064
H   H30       1.0  0.37106  0.26466  0.76273  1.0000 0.1191104064
H   H31       1.0  0.87106  0.73534  0.73727  1.0000 0.1191104064
H   H32       1.0  0.62894  0.23534  0.76273  1.0000 0.1191104064
H   H33       1.0  0.75644  0.99353  0.42572  1.0000 0.1191104064
H   H34       1.0  0.74356  0.49353  0.07428  1.0000 0.1191104064
H   H35       1.0  0.24356  0.50647  0.42572  1.0000 0.1191104064
H   H36       1.0  0.25644  0.00647  0.07428  1.0000 0.1191104064
H   H37       1.0  0.24356  0.00647  0.57428  1.0000 0.1191104064
H   H38       1.0  0.25644  0.50647  0.92572  1.0000 0.1191104064
H   H39       1.0  0.75644  0.49353  0.57428  1.0000 0.1191104064
H   H40       1.0  0.74356  0.99353  0.92572  1.0000 0.1191104064
H   H41       1.0  0.62178  0.89708  0.42363  1.0000 0.109939068
H   H42       1.0  0.87822  0.39708  0.07637  1.0000 0.109939068
H   H43       1.0  0.37822  0.60292  0.42363  1.0000 0.109939068
H   H44       1.0  0.12178  0.10292  0.07637  1.0000 0.109939068
H   H45       1.0  0.37822  0.10292  0.57637  1.0000 0.109939068
H   H46       1.0  0.12178  0.60292  0.92363  1.0000 0.109939068
H   H47       1.0  0.62178  0.39708  0.57637  1.0000 0.109939068
H   H48       1.0  0.87822  0.89708  0.92363  1.0000 0.109939068
H   H49       1.0  0.51479  0.89808  0.31343  1.0000 0.109939068
H   H50       1.0  0.98521  0.39808  0.18657  1.0000 0.109939068
H   H51       1.0  0.48521  0.60192  0.31343  1.0000 0.109939068
H   H52       1.0  0.01479  0.10192  0.18657  1.0000 0.109939068
H   H53       1.0  0.48521  0.10192  0.68657  1.0000 0.109939068
H   H54       1.0  0.01479  0.60192  0.81343  1.0000 0.109939068
H   H55       1.0  0.51479  0.39808  0.68657  1.0000 0.109939068
H   H56       1.0  0.98521  0.89808  0.81343  1.0000 0.109939068
H   H57       1.0  0.54233  0.99697  0.20630  1.0000 0.1265141129
H   H58       1.0  0.95767  0.49697  0.29370  1.0000 0.1265141129
H   H59       1.0  0.45767  0.50303  0.20630  1.0000 0.1265141129
H   H60       1.0  0.04233  0.00303  0.29370  1.0000 0.1265141129
H   H61       1.0  0.45767  0.00303  0.79370  1.0000 0.1265141129
H   H62       1.0  0.04233  0.50303  0.70630  1.0000 0.1265141129
H   H63       1.0  0.54233  0.49697  0.79370  1.0000 0.1265141129
H   H64       1.0  0.95767  0.99697  0.70630  1.0000 0.1265141129
C   C1        1.0  0.62005  0.12783  0.11280  1.0000 0.6289237797
C   C2        1.0  0.87995  0.62783  0.38720  1.0000 0.6289237797
C   C3        1.0  0.37995  0.37217  0.11280  1.0000 0.6289237797
C   C4        1.0  0.12005  0.87217  0.38720  1.0000 0.6289237797
C   C5        1.0  0.37995  0.87217  0.88720  1.0000 0.6289237797
C   C6        1.0  0.12005  0.37217  0.61280  1.0000 0.6289237797
C   C7        1.0  0.62005  0.62783  0.88720  1.0000 0.6289237797
C   C8        1.0  0.87995  0.12783  0.61280  1.0000 0.6289237797
C   C9        1.0  0.68288  0.12589  0.18714  1.0000 -0.0576398584
C   C10       1.0  0.81712  0.62589  0.31286  1.0000 -0.0576398584
C   C11       1.0  0.31712  0.37411  0.18714  1.0000 -0.0576398584
C   C12       1.0  0.18288  0.87411  0.31286  1.0000 -0.0576398584
C   C13       1.0  0.31712  0.87411  0.81286  1.0000 -0.0576398584
C   C14       1.0  0.18288  0.37411  0.68714  1.0000 -0.0576398584
C   C15       1.0  0.68288  0.62589  0.81286  1.0000 -0.0576398584
C   C16       1.0  0.81712  0.12589  0.68714  1.0000 -0.0576398584
C   C17       1.0  0.75609  0.19113  0.19368  1.0000 -0.1180403273
C   C18       1.0  0.74391  0.69113  0.30632  1.0000 -0.1180403273
C   C19       1.0  0.24391  0.30887  0.19368  1.0000 -0.1180403273
C   C20       1.0  0.25609  0.80887  0.30632  1.0000 -0.1180403273
C   C21       1.0  0.24391  0.80887  0.80632  1.0000 -0.1180403273
C   C22       1.0  0.25609  0.30887  0.69368  1.0000 -0.1180403273
C   C23       1.0  0.75609  0.69113  0.80632  1.0000 -0.1180403273
C   C24       1.0  0.74391  0.19113  0.69368  1.0000 -0.1180403273
C   C25       1.0  0.82088  0.18967  0.25930  1.0000 -0.1180403273
C   C26       1.0  0.67912  0.68967  0.24070  1.0000 -0.1180403273
C   C27       1.0  0.17912  0.31033  0.25930  1.0000 -0.1180403273
C   C28       1.0  0.32088  0.81033  0.24070  1.0000 -0.1180403273
C   C29       1.0  0.17912  0.81033  0.74070  1.0000 -0.1180403273
C   C30       1.0  0.32088  0.31033  0.75930  1.0000 -0.1180403273
C   C31       1.0  0.82088  0.68967  0.74070  1.0000 -0.1180403273
C   C32       1.0  0.67912  0.18967  0.75930  1.0000 -0.1180403273
C   C33       1.0  0.81225  0.12310  0.31816  1.0000 -0.0659393087
C   C34       1.0  0.68775  0.62310  0.18184  1.0000 -0.0659393087
C   C35       1.0  0.18775  0.37690  0.31816  1.0000 -0.0659393087
C   C36       1.0  0.31225  0.87690  0.18184  1.0000 -0.0659393087
C   C37       1.0  0.18775  0.87690  0.68184  1.0000 -0.0659393087
C   C38       1.0  0.31225  0.37690  0.81816  1.0000 -0.0659393087
C   C39       1.0  0.81225  0.62310  0.68184  1.0000 -0.0659393087
C   C40       1.0  0.68775  0.12310  0.81816  1.0000 -0.0659393087
C   C41       1.0  0.73324  0.05753  0.31631  1.0000 0.0664682671
C   C42       1.0  0.76676  0.55753  0.18369  1.0000 0.0664682671
C   C43       1.0  0.26676  0.44247  0.31631  1.0000 0.0664682671
C   C44       1.0  0.23324  0.94247  0.18369  1.0000 0.0664682671
C   C45       1.0  0.26676  0.94247  0.68369  1.0000 0.0664682671
C   C46       1.0  0.23324  0.44247  0.81631  1.0000 0.0664682671
C   C47       1.0  0.73324  0.55753  0.68369  1.0000 0.0664682671
C   C48       1.0  0.76676  0.05753  0.81631  1.0000 0.0664682671
C   C49       1.0  0.71359  0.99519  0.38107  1.0000 -0.1461207808
C   C50       1.0  0.78641  0.49519  0.11893  1.0000 -0.1461207808
C   C51       1.0  0.28641  0.50481  0.38107  1.0000 -0.1461207808
C   C52       1.0  0.21359  0.00481  0.11893  1.0000 -0.1461207808
C   C53       1.0  0.28641  0.00481  0.61893  1.0000 -0.1461207808
C   C54       1.0  0.21359  0.50481  0.88107  1.0000 -0.1461207808
C   C55       1.0  0.71359  0.49519  0.61893  1.0000 -0.1461207808
C   C56       1.0  0.78641  0.99519  0.88107  1.0000 -0.1461207808
C   C57       1.0  0.63399  0.93784  0.37976  1.0000 -0.0979579628
C   C58       1.0  0.86601  0.43784  0.12024  1.0000 -0.0979579628
C   C59       1.0  0.36601  0.56216  0.37976  1.0000 -0.0979579628
C   C60       1.0  0.13399  0.06216  0.12024  1.0000 -0.0979579628
C   C61       1.0  0.36601  0.06216  0.62024  1.0000 -0.0979579628
C   C62       1.0  0.13399  0.56216  0.87976  1.0000 -0.0979579628
C   C63       1.0  0.63399  0.43784  0.62024  1.0000 -0.0979579628
C   C64       1.0  0.86601  0.93784  0.87976  1.0000 -0.0979579628
C   C65       1.0  0.56971  0.93858  0.31380  1.0000 -0.0935903896
C   C66       1.0  0.93029  0.43858  0.18620  1.0000 -0.0935903896
C   C67       1.0  0.43029  0.56142  0.31380  1.0000 -0.0935903896
C   C68       1.0  0.06971  0.06142  0.18620  1.0000 -0.0935903896
C   C69       1.0  0.43029  0.06142  0.68620  1.0000 -0.0935903896
C   C70       1.0  0.06971  0.56142  0.81380  1.0000 -0.0935903896
C   C71       1.0  0.56971  0.43858  0.68620  1.0000 -0.0935903896
C   C72       1.0  0.93029  0.93858  0.81380  1.0000 -0.0935903896
C   C73       1.0  0.58601  0.99726  0.25042  1.0000 -0.1180403273
C   C74       1.0  0.91399  0.49726  0.24958  1.0000 -0.1180403273
C   C75       1.0  0.41399  0.50274  0.25042  1.0000 -0.1180403273
C   C76       1.0  0.08601  0.00274  0.24958  1.0000 -0.1180403273
C   C77       1.0  0.41399  0.00274  0.74958  1.0000 -0.1180403273
C   C78       1.0  0.08601  0.50274  0.75042  1.0000 -0.1180403273
C   C79       1.0  0.58601  0.49726  0.74958  1.0000 -0.1180403273
C   C80       1.0  0.91399  0.99726  0.75042  1.0000 -0.1180403273
C   C81       1.0  0.66779  0.05889  0.24975  1.0000 0.0577338322
C   C82       1.0  0.83221  0.55889  0.25025  1.0000 0.0577338322
C   C83       1.0  0.33221  0.44111  0.24975  1.0000 0.0577338322
C   C84       1.0  0.16779  0.94111  0.25025  1.0000 0.0577338322
C   C85       1.0  0.33221  0.94111  0.75025  1.0000 0.0577338322
C   C86       1.0  0.16779  0.44111  0.74975  1.0000 0.0577338322
C   C87       1.0  0.66779  0.55889  0.75025  1.0000 0.0577338322
C   C88       1.0  0.83221  0.05889  0.74975  1.0000 0.0577338322
C   C89       1.0  0.88753  0.12203  0.38405  1.0000 0.6350722595
C   C90       1.0  0.61247  0.62203  0.11595  1.0000 0.6350722595
C   C91       1.0  0.11247  0.37797  0.38405  1.0000 0.6350722595
C   C92       1.0  0.38753  0.87797  0.11595  1.0000 0.6350722595
C   C93       1.0  0.11247  0.87797  0.61595  1.0000 0.6350722595
C   C94       1.0  0.38753  0.37797  0.88405  1.0000 0.6350722595
C   C95       1.0  0.88753  0.62203  0.61595  1.0000 0.6350722595
C   C96       1.0  0.61247  0.12203  0.88405  1.0000 0.6350722595
O   O1        1.0  0.59387  0.20695  0.08801  1.0000 -0.6491478976
O   O2        1.0  0.90613  0.70695  0.41199  1.0000 -0.6491478976
O   O3        1.0  0.40613  0.29305  0.08801  1.0000 -0.6491478976
O   O4        1.0  0.09387  0.79305  0.41199  1.0000 -0.6491478976
O   O5        1.0  0.40613  0.79305  0.91199  1.0000 -0.6491478976
O   O6        1.0  0.09387  0.29305  0.58801  1.0000 -0.6491478976
O   O7        1.0  0.59387  0.70695  0.91199  1.0000 -0.6491478976
O   O8        1.0  0.90613  0.20695  0.58801  1.0000 -0.6491478976
O   O9        1.0  0.59981  0.05050  0.08049  1.0000 -0.6491478976
O   O10       1.0  0.90019  0.55050  0.41951  1.0000 -0.6491478976
O   O11       1.0  0.40019  0.44950  0.08049  1.0000 -0.6491478976
O   O12       1.0  0.09981  0.94950  0.41951  1.0000 -0.6491478976
O   O13       1.0  0.40019  0.94950  0.91951  1.0000 -0.6491478976
O   O14       1.0  0.09981  0.44950  0.58049  1.0000 -0.6491478976
O   O15       1.0  0.59981  0.55050  0.91951  1.0000 -0.6491478976
O   O16       1.0  0.90019  0.05050  0.58049  1.0000 -0.6491478976
O   O17       1.0  0.91247  0.19969  0.41211  1.0000 -0.6491478976
O   O18       1.0  0.58753  0.69969  0.08789  1.0000 -0.6491478976
O   O19       1.0  0.08753  0.30031  0.41211  1.0000 -0.6491478976
O   O20       1.0  0.41247  0.80031  0.08789  1.0000 -0.6491478976
O   O21       1.0  0.08753  0.80031  0.58789  1.0000 -0.6491478976
O   O22       1.0  0.41247  0.30031  0.91211  1.0000 -0.6491478976
O   O23       1.0  0.91247  0.69969  0.58789  1.0000 -0.6491478976
O   O24       1.0  0.58753  0.19969  0.91211  1.0000 -0.6491478976
O   O25       1.0  0.92097  0.04345  0.40432  1.0000 -0.6491478976
O   O26       1.0  0.57903  0.54345  0.09568  1.0000 -0.6491478976
O   O27       1.0  0.07903  0.45655  0.40432  1.0000 -0.6491478976
O   O28       1.0  0.42097  0.95655  0.09568  1.0000 -0.6491478976
O   O29       1.0  0.07903  0.95655  0.59568  1.0000 -0.6491478976
O   O30       1.0  0.42097  0.45655  0.90432  1.0000 -0.6491478976
O   O31       1.0  0.92097  0.54345  0.59568  1.0000 -0.6491478976
O   O32       1.0  0.57903  0.04345  0.90432  1.0000 -0.6491478976
O   O33       1.0  0.41591  0.12501  0.01083  1.0000 -0.7269924522
O   O34       1.0  0.08409  0.62501  0.48917  1.0000 -0.7269924522
O   O35       1.0  0.58409  0.37499  0.01083  1.0000 -0.7269924522
O   O36       1.0  0.91591  0.87499  0.48917  1.0000 -0.7269924522
O   O37       1.0  0.58409  0.87499  0.98917  1.0000 -0.7269924522
O   O38       1.0  0.91591  0.37499  0.51083  1.0000 -0.7269924522
O   O39       1.0  0.41591  0.62501  0.98917  1.0000 -0.7269924522
O   O40       1.0  0.08409  0.12501  0.51083  1.0000 -0.7269924522
