# DDEC6 charges by PACMAN v1.1 (https://github.com/mtap-research/PACMAN-charge/)
data_2023[Yb][nan]3[ASR]2
_chemical_formula_sum              "Yb4 H12 C36 O24"
_cell_length_a       10.162
_cell_length_b       10.162
_cell_length_c       14.3791
_cell_angle_alpha    90
_cell_angle_beta     90
_cell_angle_gamma    90

_symmetry_space_group_name_H-M    "P 1"
_symmetry_Int_Tables_number       1

loop_
  _symmetry_equiv_pos_as_xyz
  'x, y, z'

loop_
  _atom_site_type_symbol
  _atom_site_label
  _atom_site_symmetry_multiplicity
  _atom_site_fract_x
  _atom_site_fract_y
  _atom_site_fract_z
  _atom_site_occupancy
  _atom_site_charge
Yb  Yb1       1.0  0.34923  0.65077  0.12500  1.0000 2.0223296173
Yb  Yb2       1.0  0.65077  0.34923  0.62500  1.0000 2.0223296173
Yb  Yb3       1.0  0.34923  0.34923  0.37500  1.0000 2.0223296173
Yb  Yb4       1.0  0.65077  0.65077  0.87500  1.0000 2.0223296173
H   H1        1.0  0.42519  0.93896  0.37003  1.0000 0.1269406695
H   H2        1.0  0.57481  0.06104  0.87003  1.0000 0.1269406695
H   H3        1.0  0.06104  0.42519  0.62003  1.0000 0.1269406695
H   H4        1.0  0.93896  0.57481  0.12003  1.0000 0.1269406695
H   H5        1.0  0.57481  0.93896  0.62997  1.0000 0.1269406695
H   H6        1.0  0.42519  0.06104  0.12997  1.0000 0.1269406695
H   H7        1.0  0.93896  0.42519  0.37997  1.0000 0.1269406695
H   H8        1.0  0.06104  0.57481  0.87997  1.0000 0.1269406695
H   H9        1.0  0.50000  0.59620  0.50000  1.0000 0.0954775997
H   H10       1.0  0.50000  0.40380  0.00000  1.0000 0.0954775997
H   H11       1.0  0.40380  0.50000  0.75000  1.0000 0.0954775997
H   H12       1.0  0.59620  0.50000  0.25000  1.0000 0.0954775997
C   C1        1.0  0.41050  0.68190  0.34000  1.0000 0.5911967717
C   C2        1.0  0.58950  0.31810  0.84000  1.0000 0.5911967717
C   C3        1.0  0.31810  0.41050  0.59000  1.0000 0.5911967717
C   C4        1.0  0.68190  0.58950  0.09000  1.0000 0.5911967717
C   C5        1.0  0.58950  0.68190  0.66000  1.0000 0.5911967717
C   C6        1.0  0.41050  0.31810  0.16000  1.0000 0.5911967717
C   C7        1.0  0.68190  0.41050  0.41000  1.0000 0.5911967717
C   C8        1.0  0.31810  0.58950  0.91000  1.0000 0.5911967717
C   C9        1.0  0.45530  0.75790  0.42290  1.0000 -0.0590223409
C   C10       1.0  0.54470  0.24210  0.92290  1.0000 -0.0590223409
C   C11       1.0  0.24210  0.45530  0.67290  1.0000 -0.0590223409
C   C12       1.0  0.75790  0.54470  0.17290  1.0000 -0.0590223409
C   C13       1.0  0.54470  0.75790  0.57710  1.0000 -0.0590223409
C   C14       1.0  0.45530  0.24210  0.07710  1.0000 -0.0590223409
C   C15       1.0  0.75790  0.45530  0.32710  1.0000 -0.0590223409
C   C16       1.0  0.24210  0.54470  0.82710  1.0000 -0.0590223409
C   C17       1.0  0.45510  0.89380  0.42220  1.0000 -0.0907224976
C   C18       1.0  0.54490  0.10620  0.92220  1.0000 -0.0907224976
C   C19       1.0  0.10620  0.45510  0.67220  1.0000 -0.0907224976
C   C20       1.0  0.89380  0.54490  0.17220  1.0000 -0.0907224976
C   C21       1.0  0.54490  0.89380  0.57780  1.0000 -0.0907224976
C   C22       1.0  0.45510  0.10620  0.07780  1.0000 -0.0907224976
C   C23       1.0  0.89380  0.45510  0.32780  1.0000 -0.0907224976
C   C24       1.0  0.10620  0.54490  0.82780  1.0000 -0.0907224976
C   C25       1.0  0.50000  0.96350  0.50000  1.0000 -0.0590223409
C   C26       1.0  0.50000  0.03650  0.00000  1.0000 -0.0590223409
C   C27       1.0  0.03650  0.50000  0.75000  1.0000 -0.0590223409
C   C28       1.0  0.96350  0.50000  0.25000  1.0000 -0.0590223409
C   C29       1.0  0.50000  0.68770  0.50000  1.0000 -0.1316682808
C   C30       1.0  0.50000  0.31230  0.00000  1.0000 -0.1316682808
C   C31       1.0  0.31230  0.50000  0.75000  1.0000 -0.1316682808
C   C32       1.0  0.68770  0.50000  0.25000  1.0000 -0.1316682808
C   C33       1.0  0.50000  0.10990  0.50000  1.0000 0.6456197388
C   C34       1.0  0.50000  0.89010  0.00000  1.0000 0.6456197388
C   C35       1.0  0.89010  0.50000  0.75000  1.0000 0.6456197388
C   C36       1.0  0.10990  0.50000  0.25000  1.0000 0.6456197388
O   O1        1.0  0.40430  0.73960  0.26250  1.0000 -0.6411724798
O   O2        1.0  0.59570  0.26040  0.76250  1.0000 -0.6411724798
O   O3        1.0  0.26040  0.40430  0.51250  1.0000 -0.6411724798
O   O4        1.0  0.73960  0.59570  0.01250  1.0000 -0.6411724798
O   O5        1.0  0.59570  0.73960  0.73750  1.0000 -0.6411724798
O   O6        1.0  0.40430  0.26040  0.23750  1.0000 -0.6411724798
O   O7        1.0  0.73960  0.40430  0.48750  1.0000 -0.6411724798
O   O8        1.0  0.26040  0.59570  0.98750  1.0000 -0.6411724798
O   O9        1.0  0.38470  0.57920  0.34850  1.0000 -0.5328893922
O   O10       1.0  0.61530  0.42080  0.84850  1.0000 -0.5328893922
O   O11       1.0  0.42080  0.38470  0.59850  1.0000 -0.5328893922
O   O12       1.0  0.57920  0.61530  0.09850  1.0000 -0.5328893922
O   O13       1.0  0.61530  0.57920  0.65150  1.0000 -0.5328893922
O   O14       1.0  0.38470  0.42080  0.15150  1.0000 -0.5328893922
O   O15       1.0  0.57920  0.38470  0.40150  1.0000 -0.5328893922
O   O16       1.0  0.42080  0.61530  0.90150  1.0000 -0.5328893922
O   O17       1.0  0.58170  0.15780  0.55440  1.0000 -0.6806988977
O   O18       1.0  0.41830  0.84220  0.05440  1.0000 -0.6806988977
O   O19       1.0  0.84220  0.58170  0.80440  1.0000 -0.6806988977
O   O20       1.0  0.15780  0.41830  0.30440  1.0000 -0.6806988977
O   O21       1.0  0.41830  0.15780  0.44560  1.0000 -0.6806988977
O   O22       1.0  0.58170  0.84220  0.94560  1.0000 -0.6806988977
O   O23       1.0  0.15780  0.58170  0.19560  1.0000 -0.6806988977
O   O24       1.0  0.84220  0.41830  0.69560  1.0000 -0.6806988977
