# DDEC6 charges by PACMAN v1.1 (https://github.com/mtap-research/PACMAN-charge/)
data_2023[Zn][sql]2[ASR]14
_chemical_formula_sum              "Zn2 H36 C60 N8 O8"
_cell_length_a       6.826
_cell_length_b       12.85
_cell_length_c       17.29
_cell_angle_alpha    110.09
_cell_angle_beta     97.78
_cell_angle_gamma    89.33

_symmetry_space_group_name_H-M    "P 1"
_symmetry_Int_Tables_number       1

loop_
  _symmetry_equiv_pos_as_xyz
  'x, y, z'

loop_
  _atom_site_type_symbol
  _atom_site_label
  _atom_site_symmetry_multiplicity
  _atom_site_fract_x
  _atom_site_fract_y
  _atom_site_fract_z
  _atom_site_occupancy
  _atom_site_charge
Zn  Zn1       1.0  0.80124  0.99366  0.80111  1.0000 0.7547718739
Zn  Zn2       1.0  0.19876  0.00634  0.19889  1.0000 0.7547718739
H   H1        1.0  0.18464  0.19027  0.77026  1.0000 0.1385245049
H   H2        1.0  0.81536  0.80973  0.22974  1.0000 0.1385245049
H   H3        1.0  0.05580  0.27482  0.68390  1.0000 0.1197220883
H   H4        1.0  0.94420  0.72518  0.31610  1.0000 0.1298836177
H   H5        1.0  0.37500  0.05963  0.80327  1.0000 0.1117310269
H   H6        1.0  0.62500  0.94037  0.19673  1.0000 0.1117310269
H   H7        1.0  0.24118  0.86758  0.95236  1.0000 0.1197220883
H   H8        1.0  0.75882  0.13242  0.04764  1.0000 0.1197220883
H   H9        1.0  0.69131  0.54519  0.65592  1.0000 0.1197220883
H   H10       1.0  0.30869  0.45481  0.34408  1.0000 0.1197220883
H   H11       1.0  0.45743  0.17381  0.98741  1.0000 0.1117310269
H   H12       1.0  0.54257  0.82619  0.01259  1.0000 0.1117310269
H   H13       1.0  0.61120  0.64349  0.84192  1.0000 0.1385245049
H   H14       1.0  0.38880  0.35651  0.15808  1.0000 0.1385245049
H   H15       1.0  0.79171  0.80293  0.86028  1.0000 0.1197220883
H   H16       1.0  0.20829  0.19707  0.13972  1.0000 0.1197220883
H   H17       1.0  0.66373  0.96239  0.48826  1.0000 0.1197220883
H   H18       1.0  0.33627  0.03761  0.51174  1.0000 0.1197220883
H   H19       1.0  0.02521  0.58512  0.67735  1.0000 0.1298836177
H   H20       1.0  0.97479  0.41488  0.32265  1.0000 0.1298836177
H   H21       1.0  0.79100  0.98100  0.37200  1.0000 0.1197220883
H   H22       1.0  0.20900  0.01900  0.62800  1.0000 0.1197220883
H   H23       1.0  0.85821  0.23707  0.83046  1.0000 0.1197220883
H   H24       1.0  0.14179  0.76293  0.16954  1.0000 0.1197220883
H   H25       1.0  0.68204  0.37314  0.79806  1.0000 0.1385245049
H   H26       1.0  0.31796  0.62686  0.20194  1.0000 0.1385245049
H   H27       1.0  0.40616  0.87822  0.70061  1.0000 0.1197220883
H   H28       1.0  0.59384  0.12178  0.29939  1.0000 0.1197220883
H   H29       1.0  0.21196  0.72349  0.68009  1.0000 0.1385245049
H   H30       1.0  0.78804  0.27651  0.31991  1.0000 0.1385245049
H   H31       1.0  0.38825  0.49775  0.57317  1.0000 0.1197220883
H   H32       1.0  0.61175  0.50225  0.42683  1.0000 0.1197220883
H   H33       1.0  0.85742  0.22990  0.55757  1.0000 0.1197220883
H   H34       1.0  0.14258  0.77010  0.44243  1.0000 0.1197220883
H   H35       1.0  0.55665  0.18278  0.47398  1.0000 0.1298836177
H   H36       1.0  0.44335  0.81722  0.52602  1.0000 0.1298836177
C   C1        1.0  0.91780  0.99090  0.56890  1.0000 -0.0221391948
C   C2        1.0  0.08220  0.00910  0.43110  1.0000 -0.0221391948
C   C3        1.0  0.38860  0.66320  0.75840  1.0000 0.089863656
C   C4        1.0  0.61140  0.33680  0.24160  1.0000 0.089863656
C   C5        1.0  0.82730  0.98400  0.64250  1.0000 0.5582750296
C   C6        1.0  0.17270  0.01600  0.35750  1.0000 0.5582750296
C   C7        1.0  0.12510  0.05050  0.92040  1.0000 0.552831695
C   C8        1.0  0.87490  0.94950  0.07960  1.0000 0.552831695
C   C9        1.0  0.80720  0.39290  0.61640  1.0000 0.0830318709
C   C10       1.0  0.19280  0.60710  0.38360  1.0000 0.0830318709
C   C11       1.0  0.32160  0.20060  0.78080  1.0000 -0.1691697309
C   C12       1.0  0.67840  0.79940  0.21920  1.0000 -0.1691697309
C   C13       1.0  0.31760  0.02390  0.96270  1.0000 -0.0221391948
C   C14       1.0  0.68240  0.97610  0.03730  1.0000 -0.0221391948
C   C15       1.0  0.29290  0.37810  0.74820  1.0000 0.2115495955
C   C16       1.0  0.70710  0.62190  0.25180  1.0000 0.2115495955
C   C17       1.0  0.41030  0.29590  0.77670  1.0000 0.0984868251
C   C18       1.0  0.58970  0.70410  0.22330  1.0000 0.0984868251
C   C19       1.0  0.10800  0.34660  0.69820  1.0000 -0.2313416744
C   C20       1.0  0.89200  0.65340  0.30180  1.0000 -0.2313416744
C   C21       1.0  0.43730  0.12200  0.80050  1.0000 0.0984868251
C   C22       1.0  0.56270  0.87800  0.19950  1.0000 0.0984868251
C   C23       1.0  0.34480  0.92050  0.97120  1.0000 -0.1036090622
C   C24       1.0  0.65520  0.07950  0.02880  1.0000 -0.1036090622
C   C25       1.0  0.66420  0.47270  0.61990  1.0000 -0.1401836978
C   C26       1.0  0.33580  0.52730  0.38010  1.0000 -0.1401836978
C   C27       1.0  0.00310  0.42430  0.67040  1.0000 0.1197220883
C   C28       1.0  0.99690  0.57570  0.32960  1.0000 0.1197220883
C   C29       1.0  0.47460  0.10430  0.99230  1.0000 -0.1203644345
C   C30       1.0  0.52540  0.89570  0.00770  1.0000 -0.1254435996
C   C31       1.0  0.56570  0.68970  0.81270  1.0000 -0.1811712602
C   C32       1.0  0.43430  0.31030  0.18730  1.0000 -0.1811712602
C   C33       1.0  0.67500  0.78630  0.82310  1.0000 0.0984868251
C   C34       1.0  0.32500  0.21370  0.17690  1.0000 0.0984868251
C   C35       1.0  0.27770  0.55530  0.74060  1.0000 0.2013739129
C   C36       1.0  0.72230  0.44470  0.25940  1.0000 0.2013739129
C   C37       1.0  0.79870  0.97760  0.49330  1.0000 -0.10941223
C   C38       1.0  0.20130  0.02240  0.50670  1.0000 -0.10941223
C   C39       1.0  0.09170  0.53080  0.69360  1.0000 -0.2313416744
C   C40       1.0  0.90830  0.46920  0.30640  1.0000 -0.2313416744
C   C41       1.0  0.44340  0.33590  0.51550  1.0000 0.0579898437
C   C42       1.0  0.55660  0.66410  0.48450  1.0000 0.0579898437
C   C43       1.0  0.87740  0.98670  0.42520  1.0000 -0.1203644345
C   C44       1.0  0.12260  0.01330  0.57480  1.0000 -0.1203644345
C   C45       1.0  0.72160  0.22690  0.81640  1.0000 0.089863656
C   C46       1.0  0.27840  0.77310  0.18360  1.0000 0.089863656
C   C47       1.0  0.61690  0.30960  0.79730  1.0000 -0.1691697309
C   C48       1.0  0.38310  0.69040  0.20270  1.0000 -0.1691697309
C   C49       1.0  0.44780  0.83100  0.72950  1.0000 0.089863656
C   C50       1.0  0.55220  0.16900  0.27050  1.0000 0.089863656
C   C51       1.0  0.32980  0.73720  0.71650  1.0000 -0.1811712602
C   C52       1.0  0.67020  0.26280  0.28350  1.0000 -0.1811712602
C   C53       1.0  0.48330  0.44460  0.57020  1.0000 -0.1401836978
C   C54       1.0  0.51670  0.55540  0.42980  1.0000 -0.1401836978
C   C55       1.0  0.76320  0.28350  0.56050  1.0000 -0.1254435996
C   C56       1.0  0.23680  0.71650  0.43950  1.0000 -0.1254435996
C   C57       1.0  0.58400  0.25500  0.51060  1.0000 -0.1203644345
C   C58       1.0  0.41600  0.74500  0.48940  1.0000 -0.1203644345
C   C59       1.0  0.25220  0.30920  0.46080  1.0000 0.270661146
C   C60       1.0  0.74780  0.69080  0.53920  1.0000 0.270661146
N   N1        1.0  0.61980  0.85660  0.78200  1.0000 -0.2404072577
N   N2        1.0  0.38020  0.14340  0.21800  1.0000 -0.2404072577
N   N3        1.0  0.63680  0.13150  0.81600  1.0000 -0.2404072577
N   N4        1.0  0.36320  0.86850  0.18400  1.0000 -0.2404072577
N   N5        1.0  0.37680  0.48050  0.76850  1.0000 -0.3463321621
N   N6        1.0  0.62320  0.51950  0.23150  1.0000 -0.3463321621
N   N7        1.0  0.10480  0.29230  0.41890  1.0000 -0.3569398666
N   N8        1.0  0.89520  0.70770  0.58110  1.0000 -0.3569398666
O   O1        1.0  0.00260  0.96650  0.88261  1.0000 -0.5601730043
O   O2        1.0  0.99740  0.03350  0.11739  1.0000 -0.5601730043
O   O3        1.0  0.64600  0.96690  0.63635  1.0000 -0.5601730043
O   O4        1.0  0.35400  0.03310  0.36365  1.0000 -0.5601730043
O   O5        1.0  0.94810  0.99800  0.71051  1.0000 -0.5601730043
O   O6        1.0  0.05190  0.00200  0.28949  1.0000 -0.5601730043
O   O7        1.0  0.09460  0.14520  0.91950  1.0000 -0.5601730043
O   O8        1.0  0.90540  0.85480  0.08050  1.0000 -0.5601730043
