# DDEC6 charges by PACMAN v1.1 (https://github.com/mtap-research/PACMAN-charge/)
data_2023[Ti][hcb]2[ASR]1
_chemical_formula_sum              "Ti4 H38 C38 S6 O22"
_cell_length_a       11.8121
_cell_length_b       13.662
_cell_length_c       13.8796
_cell_angle_alpha    107.209
_cell_angle_beta     99.02
_cell_angle_gamma    91.229

_symmetry_space_group_name_H-M    "P 1"
_symmetry_Int_Tables_number       1

loop_
  _symmetry_equiv_pos_as_xyz
  'x, y, z'

loop_
  _atom_site_type_symbol
  _atom_site_label
  _atom_site_symmetry_multiplicity
  _atom_site_fract_x
  _atom_site_fract_y
  _atom_site_fract_z
  _atom_site_occupancy
  _atom_site_charge
Ti  Ti1       1.0  0.32004  0.64023  0.76545  1.0000 1.567467836
Ti  Ti2       1.0  0.67996  0.35977  0.23455  1.0000 1.557309178
Ti  Ti3       1.0  0.19199  0.75808  0.61813  1.0000 1.6833233511
Ti  Ti4       1.0  0.80801  0.24192  0.38187  1.0000 1.6833233511
H   H1        1.0  0.38616  0.31980  0.77007  1.0000 0.1088226105
H   H2        1.0  0.61384  0.68020  0.22993  1.0000 0.1088226105
H   H3        1.0  0.68522  0.39506  0.96722  1.0000 0.1296052436
H   H4        1.0  0.31478  0.60494  0.03278  1.0000 0.1296052436
H   H5        1.0  0.06318  0.53385  0.68292  1.0000 0.1196035401
H   H6        1.0  0.93682  0.46615  0.31708  1.0000 0.1196035401
H   H7        1.0  0.00163  0.60188  0.61663  1.0000 0.0803700176
H   H8        1.0  0.99837  0.39812  0.38337  1.0000 0.0803700176
H   H9        1.0  0.37845  0.86029  0.04853  1.0000 0.1196035401
H   H10       1.0  0.62155  0.13971  0.95147  1.0000 0.1196035401
H   H11       1.0  0.31876  0.00677  0.78081  1.0000 0.1196035401
H   H12       1.0  0.68124  0.99323  0.21919  1.0000 0.1196035401
H   H13       1.0  0.43406  0.72449  0.57208  1.0000 0.0803700176
H   H14       1.0  0.56594  0.27551  0.42792  1.0000 0.0803700176
H   H15       1.0  0.49493  0.67252  0.65423  1.0000 0.0699451814
H   H16       1.0  0.50507  0.32748  0.34577  1.0000 0.0699451814
H   H17       1.0  0.48491  0.25714  0.62253  1.0000 0.1088226105
H   H18       1.0  0.51509  0.74286  0.37747  1.0000 0.1088226105
H   H19       1.0  0.51941  0.87920  0.18689  1.0000 0.1088226105
H   H20       1.0  0.48059  0.12080  0.81311  1.0000 0.1088226105
H   H21       1.0  0.63190  0.17435  0.55273  1.0000 0.1088226105
H   H22       1.0  0.36810  0.82565  0.44727  1.0000 0.1088226105
H   H23       1.0  0.31319  0.16551  0.62260  1.0000 0.1296052436
H   H24       1.0  0.68681  0.83449  0.37740  1.0000 0.1296052436
H   H25       1.0  0.60290  0.82043  0.66517  1.0000 0.1296052436
H   H26       1.0  0.39710  0.17957  0.33483  1.0000 0.1296052436
H   H27       1.0  0.55333  0.83608  0.76920  1.0000 0.1389997428
H   H28       1.0  0.44667  0.16392  0.23080  1.0000 0.1389997428
H   H29       1.0  0.49442  0.88702  0.68558  1.0000 0.1389997428
H   H30       1.0  0.50558  0.11298  0.31442  1.0000 0.1389997428
H   H31       1.0  0.98900  0.73200  0.76700  1.0000 0.1389997428
H   H32       1.0  0.01100  0.26800  0.23300  1.0000 0.1389997428
H   H33       1.0  0.05100  0.66200  0.83200  1.0000 0.1807007467
H   H34       1.0  0.94900  0.33800  0.16800  1.0000 0.1807007467
H   H35       1.0  0.57812  0.29208  0.81812  1.0000 0.100879771
H   H36       1.0  0.42188  0.70792  0.18188  1.0000 0.100879771
H   H37       1.0  0.91400  0.62300  0.76000  1.0000 0.1196035401
H   H38       1.0  0.08600  0.37700  0.24000  1.0000 0.1196035401
C   C1        1.0  0.37850  0.44200  0.89210  1.0000 -0.1568013529
C   C2        1.0  0.62150  0.55800  0.10790  1.0000 -0.1568013529
C   C3        1.0  0.44160  0.50920  0.98570  1.0000 0.0699451814
C   C4        1.0  0.55840  0.49080  0.01430  1.0000 0.0699451814
C   C5        1.0  0.42930  0.36360  0.83210  1.0000 -0.1072496499
C   C6        1.0  0.57070  0.63640  0.16790  1.0000 -0.1072496499
C   C7        1.0  0.60730  0.40780  0.94890  1.0000 -0.1178629572
C   C8        1.0  0.39270  0.59220  0.05110  1.0000 -0.1178629572
C   C9        1.0  0.45080  0.96500  0.99040  1.0000 0.0615597342
C   C10       1.0  0.54920  0.03500  0.00960  1.0000 0.0615597342
C   C11       1.0  0.44800  0.97140  0.49840  1.0000 0.0699451814
C   C12       1.0  0.55200  0.02860  0.50160  1.0000 0.0699451814
C   C13       1.0  0.35970  0.02650  0.54600  1.0000 -0.1290741737
C   C14       1.0  0.64030  0.97350  0.45400  1.0000 -0.1290741737
C   C15       1.0  0.05220  0.60510  0.68170  1.0000 0.0803700176
C   C16       1.0  0.94780  0.39490  0.31830  1.0000 0.0803700176
C   C17       1.0  0.44310  0.90730  0.05990  1.0000 -0.1387803847
C   C18       1.0  0.55690  0.09270  0.94010  1.0000 -0.1456471855
C   C19       1.0  0.37680  0.01310  0.83850  1.0000 -0.0912106211
C   C20       1.0  0.62320  0.98690  0.16150  1.0000 -0.0912106211
C   C21       1.0  0.45470  0.73320  0.64620  1.0000 0.0544057911
C   C22       1.0  0.54530  0.26680  0.35380  1.0000 0.0544057911
C   C23       1.0  0.47630  0.18470  0.59200  1.0000 -0.0987306063
C   C24       1.0  0.52370  0.81530  0.40800  1.0000 -0.0987306063
C   C25       1.0  0.52660  0.91860  0.14180  1.0000 -0.0845295812
C   C26       1.0  0.47340  0.08140  0.85820  1.0000 -0.0845295812
C   C27       1.0  0.36610  0.95530  0.90270  1.0000 -0.1387803847
C   C28       1.0  0.63390  0.04470  0.09730  1.0000 -0.1387803847
C   C29       1.0  0.56270  0.13610  0.54990  1.0000 -0.1387803847
C   C30       1.0  0.43730  0.86390  0.45010  1.0000 -0.1387803847
C   C31       1.0  0.99530  0.66030  0.76980  1.0000 -0.4128138894
C   C32       1.0  0.00470  0.33970  0.23020  1.0000 -0.4128138894
C   C33       1.0  0.37290  0.13020  0.59150  1.0000 -0.0987306063
C   C34       1.0  0.62710  0.86980  0.40850  1.0000 -0.0987306063
C   C35       1.0  0.53300  0.82720  0.69570  1.0000 -0.4152109946
C   C36       1.0  0.46700  0.17280  0.30430  1.0000 -0.4152109946
C   C37       1.0  0.54400  0.34700  0.86090  1.0000 -0.0987306063
C   C38       1.0  0.45600  0.65300  0.13910  1.0000 -0.0987306063
S   S1        1.0  0.23875  0.87316  0.87452  1.0000 1.2229572808
S   S2        1.0  0.76125  0.12684  0.12548  1.0000 1.2229572808
S   S3        1.0  0.23311  0.45875  0.85078  1.0000 1.1881256973
S   S4        1.0  0.76689  0.54125  0.14922  1.0000 1.1881256973
S   S5        1.0  0.22767  0.96179  0.54685  1.0000 1.1831471598
S   S6        1.0  0.77233  0.03821  0.45315  1.0000 1.1831471598
O   O1        1.0  0.35029  0.73885  0.69088  1.0000 -0.7904360021
O   O2        1.0  0.64971  0.26115  0.30912  1.0000 -0.7904360021
O   O3        1.0  0.16170  0.65569  0.68577  1.0000 -0.8082355286
O   O4        1.0  0.83830  0.34431  0.31423  1.0000 -0.8082355286
O   O5        1.0  0.27360  0.77186  0.87839  1.0000 -0.6710270817
O   O6        1.0  0.72640  0.22814  0.12161  1.0000 -0.6710270817
O   O7        1.0  0.18340  0.87030  0.77150  1.0000 -0.6710270817
O   O8        1.0  0.81660  0.12970  0.22850  1.0000 -0.6710270817
O   O9        1.0  0.23400  0.56600  0.84370  1.0000 -0.7314060057
O   O10       1.0  0.76600  0.43400  0.15630  1.0000 -0.7314060057
O   O11       1.0  0.26810  0.88590  0.60050  1.0000 -0.7314060057
O   O12       1.0  0.73190  0.11410  0.39950  1.0000 -0.7314060057
O   O13       1.0  0.17090  0.45240  0.93060  1.0000 -0.5493144517
O   O14       1.0  0.82910  0.54760  0.06940  1.0000 -0.5493144517
O   O15       1.0  0.19540  0.38260  0.75330  1.0000 -0.5962055052
O   O16       1.0  0.80460  0.61740  0.24670  1.0000 -0.5926465119
O   O17       1.0  0.17090  0.91820  0.95130  1.0000 -0.5313265348
O   O18       1.0  0.82910  0.08180  0.04870  1.0000 -0.5313265348
O   O19       1.0  0.17630  0.91190  0.44330  1.0000 -0.5493144517
O   O20       1.0  0.82370  0.08810  0.55670  1.0000 -0.5493144517
O   O21       1.0  0.16190  0.03700  0.60690  1.0000 -0.5493144517
O   O22       1.0  0.83810  0.96300  0.39310  1.0000 -0.5493144517
