# DDEC6 charges by PACMAN v1.1 (https://github.com/mtap-research/PACMAN-charge/)
data_2023[Eu][mog]3[ASR]2
_chemical_formula_sum              "Eu2 H34 C60 N4 O12"
_cell_length_a       11.2602
_cell_length_b       12.0576
_cell_length_c       12.2932
_cell_angle_alpha    78.341
_cell_angle_beta     78.639
_cell_angle_gamma    63.154

_symmetry_space_group_name_H-M    "P 1"
_symmetry_Int_Tables_number       1

loop_
  _symmetry_equiv_pos_as_xyz
  'x, y, z'

loop_
  _atom_site_type_symbol
  _atom_site_label
  _atom_site_symmetry_multiplicity
  _atom_site_fract_x
  _atom_site_fract_y
  _atom_site_fract_z
  _atom_site_occupancy
  _atom_site_charge
Eu  Eu1       1.0  0.56662  0.00360  0.19317  1.0000 1.9159374571
Eu  Eu2       1.0  0.43338  0.99640  0.80683  1.0000 1.9159374571
H   H1        1.0  0.74535  0.04423  0.93611  1.0000 0.1185221531
H   H2        1.0  0.25465  0.95577  0.06389  1.0000 0.1185221531
H   H3        1.0  0.90319  0.11310  0.84417  1.0000 0.1311486399
H   H4        1.0  0.09681  0.88690  0.15583  1.0000 0.1311486399
H   H5        1.0  0.99282  0.20012  0.93467  1.0000 0.1311486399
H   H6        1.0  0.00718  0.79988  0.06533  1.0000 0.1311486399
H   H7        1.0  0.99559  0.27018  0.11800  1.0000 0.1185221531
H   H8        1.0  0.00441  0.72982  0.88200  1.0000 0.1185221531
H   H9        1.0  0.91281  0.29655  0.30092  1.0000 0.1311486399
H   H10       1.0  0.08719  0.70345  0.69908  1.0000 0.1311486399
H   H11       1.0  0.74248  0.28742  0.46444  1.0000 0.1185221531
H   H12       1.0  0.25752  0.71258  0.53556  1.0000 0.1185221531
H   H13       1.0  0.56704  0.23079  0.54397  1.0000 0.13869049
H   H14       1.0  0.43296  0.76921  0.45603  1.0000 0.13869049
H   H15       1.0  0.49872  0.13360  0.43692  1.0000 0.1185221531
H   H16       1.0  0.50128  0.86640  0.56308  1.0000 0.1185221531
H   H17       1.0  0.66903  0.61271  0.45718  1.0000 0.1185221531
H   H18       1.0  0.33097  0.38729  0.54282  1.0000 0.1185221531
H   H19       1.0  0.99393  0.68731  0.34087  1.0000 0.1185221531
H   H20       1.0  0.00607  0.31269  0.65913  1.0000 0.1185221531
H   H21       1.0  0.20426  0.55896  0.42436  1.0000 0.1185221531
H   H22       1.0  0.79574  0.44104  0.57564  1.0000 0.1185221531
H   H23       1.0  0.14092  0.94936  0.30118  1.0000 0.1185221531
H   H24       1.0  0.85908  0.05064  0.69882  1.0000 0.1185221531
H   H25       1.0  0.22009  0.12633  0.50443  1.0000 0.1185221531
H   H26       1.0  0.77991  0.87367  0.49557  1.0000 0.1185221531
H   H27       1.0  0.05194  0.11066  0.63912  1.0000 0.1185221531
H   H28       1.0  0.94806  0.88934  0.36088  1.0000 0.1185221531
H   H29       1.0  0.75640  0.66380  0.82010  1.0000 0.1311486399
H   H30       1.0  0.24360  0.33620  0.17990  1.0000 0.1311486399
H   H31       1.0  0.83878  0.68191  0.12208  1.0000 0.1185221531
H   H32       1.0  0.16122  0.31809  0.87792  1.0000 0.1185221531
H   H33       1.0  0.04509  0.51540  0.20021  1.0000 0.1140916979
H   H34       1.0  0.95491  0.48460  0.79979  1.0000 0.1140916979
C   C1        1.0  0.77770  0.08270  0.97590  1.0000 0.1029648891
C   C2        1.0  0.22230  0.91730  0.02410  1.0000 0.1029648891
C   C3        1.0  0.87350  0.12260  0.92100  1.0000 -0.121756647
C   C4        1.0  0.12650  0.87740  0.07900  1.0000 -0.121756647
C   C5        1.0  0.92580  0.17430  0.97320  1.0000 -0.0919730677
C   C6        1.0  0.07420  0.82570  0.02680  1.0000 -0.0919730677
C   C7        1.0  0.87870  0.18970  0.08800  1.0000 0.0489775816
C   C8        1.0  0.12130  0.81030  0.91200  1.0000 0.0489775816
C   C9        1.0  0.77740  0.15110  0.13920  1.0000 0.1311486399
C   C10       1.0  0.22260  0.84890  0.86080  1.0000 0.1311486399
C   C11       1.0  0.92670  0.24510  0.15230  1.0000 -0.1435637439
C   C12       1.0  0.07330  0.75490  0.84770  1.0000 -0.1435637439
C   C13       1.0  0.87690  0.26240  0.25980  1.0000 -0.1316563377
C   C14       1.0  0.12310  0.73760  0.74020  1.0000 -0.1316563377
C   C15       1.0  0.76980  0.22920  0.31210  1.0000 0.0489775816
C   C16       1.0  0.23020  0.77080  0.68790  1.0000 0.0489775816
C   C17       1.0  0.72230  0.17130  0.25340  1.0000 0.1311486399
C   C18       1.0  0.27770  0.82870  0.74660  1.0000 0.1311486399
C   C19       1.0  0.71140  0.24990  0.42240  1.0000 -0.0919730677
C   C20       1.0  0.28860  0.75010  0.57760  1.0000 -0.0919730677
C   C21       1.0  0.60890  0.21590  0.47000  1.0000 -0.1316563377
C   C22       1.0  0.39110  0.78410  0.53000  1.0000 -0.1316563377
C   C23       1.0  0.56860  0.15790  0.40430  1.0000 0.1311486399
C   C24       1.0  0.43140  0.84210  0.59570  1.0000 0.1311486399
C   C25       1.0  0.73610  0.78370  0.31750  1.0000 0.5548769569
C   C26       1.0  0.26390  0.21630  0.68250  1.0000 0.5548769569
C   C27       1.0  0.81970  0.66900  0.38770  1.0000 -0.0214828236
C   C28       1.0  0.18030  0.33100  0.61230  1.0000 -0.0214828236
C   C29       1.0  0.76040  0.59320  0.45900  1.0000 -0.1069371069
C   C30       1.0  0.23960  0.40680  0.54100  1.0000 -0.1069371069
C   C31       1.0  0.95350  0.63880  0.38990  1.0000 -0.1629573071
C   C32       1.0  0.04650  0.36120  0.61010  1.0000 -0.1629573071
C   C33       1.0  0.03090  0.53600  0.46460  1.0000 0.0794072634
C   C34       1.0  0.96910  0.46400  0.53540  1.0000 0.0794072634
C   C35       1.0  0.16480  0.50780  0.47010  1.0000 -0.1505301683
C   C36       1.0  0.83520  0.49220  0.52990  1.0000 -0.1505301683
C   C37       1.0  0.31610  0.03520  0.30960  1.0000 0.5683114862
C   C38       1.0  0.68390  0.96480  0.69040  1.0000 0.5683114862
C   C39       1.0  0.19570  0.03720  0.38940  1.0000 -0.0088785227
C   C40       1.0  0.80430  0.96280  0.61060  1.0000 -0.0088785227
C   C41       1.0  0.12160  0.98230  0.36980  1.0000 -0.166317437
C   C42       1.0  0.87840  0.01770  0.63020  1.0000 -0.166317437
C   C43       1.0  0.16820  0.08750  0.49120  1.0000 -0.0919730677
C   C44       1.0  0.83180  0.91250  0.50880  1.0000 -0.0919730677
C   C45       1.0  0.06740  0.08000  0.56990  1.0000 -0.1505301683
C   C46       1.0  0.93260  0.92000  0.43010  1.0000 -0.1505301683
C   C47       1.0  0.98500  0.02700  0.54970  1.0000 0.0679050942
C   C48       1.0  0.01500  0.97300  0.45030  1.0000 0.0679050942
C   C49       1.0  0.65090  0.80600  0.98730  1.0000 0.663036499
C   C50       1.0  0.34910  0.19400  0.01270  1.0000 0.663036499
C   C51       1.0  0.77980  0.68950  0.97470  1.0000 -0.0214828236
C   C52       1.0  0.22020  0.31050  0.02530  1.0000 -0.0214828236
C   C53       1.0  0.81410  0.63000  0.87700  1.0000 -0.121756647
C   C54       1.0  0.18590  0.37000  0.12300  1.0000 -0.121756647
C   C55       1.0  0.86270  0.64040  0.05780  1.0000 -0.1629573071
C   C56       1.0  0.13730  0.35960  0.94220  1.0000 -0.1629573071
C   C57       1.0  0.98160  0.53030  0.04910  1.0000 0.0679050942
C   C58       1.0  0.01840  0.46970  0.95090  1.0000 0.0679050942
C   C59       1.0  0.06870  0.47650  0.13430  1.0000 -0.1505301683
C   C60       1.0  0.93130  0.52350  0.86570  1.0000 -0.1505301683
N   N1        1.0  0.72850  0.09650  0.08370  1.0000 -0.3738299871
N   N2        1.0  0.27150  0.90350  0.91630  1.0000 -0.3738299871
N   N3        1.0  0.62190  0.13540  0.30040  1.0000 -0.3812738175
N   N4        1.0  0.37810  0.86460  0.69960  1.0000 -0.3812738175
O   O1        1.0  0.78730  0.85190  0.25320  1.0000 -0.6485659345
O   O2        1.0  0.21270  0.14810  0.74680  1.0000 -0.6485659345
O   O3        1.0  0.61160  0.81250  0.32430  1.0000 -0.6231598521
O   O4        1.0  0.38840  0.18750  0.67570  1.0000 -0.6231598521
O   O5        1.0  0.38280  0.08580  0.33340  1.0000 -0.6354704166
O   O6        1.0  0.61720  0.91420  0.66667  1.0000 -0.6346426869
O   O7        1.0  0.35160  0.98110  0.22300  1.0000 -0.6052771473
O   O8        1.0  0.64840  0.01890  0.77700  1.0000 -0.6045938397
O   O9        1.0  0.63920  0.87350  0.05700  1.0000 -0.6485659345
O   O10       1.0  0.36080  0.12650  0.94300  1.0000 -0.6485659345
O   O11       1.0  0.56330  0.82780  0.92660  1.0000 -0.6485659345
O   O12       1.0  0.43670  0.17220  0.07340  1.0000 -0.6485659345
