# DDEC6 charges by PACMAN v1.1 (https://github.com/mtap-research/PACMAN-charge/)
data_2023[Zn][sql]2[ASR]21
_chemical_formula_sum              "Zn2 H36 C60 N8 O8"
_cell_length_a       6.782
_cell_length_b       12.752
_cell_length_c       17.449
_cell_angle_alpha    109.832
_cell_angle_beta     97.383
_cell_angle_gamma    88.819

_symmetry_space_group_name_H-M    "P 1"
_symmetry_Int_Tables_number       1

loop_
  _symmetry_equiv_pos_as_xyz
  'x, y, z'

loop_
  _atom_site_type_symbol
  _atom_site_label
  _atom_site_symmetry_multiplicity
  _atom_site_fract_x
  _atom_site_fract_y
  _atom_site_fract_z
  _atom_site_occupancy
  _atom_site_charge
Zn  Zn1       1.0  0.19624  0.00990  0.20133  1.0000 0.7602105221
Zn  Zn2       1.0  0.80376  0.99010  0.79867  1.0000 0.7602105221
H   H1        1.0  0.95533  0.72290  0.31576  1.0000 0.1204627199
H   H2        1.0  0.04467  0.27710  0.68424  1.0000 0.1204627199
H   H3        1.0  0.22524  0.19376  0.13619  1.0000 0.1204627199
H   H4        1.0  0.77476  0.80624  0.86381  1.0000 0.1204627199
H   H5        1.0  0.79443  0.98155  0.37761  1.0000 0.1204627199
H   H6        1.0  0.20557  0.01845  0.62239  1.0000 0.1204627199
H   H7        1.0  0.82142  0.81315  0.23510  1.0000 0.1410155178
H   H8        1.0  0.17858  0.18685  0.76490  1.0000 0.1410155178
H   H9        1.0  0.40924  0.34987  0.15072  1.0000 0.1410155178
H   H10       1.0  0.59076  0.65013  0.84928  1.0000 0.1410155178
H   H11       1.0  0.66305  0.96242  0.48806  1.0000 0.1204627199
H   H12       1.0  0.33695  0.03758  0.51194  1.0000 0.1204627199
H   H13       1.0  0.75785  0.13243  0.04197  1.0000 0.1204627199
H   H14       1.0  0.24215  0.86757  0.95803  1.0000 0.1204627199
H   H15       1.0  0.45893  0.16942  0.97811  1.0000 0.1100162065
H   H16       1.0  0.54107  0.83058  0.02189  1.0000 0.1100162065
H   H17       1.0  0.62958  0.94355  0.20004  1.0000 0.1100162065
H   H18       1.0  0.37042  0.05645  0.79996  1.0000 0.1100162065
H   H19       1.0  0.98715  0.41021  0.31897  1.0000 0.1322092271
H   H20       1.0  0.01285  0.58979  0.68103  1.0000 0.1322092271
H   H21       1.0  0.78822  0.27682  0.32165  1.0000 0.1410155178
H   H22       1.0  0.21178  0.72318  0.67835  1.0000 0.1410155178
H   H23       1.0  0.58757  0.12458  0.30404  1.0000 0.1204627199
H   H24       1.0  0.41243  0.87542  0.69596  1.0000 0.1204627199
H   H25       1.0  0.32245  0.62940  0.20528  1.0000 0.1322092271
H   H26       1.0  0.67755  0.37060  0.79472  1.0000 0.1322092271
H   H27       1.0  0.32137  0.44774  0.34178  1.0000 0.1100162065
H   H28       1.0  0.67863  0.55226  0.65822  1.0000 0.1100162065
H   H29       1.0  0.14500  0.76603  0.17050  1.0000 0.1204627199
H   H30       1.0  0.85500  0.23397  0.82950  1.0000 0.1204627199
H   H31       1.0  0.14949  0.76497  0.43923  1.0000 0.1204627199
H   H32       1.0  0.85051  0.23503  0.56077  1.0000 0.1204627199
H   H33       1.0  0.45404  0.81404  0.52122  1.0000 0.1322092271
H   H34       1.0  0.54596  0.18596  0.47878  1.0000 0.1322092271
H   H35       1.0  0.62244  0.49501  0.42885  1.0000 0.1204627199
H   H36       1.0  0.37756  0.50499  0.57115  1.0000 0.1204627199
C   C1        1.0  0.08320  0.00920  0.43140  1.0000 -0.0357066834
C   C2        1.0  0.91680  0.99080  0.56860  1.0000 -0.0357066834
C   C3        1.0  0.17080  0.01870  0.35990  1.0000 0.5674567303
C   C4        1.0  0.82920  0.98130  0.64010  1.0000 0.5674567303
C   C5        1.0  0.62000  0.33510  0.24080  1.0000 0.0970644435
C   C6        1.0  0.38000  0.66490  0.75920  1.0000 0.0970644435
C   C7        1.0  0.87620  0.95470  0.08430  1.0000 0.5551531395
C   C8        1.0  0.12380  0.04530  0.91570  1.0000 0.5551531395
C   C9        1.0  0.90270  0.65090  0.30090  1.0000 -0.2324566065
C   C10       1.0  0.09730  0.34910  0.69910  1.0000 -0.2324566065
C   C11       1.0  0.33790  0.21200  0.17510  1.0000 0.1100162065
C   C12       1.0  0.66210  0.78800  0.82490  1.0000 0.1100162065
C   C13       1.0  0.68130  0.97870  0.03950  1.0000 -0.0210822182
C   C14       1.0  0.31870  0.02130  0.96050  1.0000 -0.0210822182
C   C15       1.0  0.87730  0.98840  0.42590  1.0000 -0.1093997484
C   C16       1.0  0.12270  0.01160  0.57410  1.0000 -0.1093997484
C   C17       1.0  0.68420  0.80180  0.22320  1.0000 -0.1580513635
C   C18       1.0  0.31580  0.19820  0.77680  1.0000 -0.1580513635
C   C19       1.0  0.44830  0.30640  0.18310  1.0000 -0.1822460139
C   C20       1.0  0.55170  0.69360  0.81690  1.0000 -0.1822460139
C   C21       1.0  0.71510  0.62160  0.25250  1.0000 0.2172510257
C   C22       1.0  0.28490  0.37840  0.74750  1.0000 0.2172510257
C   C23       1.0  0.79840  0.97810  0.49310  1.0000 -0.1093997484
C   C24       1.0  0.20160  0.02190  0.50690  1.0000 -0.1093997484
C   C25       1.0  0.00700  0.57110  0.32580  1.0000 0.1204627199
C   C26       1.0  0.99300  0.42890  0.67420  1.0000 0.1204627199
C   C27       1.0  0.65450  0.07950  0.02530  1.0000 -0.1093997484
C   C28       1.0  0.34550  0.92050  0.97470  1.0000 -0.1093997484
C   C29       1.0  0.20370  0.60340  0.38160  1.0000 0.0895099869
C   C30       1.0  0.79630  0.39660  0.61840  1.0000 0.0895099869
C   C31       1.0  0.73300  0.44270  0.25860  1.0000 0.1948623737
C   C32       1.0  0.26700  0.55730  0.74140  1.0000 0.1948623737
C   C33       1.0  0.59840  0.70520  0.22570  1.0000 0.0895099869
C   C34       1.0  0.40160  0.29480  0.77430  1.0000 0.0895099869
C   C35       1.0  0.47590  0.10160  0.98680  1.0000 -0.1242862338
C   C36       1.0  0.52410  0.89840  0.01320  1.0000 -0.1242862338
C   C37       1.0  0.56760  0.88100  0.20320  1.0000 0.0804348817
C   C38       1.0  0.43240  0.11900  0.79680  1.0000 0.0804348817
C   C39       1.0  0.91960  0.46560  0.30350  1.0000 -0.2186435679
C   C40       1.0  0.08040  0.53440  0.69650  1.0000 -0.2186435679
C   C41       1.0  0.67210  0.26300  0.28470  1.0000 -0.1749805132
C   C42       1.0  0.32790  0.73700  0.71530  1.0000 -0.1749805132
C   C43       1.0  0.55150  0.17080  0.27350  1.0000 0.0804348817
C   C44       1.0  0.44850  0.82920  0.72650  1.0000 0.0804348817
C   C45       1.0  0.57020  0.65750  0.48140  1.0000 0.0498037791
C   C46       1.0  0.42980  0.34250  0.51860  1.0000 0.0498037791
C   C47       1.0  0.38800  0.69280  0.20540  1.0000 -0.1822460139
C   C48       1.0  0.61200  0.30720  0.79460  1.0000 -0.1822460139
C   C49       1.0  0.34680  0.52030  0.37780  1.0000 -0.1498625794
C   C50       1.0  0.65320  0.47970  0.62220  1.0000 -0.1498625794
C   C51       1.0  0.28160  0.77680  0.18590  1.0000 0.1100162065
C   C52       1.0  0.71840  0.22320  0.81410  1.0000 0.1100162065
C   C53       1.0  0.24580  0.71120  0.43600  1.0000 -0.1280507067
C   C54       1.0  0.75420  0.28880  0.56400  1.0000 -0.1280507067
C   C55       1.0  0.42740  0.74120  0.48590  1.0000 -0.1093997484
C   C56       1.0  0.57260  0.25880  0.51410  1.0000 -0.1093997484
C   C57       1.0  0.52870  0.54950  0.42960  1.0000 -0.1280507067
C   C58       1.0  0.47130  0.45050  0.57040  1.0000 -0.1280507067
C   C59       1.0  0.76220  0.68380  0.53400  1.0000 0.2716416201
C   C60       1.0  0.23780  0.31620  0.46600  1.0000 0.2716416201
N   N1        1.0  0.38200  0.14610  0.21900  1.0000 -0.2324566065
N   N2        1.0  0.61800  0.85390  0.78100  1.0000 -0.2324566065
N   N3        1.0  0.36400  0.87150  0.18780  1.0000 -0.2324566065
N   N4        1.0  0.63600  0.12850  0.81220  1.0000 -0.2324566065
N   N5        1.0  0.63040  0.51970  0.23160  1.0000 -0.3500316137
N   N6        1.0  0.36960  0.48030  0.76840  1.0000 -0.3500316137
N   N7        1.0  0.90800  0.70350  0.57500  1.0000 -0.3500316137
N   N8        1.0  0.09200  0.29650  0.42500  1.0000 -0.3500316137
O   O1        1.0  0.05310  0.00720  0.29200  1.0000 -0.5677757183
O   O2        1.0  0.94690  0.99280  0.70800  1.0000 -0.5677757183
O   O3        1.0  0.99720  0.03980  0.12060  1.0000 -0.5677757183
O   O4        1.0  0.00280  0.96020  0.87940  1.0000 -0.5677757183
O   O5        1.0  0.35730  0.03570  0.36650  1.0000 -0.5861500421
O   O6        1.0  0.64270  0.96430  0.63350  1.0000 -0.5861500421
O   O7        1.0  0.90930  0.85890  0.08680  1.0000 -0.5677757183
O   O8        1.0  0.09070  0.14110  0.91320  1.0000 -0.5677757183
