# DDEC6 charges by PACMAN v1.1 (https://github.com/mtap-research/PACMAN-charge/)
data_2023[Zn][sql]2[ASR]5
_chemical_formula_sum              "Zn2 H36 C60 N8 O8"
_cell_length_a       6.7413
_cell_length_b       12.7511
_cell_length_c       16.8565
_cell_angle_alpha    108.443
_cell_angle_beta     96.787
_cell_angle_gamma    90.292

_symmetry_space_group_name_H-M    "P 1"
_symmetry_Int_Tables_number       1

loop_
  _symmetry_equiv_pos_as_xyz
  'x, y, z'

loop_
  _atom_site_type_symbol
  _atom_site_label
  _atom_site_symmetry_multiplicity
  _atom_site_fract_x
  _atom_site_fract_y
  _atom_site_fract_z
  _atom_site_occupancy
  _atom_site_charge
Zn  Zn1       1.0  0.79556  0.98653  0.80428  1.0000 0.7458597338
Zn  Zn2       1.0  0.20444  0.01347  0.19572  1.0000 0.7458597338
H   H1        1.0  0.44341  0.17377  0.98491  1.0000 0.1108313268
H   H2        1.0  0.55659  0.82623  0.01509  1.0000 0.1108313268
H   H3        1.0  0.36390  0.04311  0.79785  1.0000 0.1108313268
H   H4        1.0  0.63610  0.95689  0.20215  1.0000 0.1108313268
H   H5        1.0  0.65623  0.96411  0.48913  1.0000 0.1197276893
H   H6        1.0  0.34377  0.03589  0.51087  1.0000 0.1197276893
H   H7        1.0  0.24404  0.86170  0.95605  1.0000 0.1197276893
H   H8        1.0  0.75596  0.13830  0.04395  1.0000 0.1197276893
H   H9        1.0  0.79453  0.98482  0.37473  1.0000 0.1197276893
H   H10       1.0  0.20547  0.01518  0.62527  1.0000 0.1197276893
H   H11       1.0  0.40809  0.87003  0.69945  1.0000 0.1108313268
H   H12       1.0  0.59191  0.12997  0.30055  1.0000 0.1108313268
H   H13       1.0  0.17119  0.17696  0.76788  1.0000 0.1385751171
H   H14       1.0  0.82881  0.82304  0.23212  1.0000 0.1385751171
H   H15       1.0  0.04672  0.26703  0.68710  1.0000 0.1197276893
H   H16       1.0  0.95328  0.73297  0.31290  1.0000 0.1197276893
H   H17       1.0  0.60384  0.63459  0.84981  1.0000 0.1385751171
H   H18       1.0  0.39616  0.36541  0.15019  1.0000 0.1385751171
H   H19       1.0  0.78766  0.79580  0.86788  1.0000 0.1197276893
H   H20       1.0  0.21234  0.20420  0.13212  1.0000 0.1197276893
H   H21       1.0  0.85423  0.23075  0.83791  1.0000 0.1197276893
H   H22       1.0  0.14577  0.76925  0.16209  1.0000 0.1197276893
H   H23       1.0  0.01659  0.58127  0.68123  1.0000 0.1290170541
H   H24       1.0  0.98341  0.41873  0.31877  1.0000 0.1290170541
H   H25       1.0  0.38163  0.49629  0.57379  1.0000 0.1197276893
H   H26       1.0  0.61837  0.50371  0.42621  1.0000 0.1197276893
H   H27       1.0  0.68574  0.54085  0.66086  1.0000 0.1108313268
H   H28       1.0  0.31426  0.45915  0.33914  1.0000 0.1108313268
H   H29       1.0  0.20805  0.71442  0.67997  1.0000 0.1385751171
H   H30       1.0  0.79195  0.28558  0.32003  1.0000 0.1385751171
H   H31       1.0  0.85847  0.22793  0.55905  1.0000 0.1197276893
H   H32       1.0  0.14153  0.77207  0.44095  1.0000 0.1197276893
H   H33       1.0  0.67559  0.36950  0.80679  1.0000 0.1385751171
H   H34       1.0  0.32441  0.63050  0.19321  1.0000 0.1385751171
H   H35       1.0  0.55301  0.18190  0.47271  1.0000 0.1290170541
H   H36       1.0  0.44699  0.81810  0.52729  1.0000 0.1290170541
C   C1        1.0  0.91610  0.98877  0.56942  1.0000 -0.0256452533
C   C2        1.0  0.08390  0.01123  0.43058  1.0000 -0.0256452533
C   C3        1.0  0.11660  0.04310  0.92214  1.0000 0.5444073593
C   C4        1.0  0.88340  0.95690  0.07786  1.0000 0.5444073593
C   C5        1.0  0.31330  0.02046  0.96395  1.0000 -0.0256452533
C   C6        1.0  0.68670  0.97954  0.03605  1.0000 -0.0256452533
C   C7        1.0  0.46670  0.10310  0.99091  1.0000 -0.1184970284
C   C8        1.0  0.53330  0.89690  0.00909  1.0000 -0.1184970284
C   C9        1.0  0.42820  0.10982  0.79832  1.0000 0.0960296159
C   C10       1.0  0.57180  0.89018  0.20168  1.0000 0.0960296159
C   C11       1.0  0.79610  0.97900  0.49377  1.0000 -0.1184970284
C   C12       1.0  0.20390  0.02100  0.50623  1.0000 -0.112059396
C   C13       1.0  0.34800  0.91780  0.97371  1.0000 -0.112059396
C   C14       1.0  0.65200  0.08220  0.02629  1.0000 -0.112059396
C   C15       1.0  0.28520  0.37021  0.75158  1.0000 0.2024632385
C   C16       1.0  0.71480  0.62979  0.24842  1.0000 0.2024632385
C   C17       1.0  0.87850  0.99075  0.42549  1.0000 -0.1184970284
C   C18       1.0  0.12150  0.00925  0.57451  1.0000 -0.1184970284
C   C19       1.0  0.38470  0.65498  0.76207  1.0000 0.0960296159
C   C20       1.0  0.61530  0.34502  0.23793  1.0000 0.0960296159
C   C21       1.0  0.44720  0.82170  0.73077  1.0000 0.0909390459
C   C22       1.0  0.55280  0.17830  0.26923  1.0000 0.0909390459
C   C23       1.0  0.80170  0.38881  0.61888  1.0000 0.0818707747
C   C24       1.0  0.19830  0.61119  0.38112  1.0000 0.0818707747
C   C25       1.0  0.31230  0.18898  0.78010  1.0000 -0.1695037456
C   C26       1.0  0.68770  0.81102  0.21990  1.0000 -0.1695037456
C   C27       1.0  0.82320  0.97901  0.64357  1.0000 0.5511846458
C   C28       1.0  0.17680  0.02099  0.35643  1.0000 0.5511846458
C   C29       1.0  0.40220  0.28739  0.77955  1.0000 0.1108313268
C   C30       1.0  0.59780  0.71261  0.22045  1.0000 0.1108313268
C   C31       1.0  0.10110  0.34055  0.70190  1.0000 -0.2213751311
C   C32       1.0  0.89890  0.65945  0.29810  1.0000 -0.2213751311
C   C33       1.0  0.55990  0.68211  0.81842  1.0000 -0.1808520267
C   C34       1.0  0.44010  0.31789  0.18158  1.0000 -0.1808520267
C   C35       1.0  0.27250  0.54757  0.74486  1.0000 0.2024632385
C   C36       1.0  0.72750  0.45243  0.25514  1.0000 0.2024632385
C   C37       1.0  0.99680  0.41844  0.67394  1.0000 0.1197276893
C   C38       1.0  0.00320  0.58156  0.32606  1.0000 0.1197276893
C   C39       1.0  0.66960  0.77814  0.82857  1.0000 0.0909390459
C   C40       1.0  0.33040  0.22186  0.17143  1.0000 0.0909390459
C   C41       1.0  0.71410  0.21910  0.82139  1.0000 0.0818707747
C   C42       1.0  0.28590  0.78090  0.17861  1.0000 0.0818707747
C   C43       1.0  0.08450  0.52474  0.69744  1.0000 -0.228823248
C   C44       1.0  0.91550  0.47526  0.30256  1.0000 -0.228823248
C   C45       1.0  0.47840  0.44180  0.57105  1.0000 -0.1292226994
C   C46       1.0  0.52160  0.55820  0.42895  1.0000 -0.1292226994
C   C47       1.0  0.65890  0.46800  0.62257  1.0000 -0.1422074521
C   C48       1.0  0.34110  0.53200  0.37743  1.0000 -0.1422074521
C   C49       1.0  0.32790  0.72860  0.71818  1.0000 -0.1808520267
C   C50       1.0  0.67210  0.27140  0.28182  1.0000 -0.1808520267
C   C51       1.0  0.43920  0.33520  0.51519  1.0000 0.0483824508
C   C52       1.0  0.56080  0.66480  0.48481  1.0000 0.0483824508
C   C53       1.0  0.76110  0.28220  0.56225  1.0000 -0.1292226994
C   C54       1.0  0.23890  0.71780  0.43775  1.0000 -0.1292226994
C   C55       1.0  0.60850  0.30220  0.80323  1.0000 -0.1695037456
C   C56       1.0  0.39150  0.69780  0.19677  1.0000 -0.1695037456
C   C57       1.0  0.58050  0.25480  0.51074  1.0000 -0.112059396
C   C58       1.0  0.41950  0.74520  0.48926  1.0000 -0.112059396
C   C59       1.0  0.25120  0.31090  0.46006  1.0000 0.2604796802
C   C60       1.0  0.74880  0.68910  0.53994  1.0000 0.2604796802
N   N1        1.0  0.62680  0.12137  0.81672  1.0000 -0.228823248
N   N2        1.0  0.37320  0.87863  0.18328  1.0000 -0.228823248
N   N3        1.0  0.61610  0.84774  0.78507  1.0000 -0.228823248
N   N4        1.0  0.38390  0.15226  0.21493  1.0000 -0.228823248
N   N5        1.0  0.37110  0.47199  0.77255  1.0000 -0.3395736152
N   N6        1.0  0.62890  0.52801  0.22745  1.0000 -0.3395736152
N   N7        1.0  0.10430  0.29590  0.41680  1.0000 -0.3593410934
N   N8        1.0  0.89570  0.70410  0.58320  1.0000 -0.3593410934
O   O1        1.0  0.99760  0.95780  0.88611  1.0000 -0.5484823271
O   O2        1.0  0.00240  0.04220  0.11389  1.0000 -0.5484823271
O   O3        1.0  0.08040  0.13705  0.92044  1.0000 -0.5484823271
O   O4        1.0  0.91960  0.86295  0.07956  1.0000 -0.5484823271
O   O5        1.0  0.64070  0.96118  0.63713  1.0000 -0.5557071055
O   O6        1.0  0.35930  0.03882  0.36287  1.0000 -0.5557071055
O   O7        1.0  0.94380  0.99196  0.71150  1.0000 -0.5484823271
O   O8        1.0  0.05620  0.00804  0.28850  1.0000 -0.5484823271
