# DDEC6 charges by PACMAN v1.1 (https://github.com/mtap-research/PACMAN-charge/)
data_2023[Co][nan]3[ASR]9
_chemical_formula_sum              "Co12 H96 C204 N12 O48"
_cell_length_a       24.433
_cell_length_b       24.433
_cell_length_c       24.433
_cell_angle_alpha    101.305
_cell_angle_beta     101.305
_cell_angle_gamma    101.305

_symmetry_space_group_name_H-M    "P 1"
_symmetry_Int_Tables_number       1

loop_
  _symmetry_equiv_pos_as_xyz
  'x, y, z'

loop_
  _atom_site_type_symbol
  _atom_site_label
  _atom_site_symmetry_multiplicity
  _atom_site_fract_x
  _atom_site_fract_y
  _atom_site_fract_z
  _atom_site_occupancy
  _atom_site_charge
Co  Co1       1.0  0.64107  0.05874  0.79275  1.0000 0.9912687969
Co  Co2       1.0  0.05874  0.79275  0.64107  1.0000 0.9912687969
Co  Co3       1.0  0.79275  0.64107  0.05874  1.0000 0.9912687969
Co  Co4       1.0  0.35893  0.94126  0.20725  1.0000 0.9912687969
Co  Co5       1.0  0.94126  0.20725  0.35893  1.0000 0.9912687969
Co  Co6       1.0  0.20725  0.35893  0.94126  1.0000 0.9912687969
Co  Co7       1.0  0.74704  0.04280  0.85413  1.0000 0.9912687969
Co  Co8       1.0  0.04280  0.85413  0.74704  1.0000 0.9912687969
Co  Co9       1.0  0.85413  0.74704  0.04280  1.0000 0.9912687969
Co  Co10      1.0  0.25296  0.95720  0.14587  1.0000 0.9912687969
Co  Co11      1.0  0.95720  0.14587  0.25296  1.0000 0.9912687969
Co  Co12      1.0  0.14587  0.25296  0.95720  1.0000 0.9912687969
H   H1        1.0  0.79323  0.38204  0.58994  1.0000 0.1062973074
H   H2        1.0  0.38204  0.58994  0.79323  1.0000 0.1062973074
H   H3        1.0  0.58994  0.79323  0.38204  1.0000 0.1062973074
H   H4        1.0  0.20677  0.61796  0.41006  1.0000 0.1062973074
H   H5        1.0  0.61796  0.41006  0.20677  1.0000 0.1062973074
H   H6        1.0  0.41006  0.20677  0.61796  1.0000 0.1062973074
H   H7        1.0  0.81501  0.47725  0.63821  1.0000 0.1290587107
H   H8        1.0  0.47725  0.63821  0.81501  1.0000 0.1290587107
H   H9        1.0  0.63821  0.81501  0.47725  1.0000 0.1290587107
H   H10       1.0  0.18499  0.52275  0.36179  1.0000 0.1290587107
H   H11       1.0  0.52275  0.36179  0.18499  1.0000 0.1290587107
H   H12       1.0  0.36179  0.18499  0.52275  1.0000 0.1290587107
H   H13       1.0  0.89647  0.43848  0.78199  1.0000 0.1290587107
H   H14       1.0  0.43848  0.78199  0.89647  1.0000 0.1290587107
H   H15       1.0  0.78199  0.89647  0.43848  1.0000 0.1290587107
H   H16       1.0  0.10353  0.56152  0.21801  1.0000 0.1290587107
H   H17       1.0  0.56152  0.21801  0.10353  1.0000 0.1290587107
H   H18       1.0  0.21801  0.10353  0.56152  1.0000 0.1290587107
H   H19       1.0  0.82348  0.31419  0.63607  1.0000 0.1290587107
H   H20       1.0  0.31419  0.63607  0.82348  1.0000 0.1290587107
H   H21       1.0  0.63607  0.82348  0.31419  1.0000 0.1290587107
H   H22       1.0  0.17652  0.68581  0.36393  1.0000 0.1290587107
H   H23       1.0  0.68581  0.36393  0.17652  1.0000 0.1290587107
H   H24       1.0  0.36393  0.17652  0.68581  1.0000 0.1290587107
H   H25       1.0  0.91352  0.54046  0.65138  1.0000 0.1290587107
H   H26       1.0  0.54046  0.65138  0.91352  1.0000 0.1290587107
H   H27       1.0  0.65138  0.91352  0.54046  1.0000 0.1290587107
H   H28       1.0  0.08648  0.45954  0.34862  1.0000 0.1290587107
H   H29       1.0  0.45954  0.34862  0.08648  1.0000 0.1290587107
H   H30       1.0  0.34862  0.08648  0.45954  1.0000 0.1290587107
H   H31       1.0  0.96204  0.62824  0.64280  1.0000 0.1290587107
H   H32       1.0  0.62824  0.64280  0.96204  1.0000 0.1290587107
H   H33       1.0  0.64280  0.96204  0.62824  1.0000 0.1290587107
H   H34       1.0  0.03796  0.37176  0.35720  1.0000 0.1290587107
H   H35       1.0  0.37176  0.35720  0.03796  1.0000 0.1290587107
H   H36       1.0  0.35720  0.03796  0.37176  1.0000 0.1290587107
H   H37       1.0  0.94270  0.70973  0.79738  1.0000 0.1410152118
H   H38       1.0  0.70973  0.79738  0.94270  1.0000 0.1410152118
H   H39       1.0  0.79738  0.94270  0.70973  1.0000 0.1410152118
H   H40       1.0  0.05730  0.29027  0.20262  1.0000 0.1410152118
H   H41       1.0  0.29027  0.20262  0.05730  1.0000 0.1410152118
H   H42       1.0  0.20262  0.05730  0.29027  1.0000 0.1410152118
H   H43       1.0  0.89185  0.67462  0.88307  1.0000 0.1410152118
H   H44       1.0  0.67462  0.88307  0.89185  1.0000 0.1410152118
H   H45       1.0  0.88307  0.89185  0.67462  1.0000 0.1410152118
H   H46       1.0  0.10815  0.32538  0.11693  1.0000 0.1410152118
H   H47       1.0  0.32538  0.11693  0.10815  1.0000 0.1410152118
H   H48       1.0  0.11693  0.10815  0.32538  1.0000 0.1410152118
H   H49       1.0  0.80880  0.52502  0.90778  1.0000 0.1242423094
H   H50       1.0  0.52502  0.90778  0.80880  1.0000 0.1242423094
H   H51       1.0  0.90778  0.80880  0.52502  1.0000 0.1242423094
H   H52       1.0  0.19120  0.47498  0.09222  1.0000 0.1290587107
H   H53       1.0  0.47498  0.09222  0.19120  1.0000 0.1242423094
H   H54       1.0  0.09222  0.19120  0.47498  1.0000 0.1290587107
H   H55       1.0  0.81917  0.47414  0.82026  1.0000 0.1290587107
H   H56       1.0  0.47414  0.82026  0.81917  1.0000 0.1290587107
H   H57       1.0  0.82026  0.81917  0.47414  1.0000 0.1290587107
H   H58       1.0  0.18083  0.52586  0.17974  1.0000 0.1290587107
H   H59       1.0  0.52586  0.17974  0.18083  1.0000 0.1290587107
H   H60       1.0  0.17974  0.18083  0.52586  1.0000 0.1290587107
H   H61       1.0  0.98532  0.40486  0.76465  1.0000 0.1290587107
H   H62       1.0  0.40486  0.76465  0.98532  1.0000 0.1290587107
H   H63       1.0  0.76465  0.98532  0.40486  1.0000 0.1290587107
H   H64       1.0  0.01468  0.59514  0.23535  1.0000 0.1290587107
H   H65       1.0  0.59514  0.23535  0.01468  1.0000 0.1290587107
H   H66       1.0  0.23535  0.01468  0.59514  1.0000 0.1290587107
H   H67       1.0  0.06786  0.39421  0.82231  1.0000 0.1242423094
H   H68       1.0  0.39421  0.82231  0.06786  1.0000 0.1290587107
H   H69       1.0  0.82231  0.06786  0.39421  1.0000 0.1242423094
H   H70       1.0  0.93214  0.60579  0.17769  1.0000 0.1290587107
H   H71       1.0  0.60579  0.17769  0.93214  1.0000 0.1242423094
H   H72       1.0  0.17769  0.93214  0.60579  1.0000 0.1242423094
H   H73       1.0  0.97899  0.25565  0.86007  1.0000 0.1410152118
H   H74       1.0  0.25565  0.86007  0.97899  1.0000 0.1410152118
H   H75       1.0  0.86007  0.97899  0.25565  1.0000 0.1410152118
H   H76       1.0  0.02101  0.74435  0.13993  1.0000 0.1410152118
H   H77       1.0  0.74435  0.13993  0.02101  1.0000 0.1410152118
H   H78       1.0  0.13993  0.02101  0.74435  1.0000 0.1410152118
H   H79       1.0  0.86306  0.19081  0.82981  1.0000 0.1410152118
H   H80       1.0  0.19081  0.82981  0.86306  1.0000 0.1410152118
H   H81       1.0  0.82981  0.86306  0.19081  1.0000 0.1410152118
H   H82       1.0  0.13694  0.80919  0.17019  1.0000 0.1410152118
H   H83       1.0  0.80919  0.17019  0.13694  1.0000 0.1410152118
H   H84       1.0  0.17019  0.13694  0.80919  1.0000 0.1410152118
H   H85       1.0  0.71385  0.20187  0.73120  1.0000 0.1290587107
H   H86       1.0  0.20187  0.73120  0.71385  1.0000 0.1290587107
H   H87       1.0  0.73120  0.71385  0.20187  1.0000 0.1290587107
H   H88       1.0  0.28615  0.79813  0.26880  1.0000 0.1290587107
H   H89       1.0  0.79813  0.26880  0.28615  1.0000 0.1290587107
H   H90       1.0  0.26880  0.28615  0.79813  1.0000 0.1290587107
H   H91       1.0  0.76070  0.27964  0.70193  1.0000 0.1242423094
H   H92       1.0  0.27964  0.70193  0.76070  1.0000 0.1242423094
H   H93       1.0  0.70193  0.76070  0.27964  1.0000 0.1242423094
H   H94       1.0  0.23930  0.72036  0.29807  1.0000 0.1242423094
H   H95       1.0  0.72036  0.29807  0.23930  1.0000 0.1242423094
H   H96       1.0  0.29807  0.23930  0.72036  1.0000 0.1242423094
C   C1        1.0  0.81438  0.39382  0.62903  1.0000 -0.0635780605
C   C2        1.0  0.39382  0.62903  0.81438  1.0000 -0.0635780605
C   C3        1.0  0.62903  0.81438  0.39382  1.0000 -0.0635780605
C   C4        1.0  0.18562  0.60618  0.37097  1.0000 -0.0635780605
C   C5        1.0  0.60618  0.37097  0.18562  1.0000 -0.0635780605
C   C6        1.0  0.37097  0.18562  0.60618  1.0000 -0.0635780605
C   C7        1.0  0.82701  0.44972  0.65731  1.0000 -0.1983024347
C   C8        1.0  0.44972  0.65731  0.82701  1.0000 -0.1983024347
C   C9        1.0  0.65731  0.82701  0.44972  1.0000 -0.1983024347
C   C10       1.0  0.17299  0.55028  0.34269  1.0000 -0.1983024347
C   C11       1.0  0.55028  0.34269  0.17299  1.0000 -0.1983024347
C   C12       1.0  0.34269  0.17299  0.55028  1.0000 -0.1983024347
C   C13       1.0  0.85802  0.46694  0.71519  1.0000 0.1728141389
C   C14       1.0  0.46694  0.71519  0.85802  1.0000 0.1728141389
C   C15       1.0  0.71519  0.85802  0.46694  1.0000 0.1728141389
C   C16       1.0  0.14198  0.53306  0.28481  1.0000 0.1728141389
C   C17       1.0  0.53306  0.28481  0.14198  1.0000 0.1728141389
C   C18       1.0  0.28481  0.14198  0.53306  1.0000 0.1728141389
C   C19       1.0  0.87538  0.42690  0.74288  1.0000 -0.2507927237
C   C20       1.0  0.42690  0.74288  0.87538  1.0000 -0.2507927237
C   C21       1.0  0.74288  0.87538  0.42690  1.0000 -0.2507927237
C   C22       1.0  0.12462  0.57310  0.25712  1.0000 -0.2507927237
C   C23       1.0  0.57310  0.25712  0.12462  1.0000 -0.2507927237
C   C24       1.0  0.25712  0.12462  0.57310  1.0000 -0.2507927237
C   C25       1.0  0.86201  0.37072  0.71364  1.0000 0.1592667483
C   C26       1.0  0.37072  0.71364  0.86201  1.0000 0.1592667483
C   C27       1.0  0.71364  0.86201  0.37072  1.0000 0.1592667483
C   C28       1.0  0.13799  0.62928  0.28636  1.0000 0.1592667483
C   C29       1.0  0.62928  0.28636  0.13799  1.0000 0.1592667483
C   C30       1.0  0.28636  0.13799  0.62928  1.0000 0.1592667483
C   C31       1.0  0.83195  0.35340  0.65638  1.0000 -0.1983024347
C   C32       1.0  0.35340  0.65638  0.83195  1.0000 -0.1983024347
C   C33       1.0  0.65638  0.83195  0.35340  1.0000 -0.1983024347
C   C34       1.0  0.16805  0.64660  0.34362  1.0000 -0.1983024347
C   C35       1.0  0.64660  0.34362  0.16805  1.0000 -0.1983024347
C   C36       1.0  0.34362  0.16805  0.64660  1.0000 -0.1983024347
C   C37       1.0  0.90018  0.57291  0.73029  1.0000 0.1242423094
C   C38       1.0  0.57291  0.73029  0.90018  1.0000 0.1290587107
C   C39       1.0  0.73029  0.90018  0.57291  1.0000 0.1242423094
C   C40       1.0  0.09982  0.42709  0.26971  1.0000 0.1242423094
C   C41       1.0  0.42709  0.26971  0.09982  1.0000 0.1290587107
C   C42       1.0  0.26971  0.09982  0.42709  1.0000 0.1242423094
C   C43       1.0  0.91975  0.57441  0.68084  1.0000 -0.1983024347
C   C44       1.0  0.57441  0.68084  0.91975  1.0000 -0.1983024347
C   C45       1.0  0.68084  0.91975  0.57441  1.0000 -0.1983024347
C   C46       1.0  0.08025  0.42559  0.31916  1.0000 -0.1983024347
C   C47       1.0  0.42559  0.31916  0.08025  1.0000 -0.1983024347
C   C48       1.0  0.31916  0.08025  0.42559  1.0000 -0.1983024347
C   C49       1.0  0.94812  0.62626  0.67622  1.0000 -0.0831791375
C   C50       1.0  0.62626  0.67622  0.94812  1.0000 -0.0831791375
C   C51       1.0  0.67622  0.94812  0.62626  1.0000 -0.0831791375
C   C52       1.0  0.05188  0.37374  0.32378  1.0000 -0.0831791375
C   C53       1.0  0.37374  0.32378  0.05188  1.0000 -0.0831791375
C   C54       1.0  0.32378  0.05188  0.37374  1.0000 -0.0831791375
C   C55       1.0  0.95780  0.67772  0.71951  1.0000 -0.0395715858
C   C56       1.0  0.67772  0.71951  0.95780  1.0000 -0.0395715858
C   C57       1.0  0.71951  0.95780  0.67772  1.0000 -0.0395715858
C   C58       1.0  0.04220  0.32228  0.28049  1.0000 -0.0395715858
C   C59       1.0  0.32228  0.28049  0.04220  1.0000 -0.0395715858
C   C60       1.0  0.28049  0.04220  0.32228  1.0000 -0.0395715858
C   C61       1.0  0.93731  0.67574  0.76823  1.0000 -0.1305666459
C   C62       1.0  0.67574  0.76823  0.93731  1.0000 -0.1305666459
C   C63       1.0  0.76823  0.93731  0.67574  1.0000 -0.1305666459
C   C64       1.0  0.06269  0.32426  0.23177  1.0000 -0.1305666459
C   C65       1.0  0.32426  0.23177  0.06269  1.0000 -0.1305666459
C   C66       1.0  0.23177  0.06269  0.32426  1.0000 -0.1305666459
C   C67       1.0  0.90879  0.62296  0.77327  1.0000 -0.0105414998
C   C68       1.0  0.62296  0.77327  0.90879  1.0000 -0.0105414998
C   C69       1.0  0.77327  0.90879  0.62296  1.0000 -0.0105414998
C   C70       1.0  0.09121  0.37704  0.22673  1.0000 -0.0105414998
C   C71       1.0  0.37704  0.22673  0.09121  1.0000 -0.0105414998
C   C72       1.0  0.22673  0.09121  0.37704  1.0000 -0.0105414998
C   C73       1.0  0.88298  0.60509  0.81923  1.0000 -0.0105414998
C   C74       1.0  0.60509  0.81923  0.88298  1.0000 -0.0105414998
C   C75       1.0  0.81923  0.88298  0.60509  1.0000 -0.0105414998
C   C76       1.0  0.11702  0.39491  0.18077  1.0000 -0.0105414998
C   C77       1.0  0.39491  0.18077  0.11702  1.0000 -0.0105414998
C   C78       1.0  0.18077  0.11702  0.39491  1.0000 -0.0105414998
C   C79       1.0  0.87709  0.63409  0.87037  1.0000 -0.1213772601
C   C80       1.0  0.63409  0.87037  0.87709  1.0000 -0.1213772601
C   C81       1.0  0.87037  0.87709  0.63409  1.0000 -0.1213772601
C   C82       1.0  0.12291  0.36591  0.12963  1.0000 -0.1213772601
C   C83       1.0  0.36591  0.12963  0.12291  1.0000 -0.1213772601
C   C84       1.0  0.12963  0.12291  0.36591  1.0000 -0.1213772601
C   C85       1.0  0.84942  0.60419  0.90385  1.0000 -0.0327657854
C   C86       1.0  0.60419  0.90385  0.84942  1.0000 -0.0327657854
C   C87       1.0  0.90385  0.84942  0.60419  1.0000 -0.0327657854
C   C88       1.0  0.15058  0.39581  0.09615  1.0000 -0.0327657854
C   C89       1.0  0.39581  0.09615  0.15058  1.0000 -0.0395715858
C   C90       1.0  0.09615  0.15058  0.39581  1.0000 -0.0327657854
C   C91       1.0  0.82802  0.54518  0.88472  1.0000 -0.0709287151
C   C92       1.0  0.54518  0.88472  0.82802  1.0000 -0.0709287151
C   C93       1.0  0.88472  0.82802  0.54518  1.0000 -0.0709287151
C   C94       1.0  0.17198  0.45482  0.11528  1.0000 -0.0709287151
C   C95       1.0  0.45482  0.11528  0.17198  1.0000 -0.0709287151
C   C96       1.0  0.11528  0.17198  0.45482  1.0000 -0.0709287151
C   C97       1.0  0.83383  0.51469  0.83296  1.0000 -0.2176307919
C   C98       1.0  0.51469  0.83296  0.83383  1.0000 -0.2176307919
C   C99       1.0  0.83296  0.83383  0.51469  1.0000 -0.2176307919
C   C100      1.0  0.16617  0.48531  0.16704  1.0000 -0.2176307919
C   C101      1.0  0.48531  0.16704  0.16617  1.0000 -0.2176307919
C   C102      1.0  0.16704  0.16617  0.48531  1.0000 -0.2176307919
C   C103      1.0  0.86181  0.54559  0.80048  1.0000 0.1290587107
C   C104      1.0  0.54559  0.80048  0.86181  1.0000 0.1242423094
C   C105      1.0  0.80048  0.86181  0.54559  1.0000 0.1242423094
C   C106      1.0  0.13819  0.45441  0.19952  1.0000 0.1242423094
C   C107      1.0  0.45441  0.19952  0.13819  1.0000 0.1242423094
C   C108      1.0  0.19952  0.13819  0.45441  1.0000 0.1242423094
C   C109      1.0  0.98909  0.73245  0.71107  1.0000 0.590877444
C   C110      1.0  0.73245  0.71107  0.98909  1.0000 0.590877444
C   C111      1.0  0.71107  0.98909  0.73245  1.0000 0.590877444
C   C112      1.0  0.01091  0.26755  0.28893  1.0000 0.590877444
C   C113      1.0  0.26755  0.28893  0.01091  1.0000 0.590877444
C   C114      1.0  0.28893  0.01091  0.26755  1.0000 0.590877444
C   C115      1.0  0.84170  0.63560  0.95930  1.0000 0.5963854225
C   C116      1.0  0.63560  0.95930  0.84170  1.0000 0.5963854225
C   C117      1.0  0.95930  0.84170  0.63560  1.0000 0.5963854225
C   C118      1.0  0.15830  0.36440  0.04070  1.0000 0.5963854225
C   C119      1.0  0.36440  0.04070  0.15830  1.0000 0.5963854225
C   C120      1.0  0.04070  0.15830  0.36440  1.0000 0.5963854225
C   C121      1.0  0.93276  0.33367  0.77633  1.0000 0.1290587107
C   C122      1.0  0.33367  0.77633  0.93276  1.0000 0.1242423094
C   C123      1.0  0.77633  0.93276  0.33367  1.0000 0.1242423094
C   C124      1.0  0.06724  0.66633  0.22367  1.0000 0.1242423094
C   C125      1.0  0.66633  0.22367  0.06724  1.0000 0.1290587107
C   C126      1.0  0.22367  0.06724  0.66633  1.0000 0.1242423094
C   C127      1.0  0.98398  0.37411  0.78325  1.0000 -0.2136294187
C   C128      1.0  0.37411  0.78325  0.98398  1.0000 -0.2136294187
C   C129      1.0  0.78325  0.98398  0.37411  1.0000 -0.2176307919
C   C130      1.0  0.01602  0.62589  0.21675  1.0000 -0.2136294187
C   C131      1.0  0.62589  0.21675  0.01602  1.0000 -0.2136294187
C   C132      1.0  0.21675  0.01602  0.62589  1.0000 -0.2136294187
C   C133      1.0  0.03235  0.36764  0.81803  1.0000 -0.0709287151
C   C134      1.0  0.36764  0.81803  0.03235  1.0000 -0.0709287151
C   C135      1.0  0.81803  0.03235  0.36764  1.0000 -0.0709287151
C   C136      1.0  0.96765  0.63236  0.18197  1.0000 -0.0709287151
C   C137      1.0  0.63236  0.18197  0.96765  1.0000 -0.0709287151
C   C138      1.0  0.18197  0.96765  0.63236  1.0000 -0.0709287151
C   C139      1.0  0.03218  0.32418  0.84750  1.0000 -0.0395715858
C   C140      1.0  0.32418  0.84750  0.03218  1.0000 -0.0395715858
C   C141      1.0  0.84750  0.03218  0.32418  1.0000 -0.0395715858
C   C142      1.0  0.96782  0.67582  0.15250  1.0000 -0.0395715858
C   C143      1.0  0.67582  0.15250  0.96782  1.0000 -0.0395715858
C   C144      1.0  0.15250  0.96782  0.67582  1.0000 -0.0395715858
C   C145      1.0  0.98047  0.28542  0.84014  1.0000 -0.1213772601
C   C146      1.0  0.28542  0.84014  0.98047  1.0000 -0.1213772601
C   C147      1.0  0.84014  0.98047  0.28542  1.0000 -0.1213772601
C   C148      1.0  0.01953  0.71458  0.15986  1.0000 -0.1213772601
C   C149      1.0  0.71458  0.15986  0.01953  1.0000 -0.1213772601
C   C150      1.0  0.15986  0.01953  0.71458  1.0000 -0.1213772601
C   C151      1.0  0.93104  0.28911  0.80443  1.0000 -0.0201837188
C   C152      1.0  0.28911  0.80443  0.93104  1.0000 -0.0201837188
C   C153      1.0  0.80443  0.93104  0.28911  1.0000 -0.0201837188
C   C154      1.0  0.06896  0.71089  0.19557  1.0000 -0.0201837188
C   C155      1.0  0.71089  0.19557  0.06896  1.0000 -0.0201837188
C   C156      1.0  0.19557  0.06896  0.71089  1.0000 -0.0201837188
C   C157      1.0  0.87171  0.25626  0.78855  1.0000 -0.0201837188
C   C158      1.0  0.25626  0.78855  0.87171  1.0000 -0.0201837188
C   C159      1.0  0.78855  0.87171  0.25626  1.0000 -0.0201837188
C   C160      1.0  0.12829  0.74374  0.21145  1.0000 -0.0201837188
C   C161      1.0  0.74374  0.21145  0.12829  1.0000 -0.0201837188
C   C162      1.0  0.21145  0.12829  0.74374  1.0000 -0.0201837188
C   C163      1.0  0.84277  0.20912  0.80454  1.0000 -0.1305666459
C   C164      1.0  0.20912  0.80454  0.84277  1.0000 -0.1305666459
C   C165      1.0  0.80454  0.84277  0.20912  1.0000 -0.1305666459
C   C166      1.0  0.15723  0.79088  0.19546  1.0000 -0.1305666459
C   C167      1.0  0.79088  0.19546  0.15723  1.0000 -0.1305666459
C   C168      1.0  0.19546  0.15723  0.79088  1.0000 -0.1305666459
C   C169      1.0  0.78443  0.18981  0.78301  1.0000 -0.0201837188
C   C170      1.0  0.18981  0.78301  0.78443  1.0000 -0.0201837188
C   C171      1.0  0.78301  0.78443  0.18981  1.0000 -0.0201837188
C   C172      1.0  0.21557  0.81019  0.21699  1.0000 -0.0201837188
C   C173      1.0  0.81019  0.21699  0.21557  1.0000 -0.0201837188
C   C174      1.0  0.21699  0.21557  0.81019  1.0000 -0.0201837188
C   C175      1.0  0.75431  0.21628  0.74532  1.0000 -0.0892836178
C   C176      1.0  0.21628  0.74532  0.75431  1.0000 -0.0892836178
C   C177      1.0  0.74532  0.75431  0.21628  1.0000 -0.0892836178
C   C178      1.0  0.24569  0.78372  0.25468  1.0000 -0.0892836178
C   C179      1.0  0.78372  0.25468  0.24569  1.0000 -0.0892836178
C   C180      1.0  0.25468  0.24569  0.78372  1.0000 -0.0892836178
C   C181      1.0  0.78142  0.26248  0.72811  1.0000 -0.2136294187
C   C182      1.0  0.26248  0.72811  0.78142  1.0000 -0.2136294187
C   C183      1.0  0.72811  0.78142  0.26248  1.0000 -0.2136294187
C   C184      1.0  0.21858  0.73752  0.27189  1.0000 -0.2136294187
C   C185      1.0  0.73752  0.27189  0.21858  1.0000 -0.2136294187
C   C186      1.0  0.27189  0.21858  0.73752  1.0000 -0.2136294187
C   C187      1.0  0.84110  0.28316  0.75092  1.0000 0.1290587107
C   C188      1.0  0.28316  0.75092  0.84110  1.0000 0.1242423094
C   C189      1.0  0.75092  0.84110  0.28316  1.0000 0.1290587107
C   C190      1.0  0.15890  0.71684  0.24908  1.0000 0.1242423094
C   C191      1.0  0.71684  0.24908  0.15890  1.0000 0.1242423094
C   C192      1.0  0.24908  0.15890  0.71684  1.0000 0.1242423094
C   C193      1.0  0.75093  0.13924  0.79901  1.0000 0.5963854225
C   C194      1.0  0.13924  0.79901  0.75093  1.0000 0.5963854225
C   C195      1.0  0.79901  0.75093  0.13924  1.0000 0.5963854225
C   C196      1.0  0.24907  0.86076  0.20099  1.0000 0.5963854225
C   C197      1.0  0.86076  0.20099  0.24907  1.0000 0.5963854225
C   C198      1.0  0.20099  0.24907  0.86076  1.0000 0.5963854225
C   C199      1.0  0.08610  0.32020  0.88510  1.0000 0.590877444
C   C200      1.0  0.32020  0.88510  0.08610  1.0000 0.590877444
C   C201      1.0  0.88510  0.08610  0.32020  1.0000 0.590877444
C   C202      1.0  0.91390  0.67980  0.11490  1.0000 0.590877444
C   C203      1.0  0.67980  0.11490  0.91390  1.0000 0.5963854225
C   C204      1.0  0.11490  0.91390  0.67980  1.0000 0.590877444
N   N1        1.0  0.87160  0.52615  0.74656  1.0000 -0.0892836178
N   N2        1.0  0.52615  0.74656  0.87160  1.0000 -0.0892836178
N   N3        1.0  0.74656  0.87160  0.52615  1.0000 -0.0892836178
N   N4        1.0  0.12840  0.47385  0.25344  1.0000 -0.0892836178
N   N5        1.0  0.47385  0.25344  0.12840  1.0000 -0.095439416
N   N6        1.0  0.25344  0.12840  0.47385  1.0000 -0.0892836178
N   N7        1.0  0.87911  0.32936  0.74333  1.0000 -0.0831791375
N   N8        1.0  0.32936  0.74333  0.87911  1.0000 -0.0831791375
N   N9        1.0  0.74333  0.87911  0.32936  1.0000 -0.0831791375
N   N10       1.0  0.12089  0.67064  0.25667  1.0000 -0.0831791375
N   N11       1.0  0.67064  0.25667  0.12089  1.0000 -0.0892836178
N   N12       1.0  0.25667  0.12089  0.67064  1.0000 -0.0831791375
O   O1        1.0  0.00658  0.73194  0.66607  1.0000 -0.5680623211
O   O2        1.0  0.73194  0.66607  0.00658  1.0000 -0.5680623211
O   O3        1.0  0.66607  0.00658  0.73194  1.0000 -0.5680623211
O   O4        1.0  0.99342  0.26806  0.33393  1.0000 -0.5680623211
O   O5        1.0  0.26806  0.33393  0.99342  1.0000 -0.5680623211
O   O6        1.0  0.33393  0.99342  0.26806  1.0000 -0.5680623211
O   O7        1.0  0.99645  0.77753  0.75130  1.0000 -0.5623203863
O   O8        1.0  0.77753  0.75130  0.99645  1.0000 -0.5623203863
O   O9        1.0  0.75130  0.99645  0.77753  1.0000 -0.5680623211
O   O10       1.0  0.00355  0.22247  0.24870  1.0000 -0.5623203863
O   O11       1.0  0.22247  0.24870  0.00355  1.0000 -0.5623203863
O   O12       1.0  0.24870  0.00355  0.22247  1.0000 -0.5623203863
O   O13       1.0  0.86111  0.69005  0.97445  1.0000 -0.5791962264
O   O14       1.0  0.69005  0.97445  0.86111  1.0000 -0.5791962264
O   O15       1.0  0.97445  0.86111  0.69005  1.0000 -0.5791962264
O   O16       1.0  0.13889  0.30995  0.02555  1.0000 -0.5791962264
O   O17       1.0  0.30995  0.02555  0.13889  1.0000 -0.5791962264
O   O18       1.0  0.02555  0.13889  0.30995  1.0000 -0.5791962264
O   O19       1.0  0.81581  0.60548  0.98771  1.0000 -0.5623203863
O   O20       1.0  0.60548  0.98771  0.81581  1.0000 -0.5623203863
O   O21       1.0  0.98771  0.81581  0.60548  1.0000 -0.5623203863
O   O22       1.0  0.18419  0.39452  0.01229  1.0000 -0.5623203863
O   O23       1.0  0.39452  0.01229  0.18419  1.0000 -0.5623203863
O   O24       1.0  0.01229  0.18419  0.39452  1.0000 -0.5623203863
O   O25       1.0  0.69713  0.12478  0.77985  1.0000 -0.5680623211
O   O26       1.0  0.12478  0.77985  0.69713  1.0000 -0.5680623211
O   O27       1.0  0.77985  0.69713  0.12478  1.0000 -0.5680623211
O   O28       1.0  0.30287  0.87522  0.22015  1.0000 -0.5680623211
O   O29       1.0  0.87522  0.22015  0.30287  1.0000 -0.5680623211
O   O30       1.0  0.22015  0.30287  0.87522  1.0000 -0.5680623211
O   O31       1.0  0.78071  0.11590  0.83232  1.0000 -0.5680623211
O   O32       1.0  0.11590  0.83232  0.78071  1.0000 -0.5680623211
O   O33       1.0  0.83232  0.78071  0.11590  1.0000 -0.5680623211
O   O34       1.0  0.21929  0.88410  0.16768  1.0000 -0.5680623211
O   O35       1.0  0.88410  0.16768  0.21929  1.0000 -0.5680623211
O   O36       1.0  0.16768  0.21929  0.88410  1.0000 -0.5680623211
O   O37       1.0  0.13097  0.35735  0.89122  1.0000 -0.5410129495
O   O38       1.0  0.35735  0.89122  0.13097  1.0000 -0.5410129495
O   O39       1.0  0.89122  0.13097  0.35735  1.0000 -0.5410129495
O   O40       1.0  0.86903  0.64265  0.10878  1.0000 -0.5410129495
O   O41       1.0  0.64265  0.10878  0.86903  1.0000 -0.5410129495
O   O42       1.0  0.10878  0.86903  0.64265  1.0000 -0.5410129495
O   O43       1.0  0.08222  0.27716  0.90748  1.0000 -0.5791962264
O   O44       1.0  0.27716  0.90748  0.08222  1.0000 -0.5791962264
O   O45       1.0  0.90748  0.08222  0.27716  1.0000 -0.5791962264
O   O46       1.0  0.91778  0.72284  0.09252  1.0000 -0.5791962264
O   O47       1.0  0.72284  0.09252  0.91778  1.0000 -0.5791962264
O   O48       1.0  0.09252  0.91778  0.72284  1.0000 -0.5791962264
