# DDEC6 charges by PACMAN v1.1 (https://github.com/mtap-research/PACMAN-charge/)
data_2023[Ni][nan]3[ASR]1
_chemical_formula_sum              "Ni8 H64 C108 S8 N16 O36"
_cell_length_a       14.0194
_cell_length_b       20.5887
_cell_length_c       20.6834
_cell_angle_alpha    90
_cell_angle_beta     113.298
_cell_angle_gamma    90

_symmetry_space_group_name_H-M    "P 1"
_symmetry_Int_Tables_number       1

loop_
  _symmetry_equiv_pos_as_xyz
  'x, y, z'

loop_
  _atom_site_type_symbol
  _atom_site_label
  _atom_site_symmetry_multiplicity
  _atom_site_fract_x
  _atom_site_fract_y
  _atom_site_fract_z
  _atom_site_occupancy
  _atom_site_charge
Ni  Ni1       1.0  0.51495  0.80764  0.78825  1.0000 0.87237677
Ni  Ni2       1.0  0.48505  0.30764  0.71175  1.0000 0.87237677
Ni  Ni3       1.0  0.48505  0.19236  0.21175  1.0000 0.87237677
Ni  Ni4       1.0  0.51495  0.69236  0.28825  1.0000 0.87237677
Ni  Ni5       1.0  0.24612  0.81415  0.75732  1.0000 0.9073779735
Ni  Ni6       1.0  0.75388  0.31415  0.74268  1.0000 0.9073779735
Ni  Ni7       1.0  0.75388  0.18585  0.24268  1.0000 0.9073779735
Ni  Ni8       1.0  0.24612  0.68585  0.25732  1.0000 0.9073779735
H   H1        1.0  0.52910  0.70770  0.68930  1.0000 0.1016157
H   H2        1.0  0.47090  0.20770  0.81070  1.0000 0.1016157
H   H3        1.0  0.47090  0.29230  0.31070  1.0000 0.1016157
H   H4        1.0  0.52910  0.79230  0.18930  1.0000 0.1016157
H   H5        1.0  0.60930  0.68700  0.61360  1.0000 0.1484430799
H   H6        1.0  0.39070  0.18700  0.88640  1.0000 0.1484430799
H   H7        1.0  0.39070  0.31300  0.38640  1.0000 0.1484430799
H   H8        1.0  0.60930  0.81300  0.11360  1.0000 0.1484430799
H   H9        1.0  0.09890  0.71340  0.76610  1.0000 0.1177698396
H   H10       1.0  0.90110  0.21340  0.73390  1.0000 0.1177698396
H   H11       1.0  0.90110  0.28660  0.23390  1.0000 0.1177698396
H   H12       1.0  0.09890  0.78660  0.26610  1.0000 0.1177698396
H   H13       1.0  0.50390  0.76670  0.40760  1.0000 0.1177698396
H   H14       1.0  0.49610  0.26670  0.09240  1.0000 0.1177698396
H   H15       1.0  0.49610  0.23330  0.59240  1.0000 0.1177698396
H   H16       1.0  0.50390  0.73330  0.90760  1.0000 0.1177698396
H   H17       1.0  0.92320  0.68750  0.71580  1.0000 0.1484430799
H   H18       1.0  0.07680  0.18750  0.78420  1.0000 0.1484430799
H   H19       1.0  0.07680  0.31250  0.28420  1.0000 0.1484430799
H   H20       1.0  0.92320  0.81250  0.21580  1.0000 0.1484430799
H   H21       1.0  0.83120  0.68060  0.52050  1.0000 0.1416220757
H   H22       1.0  0.16880  0.18060  0.97950  1.0000 0.1416220757
H   H23       1.0  0.16880  0.31940  0.47950  1.0000 0.1416220757
H   H24       1.0  0.83120  0.81940  0.02050  1.0000 0.1416220757
H   H25       1.0  0.21720  0.59220  0.72060  1.0000 0.1277600269
H   H26       1.0  0.78280  0.09220  0.77940  1.0000 0.1277600269
H   H27       1.0  0.78280  0.40780  0.27940  1.0000 0.1277600269
H   H28       1.0  0.21720  0.90780  0.22060  1.0000 0.1277600269
H   H29       1.0  0.59030  0.78490  0.52700  1.0000 0.1416220757
H   H30       1.0  0.40970  0.28490  0.97300  1.0000 0.1416220757
H   H31       1.0  0.40970  0.21510  0.47300  1.0000 0.1416220757
H   H32       1.0  0.59030  0.71510  0.02700  1.0000 0.1416220757
H   H33       1.0  0.06100  0.84620  0.62110  1.0000 0.1107224318
H   H34       1.0  0.93900  0.34620  0.87890  1.0000 0.1177698396
H   H35       1.0  0.93900  0.15380  0.37890  1.0000 0.1177698396
H   H36       1.0  0.06100  0.65380  0.12110  1.0000 0.1177698396
H   H37       1.0  0.88560  0.82270  0.56670  1.0000 0.1484430799
H   H38       1.0  0.11440  0.32270  0.93330  1.0000 0.1484430799
H   H39       1.0  0.11440  0.17730  0.43330  1.0000 0.1484430799
H   H40       1.0  0.88560  0.67730  0.06670  1.0000 0.1484430799
H   H41       1.0  0.82420  0.82230  0.71890  1.0000 0.1484430799
H   H42       1.0  0.17580  0.32230  0.78110  1.0000 0.1484430799
H   H43       1.0  0.17580  0.17770  0.28110  1.0000 0.1484430799
H   H44       1.0  0.82420  0.67770  0.21890  1.0000 0.1484430799
H   H45       1.0  0.73450  0.83990  0.78950  1.0000 0.1016157
H   H46       1.0  0.26550  0.33990  0.71050  1.0000 0.1016157
H   H47       1.0  0.26550  0.16010  0.21050  1.0000 0.1016157
H   H48       1.0  0.73450  0.66010  0.28950  1.0000 0.1016157
H   H49       1.0  0.14820  0.85190  0.51810  1.0000 0.1277600269
H   H50       1.0  0.85180  0.35190  0.98190  1.0000 0.1277600269
H   H51       1.0  0.85180  0.14810  0.48190  1.0000 0.1277600269
H   H52       1.0  0.14820  0.64810  0.01810  1.0000 0.1277600269
H   H53       1.0  0.73500  0.66170  0.40300  1.0000 0.1016157
H   H54       1.0  0.26500  0.16170  0.09700  1.0000 0.1016157
H   H55       1.0  0.26500  0.33830  0.59700  1.0000 0.1016157
H   H56       1.0  0.73500  0.83830  0.90300  1.0000 0.1016157
H   H57       1.0  0.26280  0.48020  0.70220  1.0000 0.1277600269
H   H58       1.0  0.73720  0.98020  0.79780  1.0000 0.1277600269
H   H59       1.0  0.73720  0.51980  0.29780  1.0000 0.1277600269
H   H60       1.0  0.26280  0.01980  0.20220  1.0000 0.1277600269
H   H61       1.0  0.13720  0.80030  0.40750  1.0000 0.1277600269
H   H62       1.0  0.86280  0.30030  0.09250  1.0000 0.1277600269
H   H63       1.0  0.86280  0.19970  0.59250  1.0000 0.1277600269
H   H64       1.0  0.13720  0.69970  0.90750  1.0000 0.1277600269
C   C1        1.0  0.37094  0.69243  0.75534  1.0000 0.5936063233
C   C2        1.0  0.62906  0.19243  0.74466  1.0000 0.5936063233
C   C3        1.0  0.62906  0.30757  0.24466  1.0000 0.5936063233
C   C4        1.0  0.37094  0.80757  0.25534  1.0000 0.5936063233
C   C5        1.0  0.36586  0.62181  0.73956  1.0000 -0.1112110938
C   C6        1.0  0.63414  0.12181  0.76044  1.0000 -0.1112110938
C   C7        1.0  0.63414  0.37819  0.26044  1.0000 -0.1112110938
C   C8        1.0  0.36586  0.87819  0.23956  1.0000 -0.1112110938
C   C9        1.0  0.72063  0.73369  0.53813  1.0000 0.2180206871
C   C10       1.0  0.27937  0.23369  0.96187  1.0000 0.2180206871
C   C11       1.0  0.27937  0.26631  0.46187  1.0000 0.2180206871
C   C12       1.0  0.72063  0.76631  0.03813  1.0000 0.2180206871
C   C13       1.0  0.58926  0.73199  0.69446  1.0000 0.1107224318
C   C14       1.0  0.41074  0.23199  0.80554  1.0000 0.1107224318
C   C15       1.0  0.41074  0.26801  0.30554  1.0000 0.1107224318
C   C16       1.0  0.58926  0.76801  0.19446  1.0000 0.1107224318
C   C17       1.0  0.88614  0.75446  0.63794  1.0000 0.1955644193
C   C18       1.0  0.11386  0.25446  0.86206  1.0000 0.1945748332
C   C19       1.0  0.11386  0.24554  0.36206  1.0000 0.1945748332
C   C20       1.0  0.88614  0.74554  0.13794  1.0000 0.1955644193
C   C21       1.0  0.63671  0.71893  0.64941  1.0000 -0.2284826969
C   C22       1.0  0.36329  0.21893  0.85059  1.0000 -0.2284826969
C   C23       1.0  0.36329  0.28107  0.35059  1.0000 -0.2284826969
C   C24       1.0  0.63671  0.78107  0.14941  1.0000 -0.2284826969
C   C25       1.0  0.28953  0.80787  0.57153  1.0000 -0.1006762681
C   C26       1.0  0.71047  0.30787  0.92847  1.0000 -0.1006762681
C   C27       1.0  0.71047  0.19213  0.42847  1.0000 -0.1006762681
C   C28       1.0  0.28953  0.69213  0.07153  1.0000 -0.1006762681
C   C29       1.0  0.72579  0.75324  0.65709  1.0000 0.2180206871
C   C30       1.0  0.27421  0.25324  0.84291  1.0000 0.2180206871
C   C31       1.0  0.27421  0.24676  0.34291  1.0000 0.2180206871
C   C32       1.0  0.72579  0.74676  0.15709  1.0000 0.2180206871
C   C33       1.0  0.05450  0.73685  0.72600  1.0000 0.1177698396
C   C34       1.0  0.94550  0.23685  0.77400  1.0000 0.1177698396
C   C35       1.0  0.94550  0.26315  0.27400  1.0000 0.1177698396
C   C36       1.0  0.05450  0.76315  0.22600  1.0000 0.1177698396
C   C37       1.0  0.46666  0.45119  0.71116  1.0000 0.5768770131
C   C38       1.0  0.53334  0.95119  0.78884  1.0000 0.5768770131
C   C39       1.0  0.53334  0.54881  0.28884  1.0000 0.5768770131
C   C40       1.0  0.46666  0.04881  0.21116  1.0000 0.5768770131
C   C41       1.0  0.29842  0.71440  0.40962  1.0000 0.5733569416
C   C42       1.0  0.70158  0.21440  0.09038  1.0000 0.5733569416
C   C43       1.0  0.70158  0.28560  0.59038  1.0000 0.5733569416
C   C44       1.0  0.29842  0.78560  0.90962  1.0000 0.5733569416
C   C45       1.0  0.57062  0.74788  0.43142  1.0000 0.1277600269
C   C46       1.0  0.42938  0.24788  0.06858  1.0000 0.1277600269
C   C47       1.0  0.42938  0.25212  0.56858  1.0000 0.1277600269
C   C48       1.0  0.57062  0.75212  0.93142  1.0000 0.1277600269
C   C49       1.0  0.32347  0.82647  0.64697  1.0000 0.5967112186
C   C50       1.0  0.67653  0.32647  0.85303  1.0000 0.5967112186
C   C51       1.0  0.67653  0.17353  0.35303  1.0000 0.5967112186
C   C52       1.0  0.32347  0.67353  0.14697  1.0000 0.5967112186
C   C53       1.0  0.95001  0.72097  0.69621  1.0000 -0.2284826969
C   C54       1.0  0.04999  0.22097  0.80379  1.0000 -0.2240550051
C   C55       1.0  0.04999  0.27903  0.30379  1.0000 -0.2240550051
C   C56       1.0  0.95001  0.77903  0.19621  1.0000 -0.2284826969
C   C57       1.0  0.40993  0.50947  0.71923  1.0000 -0.1006762681
C   C58       1.0  0.59007  0.00947  0.78077  1.0000 -0.1006762681
C   C59       1.0  0.59007  0.49053  0.28077  1.0000 -0.1006762681
C   C60       1.0  0.40993  0.99053  0.21923  1.0000 -0.1006762681
C   C61       1.0  0.27654  0.75510  0.46104  1.0000 -0.1112110938
C   C62       1.0  0.72346  0.25510  0.03896  1.0000 -0.1112110938
C   C63       1.0  0.72346  0.24490  0.53896  1.0000 -0.1112110938
C   C64       1.0  0.27654  0.74490  0.96104  1.0000 -0.1112110938
C   C65       1.0  0.76285  0.69780  0.49875  1.0000 -0.236693746
C   C66       1.0  0.23715  0.19780  0.00125  1.0000 -0.2284826969
C   C67       1.0  0.23715  0.30220  0.50125  1.0000 -0.236693746
C   C68       1.0  0.76285  0.80220  0.99875  1.0000 -0.236693746
C   C69       1.0  0.28410  0.57963  0.72380  1.0000 -0.1203107583
C   C70       1.0  0.71590  0.07963  0.77620  1.0000 -0.1203107583
C   C71       1.0  0.71590  0.42037  0.27620  1.0000 -0.1203107583
C   C72       1.0  0.28410  0.92037  0.22380  1.0000 -0.1203107583
C   C73       1.0  0.62198  0.75954  0.50258  1.0000 -0.2284826969
C   C74       1.0  0.37802  0.25954  0.99742  1.0000 -0.2284826969
C   C75       1.0  0.37802  0.24046  0.49742  1.0000 -0.2284826969
C   C76       1.0  0.62198  0.74046  0.00258  1.0000 -0.2284826969
C   C77       1.0  0.03217  0.81417  0.64117  1.0000 0.1016157
C   C78       1.0  0.96783  0.31417  0.85883  1.0000 0.1016157
C   C79       1.0  0.96783  0.18583  0.35883  1.0000 0.1016157
C   C80       1.0  0.03217  0.68583  0.14117  1.0000 0.1016157
C   C81       1.0  0.92792  0.80067  0.60862  1.0000 -0.2240550051
C   C82       1.0  0.07208  0.30067  0.89138  1.0000 -0.2240550051
C   C83       1.0  0.07208  0.19933  0.39138  1.0000 -0.2240550051
C   C84       1.0  0.92792  0.69933  0.10862  1.0000 -0.2240550051
C   C85       1.0  0.76248  0.79853  0.71108  1.0000 -0.236693746
C   C86       1.0  0.23752  0.29853  0.78892  1.0000 -0.236693746
C   C87       1.0  0.23752  0.20147  0.28892  1.0000 -0.236693746
C   C88       1.0  0.76248  0.70147  0.21108  1.0000 -0.236693746
C   C89       1.0  0.70865  0.80853  0.75295  1.0000 0.1016157
C   C90       1.0  0.29135  0.30853  0.74705  1.0000 0.1016157
C   C91       1.0  0.29135  0.19147  0.24705  1.0000 0.1016157
C   C92       1.0  0.70865  0.69147  0.25295  1.0000 0.1016157
C   C93       1.0  0.20003  0.82380  0.51503  1.0000 -0.133758187
C   C94       1.0  0.79997  0.32380  0.98497  1.0000 -0.133758187
C   C95       1.0  0.79997  0.17620  0.48497  1.0000 -0.133758187
C   C96       1.0  0.20003  0.67620  0.01503  1.0000 -0.133758187
C   C97       1.0  0.70542  0.68736  0.42852  1.0000 0.0917609989
C   C98       1.0  0.29458  0.18736  0.07148  1.0000 0.0917609989
C   C99       1.0  0.29458  0.31264  0.57148  1.0000 0.0917609989
C   C100      1.0  0.70542  0.81264  0.92852  1.0000 0.0917609989
C   C101      1.0  0.31020  0.51552  0.71290  1.0000 -0.1203107583
C   C102      1.0  0.68980  0.01552  0.78710  1.0000 -0.1203107583
C   C103      1.0  0.68980  0.48448  0.28710  1.0000 -0.1203107583
C   C104      1.0  0.31020  0.98448  0.21290  1.0000 -0.1203107583
C   C105      1.0  0.19334  0.79390  0.45164  1.0000 -0.1203107583
C   C106      1.0  0.80666  0.29390  0.04836  1.0000 -0.1203107583
C   C107      1.0  0.80666  0.20610  0.54836  1.0000 -0.1203107583
C   C108      1.0  0.19334  0.70610  0.95164  1.0000 -0.1203107583
S   S1        1.0  0.47395  0.58284  0.73967  1.0000 0.1416220757
S   S2        1.0  0.52605  0.08284  0.76033  1.0000 0.1484430799
S   S3        1.0  0.52605  0.41716  0.26033  1.0000 0.1484430799
S   S4        1.0  0.47395  0.91716  0.23967  1.0000 0.1416220757
S   S5        1.0  0.36482  0.75619  0.54713  1.0000 0.1277600269
S   S6        1.0  0.63518  0.25619  0.95287  1.0000 0.1277600269
S   S7        1.0  0.63518  0.24381  0.45287  1.0000 0.1277600269
S   S8        1.0  0.36482  0.74381  0.04713  1.0000 0.1277600269
N   N1        1.0  0.09500  0.78391  0.70039  1.0000 -0.2284826969
N   N2        1.0  0.90500  0.28391  0.79961  1.0000 -0.2284826969
N   N3        1.0  0.90500  0.21609  0.29961  1.0000 -0.2284826969
N   N4        1.0  0.09500  0.71609  0.20039  1.0000 -0.2284826969
N   N5        1.0  0.60987  0.71135  0.39398  1.0000 -0.2240550051
N   N6        1.0  0.39013  0.21135  0.10602  1.0000 -0.2284826969
N   N7        1.0  0.39013  0.28865  0.60602  1.0000 -0.2240550051
N   N8        1.0  0.60987  0.78865  0.89398  1.0000 -0.2240550051
N   N9        1.0  0.62235  0.77688  0.74532  1.0000 -0.2078715262
N   N10       1.0  0.37765  0.27688  0.75468  1.0000 -0.2078715262
N   N11       1.0  0.37765  0.22312  0.25468  1.0000 -0.2078715262
N   N12       1.0  0.62235  0.72312  0.24532  1.0000 -0.2078715262
N   N13       1.0  0.77623  0.74298  0.61063  1.0000 -0.1723201011
N   N14       1.0  0.22377  0.24298  0.88937  1.0000 -0.1723201011
N   N15       1.0  0.22377  0.25702  0.38937  1.0000 -0.1723201011
N   N16       1.0  0.77623  0.75702  0.11063  1.0000 -0.1723201011
O   O1        1.0  0.39662  0.84595  0.81568  1.0000 -0.3892018271
O   O2        1.0  0.60338  0.34595  0.68432  1.0000 -0.3892018271
O   O3        1.0  0.60338  0.15405  0.18432  1.0000 -0.3892018271
O   O4        1.0  0.39662  0.65405  0.31568  1.0000 -0.3892018271
O   O5        1.0  0.41993  0.39817  0.70333  1.0000 -0.5511158628
O   O6        1.0  0.58007  0.89817  0.79667  1.0000 -0.5511158628
O   O7        1.0  0.58007  0.60183  0.29667  1.0000 -0.5511158628
O   O8        1.0  0.41993  0.10183  0.20333  1.0000 -0.5511158628
O   O9        1.0  0.41861  0.81923  0.68354  1.0000 -0.5318934617
O   O10       1.0  0.58139  0.31923  0.81646  1.0000 -0.5318934617
O   O11       1.0  0.58139  0.18077  0.31646  1.0000 -0.5402487712
O   O12       1.0  0.41861  0.68077  0.18354  1.0000 -0.5402487712
O   O13       1.0  0.25434  0.84684  0.66667  1.0000 -0.5318934617
O   O14       1.0  0.74566  0.34684  0.83333  1.0000 -0.5318934617
O   O15       1.0  0.74566  0.15316  0.33333  1.0000 -0.5318934617
O   O16       1.0  0.25434  0.65316  0.16667  1.0000 -0.5318934617
O   O17       1.0  0.23261  0.71741  0.34676  1.0000 -0.5511158628
O   O18       1.0  0.76739  0.21741  0.15324  1.0000 -0.5511158628
O   O19       1.0  0.76739  0.28259  0.65324  1.0000 -0.5511158628
O   O20       1.0  0.23261  0.78259  0.84676  1.0000 -0.5511158628
O   O21       1.0  0.28819  0.72134  0.74242  1.0000 -0.5135413405
O   O22       1.0  0.71181  0.22134  0.75758  1.0000 -0.5135413405
O   O23       1.0  0.71181  0.27866  0.25758  1.0000 -0.5156961081
O   O24       1.0  0.28819  0.77866  0.24242  1.0000 -0.5135413405
O   O25       1.0  0.46211  0.71544  0.78174  1.0000 -0.5402487712
O   O26       1.0  0.53789  0.21544  0.71826  1.0000 -0.5402487712
O   O27       1.0  0.53789  0.28456  0.21826  1.0000 -0.5402487712
O   O28       1.0  0.46211  0.78456  0.28174  1.0000 -0.5402487712
O   O29       1.0  0.37920  0.68137  0.43127  1.0000 -0.5014284995
O   O30       1.0  0.62080  0.18137  0.06873  1.0000 -0.5014284995
O   O31       1.0  0.62080  0.31863  0.56873  1.0000 -0.5014284995
O   O32       1.0  0.37920  0.81863  0.93127  1.0000 -0.5014284995
O   O33       1.0  0.55628  0.45989  0.71208  1.0000 -0.4738250372
O   O34       1.0  0.44372  0.95989  0.78792  1.0000 -0.4738250372
O   O35       1.0  0.44372  0.54011  0.28792  1.0000 -0.4738250372
O   O36       1.0  0.55628  0.04011  0.21208  1.0000 -0.4738250372
