# DDEC6 charges by PACMAN v1.1 (https://github.com/mtap-research/PACMAN-charge/)
data_2023[Nd][kgd]2[ASR]1
_chemical_formula_sum              "Nd2 H30 C54 O12"
_cell_length_a       9.194
_cell_length_b       13.733
_cell_length_c       15.411
_cell_angle_alpha    106.044
_cell_angle_beta     94.845
_cell_angle_gamma    97.314

_symmetry_space_group_name_H-M    "P 1"
_symmetry_Int_Tables_number       1

loop_
  _symmetry_equiv_pos_as_xyz
  'x, y, z'

loop_
  _atom_site_type_symbol
  _atom_site_label
  _atom_site_symmetry_multiplicity
  _atom_site_fract_x
  _atom_site_fract_y
  _atom_site_fract_z
  _atom_site_occupancy
  _atom_site_charge
Nd  Nd1       1.0  0.08414  0.16215  0.54353  1.0000 2.0294089541
Nd  Nd2       1.0  0.91586  0.83785  0.45647  1.0000 2.0294089541
H   H1        1.0  0.94019  0.51767  0.56762  1.0000 0.1290611364
H   H2        1.0  0.94600  0.42746  0.79433  1.0000 0.1188667253
H   H3        1.0  0.86538  0.66928  0.64432  1.0000 0.1290611364
H   H4        1.0  0.86923  0.57802  0.87064  1.0000 0.1098874702
H   H5        1.0  0.69599  0.76449  0.71166  1.0000 0.1188667253
H   H6        1.0  0.91954  0.74707  0.94102  1.0000 0.1098874702
H   H7        1.0  0.71129  0.98795  0.94626  1.0000 0.1098874702
H   H8        1.0  0.49336  0.00919  0.87872  1.0000 0.1098874702
H   H9        1.0  0.66970  0.89272  0.64970  1.0000 0.1188667253
H   H10       1.0  0.85562  0.06627  0.07095  1.0000 0.1098874702
H   H11       1.0  0.91205  0.78601  0.08600  1.0000 0.1188667253
H   H12       1.0  0.35616  0.09901  0.80387  1.0000 0.1098874702
H   H13       1.0  0.52234  0.97450  0.57276  1.0000 0.1290611364
H   H14       1.0  0.92989  0.13286  0.22480  1.0000 0.1188667253
H   H15       1.0  0.98406  0.85219  0.24036  1.0000 0.1290611364
H   H16       1.0  0.05981  0.48233  0.43238  1.0000 0.1290611364
H   H17       1.0  0.05400  0.57254  0.20567  1.0000 0.1188667253
H   H18       1.0  0.13462  0.33072  0.35568  1.0000 0.1290611364
H   H19       1.0  0.13077  0.42198  0.12936  1.0000 0.1098874702
H   H20       1.0  0.30401  0.23551  0.28834  1.0000 0.1188667253
H   H21       1.0  0.08046  0.25293  0.05898  1.0000 0.1098874702
H   H22       1.0  0.28871  0.01205  0.05374  1.0000 0.1098874702
H   H23       1.0  0.50664  0.99081  0.12128  1.0000 0.1098874702
H   H24       1.0  0.33030  0.10728  0.35030  1.0000 0.1188667253
H   H25       1.0  0.14438  0.93373  0.92905  1.0000 0.1098874702
H   H26       1.0  0.08795  0.21399  0.91400  1.0000 0.1188667253
H   H27       1.0  0.64384  0.90099  0.19613  1.0000 0.1098874702
H   H28       1.0  0.47766  0.02550  0.42724  1.0000 0.1290611364
H   H29       1.0  0.07011  0.86714  0.77520  1.0000 0.1188667253
H   H30       1.0  0.01594  0.14781  0.75964  1.0000 0.1290611364
C   C1        1.0  0.00220  0.35780  0.62520  1.0000 0.5578623638
C   C2        1.0  0.95120  0.45650  0.67300  1.0000 -0.0080903684
C   C3        1.0  0.92650  0.52980  0.62860  1.0000 -0.080221761
C   C4        1.0  0.92970  0.47570  0.76400  1.0000 -0.0959318354
C   C5        1.0  0.88150  0.62110  0.67480  1.0000 -0.1385204009
C   C6        1.0  0.88410  0.56650  0.80990  1.0000 -0.1508218224
C   C7        1.0  0.86020  0.64130  0.76630  1.0000 0.0615870245
C   C8        1.0  0.81490  0.73930  0.81790  1.0000 0.0814250758
C   C9        1.0  0.72820  0.79220  0.77350  1.0000 -0.1833073123
C   C10       1.0  0.86130  0.78150  0.91120  1.0000 -0.2056360915
C   C11       1.0  0.68930  0.88580  0.82050  1.0000 0.0874483958
C   C12       1.0  0.82250  0.87400  0.96070  1.0000 0.0814250758
C   C13       1.0  0.59790  0.94180  0.77240  1.0000 0.0688150935
C   C14       1.0  0.73700  0.92580  0.91430  1.0000 -0.2006559222
C   C15       1.0  0.87270  0.91820  0.06050  1.0000 0.0688150935
C   C16       1.0  0.50140  0.00340  0.81780  1.0000 -0.1607716754
C   C17       1.0  0.60540  0.93280  0.68060  1.0000 -0.1385204009
C   C18       1.0  0.88080  0.02280  0.10460  1.0000 -0.1508218224
C   C19       1.0  0.91420  0.85560  0.11370  1.0000 -0.1508218224
C   C20       1.0  0.41720  0.05630  0.77250  1.0000 -0.0885814242
C   C21       1.0  0.51810  0.98280  0.63440  1.0000 -0.080221761
C   C22       1.0  0.92570  0.06300  0.19710  1.0000 -0.0885814242
C   C23       1.0  0.95850  0.89540  0.20650  1.0000 -0.0885814242
C   C24       1.0  0.42430  0.04540  0.68040  1.0000 -0.0215019686
C   C25       1.0  0.96460  0.99940  0.24910  1.0000 -0.030848585
C   C26       1.0  0.32790  0.09900  0.63220  1.0000 0.5779634938
C   C27       1.0  0.00950  0.04610  0.34940  1.0000 0.6020981893
C   C28       1.0  0.99780  0.64220  0.37480  1.0000 0.5578623638
C   C29       1.0  0.04880  0.54350  0.32700  1.0000 -0.0080903684
C   C30       1.0  0.07350  0.47020  0.37140  1.0000 -0.080221761
C   C31       1.0  0.07030  0.52430  0.23600  1.0000 -0.0959318354
C   C32       1.0  0.11850  0.37890  0.32520  1.0000 -0.1385204009
C   C33       1.0  0.11590  0.43350  0.19010  1.0000 -0.1508218224
C   C34       1.0  0.13980  0.35870  0.23370  1.0000 0.0615870245
C   C35       1.0  0.18510  0.26070  0.18210  1.0000 0.0874483958
C   C36       1.0  0.27180  0.20780  0.22650  1.0000 -0.1833073123
C   C37       1.0  0.13870  0.21850  0.08880  1.0000 -0.2056360915
C   C38       1.0  0.31070  0.11420  0.17950  1.0000 0.0874483958
C   C39       1.0  0.17750  0.12600  0.03930  1.0000 0.0814250758
C   C40       1.0  0.40210  0.05820  0.22760  1.0000 0.0688150935
C   C41       1.0  0.26300  0.07420  0.08570  1.0000 -0.2006559222
C   C42       1.0  0.12730  0.08180  0.93950  1.0000 0.0688150935
C   C43       1.0  0.49860  0.99660  0.18220  1.0000 -0.1607716754
C   C44       1.0  0.39460  0.06720  0.31940  1.0000 -0.1385204009
C   C45       1.0  0.11920  0.97720  0.89540  1.0000 -0.1508218224
C   C46       1.0  0.08580  0.14440  0.88630  1.0000 -0.1508218224
C   C47       1.0  0.58280  0.94370  0.22750  1.0000 -0.0885814242
C   C48       1.0  0.48190  0.01720  0.36560  1.0000 -0.080221761
C   C49       1.0  0.07430  0.93700  0.80290  1.0000 -0.0885814242
C   C50       1.0  0.04150  0.10460  0.79350  1.0000 -0.0885814242
C   C51       1.0  0.57570  0.95460  0.31960  1.0000 -0.0215019686
C   C52       1.0  0.03540  0.00060  0.75090  1.0000 -0.030848585
C   C53       1.0  0.67210  0.90100  0.36780  1.0000 0.5779634938
C   C54       1.0  0.99050  0.95390  0.65060  1.0000 0.6020981893
O   O1        1.0  0.04990  0.14110  0.37971  1.0000 -0.6163867488
O   O2        1.0  0.00630  0.98950  0.40361  1.0000 -0.7355628981
O   O3        1.0  0.01720  0.33610  0.54200  1.0000 -0.6369354501
O   O4        1.0  0.02800  0.29660  0.67150  1.0000 -0.6620621159
O   O5        1.0  0.27280  0.17380  0.67644  1.0000 -0.6143162623
O   O6        1.0  0.29800  0.06480  0.54490  1.0000 -0.6620621159
O   O7        1.0  0.95010  0.85890  0.62029  1.0000 -0.6163867488
O   O8        1.0  0.99370  0.01050  0.59639  1.0000 -0.7355628981
O   O9        1.0  0.98280  0.66390  0.45800  1.0000 -0.6369354501
O   O10       1.0  0.97200  0.70340  0.32850  1.0000 -0.6620621159
O   O11       1.0  0.72720  0.82620  0.32356  1.0000 -0.6143162623
O   O12       1.0  0.70200  0.93520  0.45510  1.0000 -0.6620621159
