# DDEC6 charges by PACMAN v1.1 (https://github.com/mtap-research/PACMAN-charge/)
data_2023[Cu][kgm]2[ASR]1
_chemical_formula_sum              "Cu6 H18 C48 N30 O24"
_cell_length_a       18.7
_cell_length_b       18.7
_cell_length_c       6.834
_cell_angle_alpha    90
_cell_angle_beta     90
_cell_angle_gamma    120

_symmetry_space_group_name_H-M    "P 1"
_symmetry_Int_Tables_number       1

loop_
  _symmetry_equiv_pos_as_xyz
  'x, y, z'

loop_
  _atom_site_type_symbol
  _atom_site_label
  _atom_site_symmetry_multiplicity
  _atom_site_fract_x
  _atom_site_fract_y
  _atom_site_fract_z
  _atom_site_occupancy
  _atom_site_charge
Cu  Cu1       1.0  0.47684  0.52316  0.65522  1.0000 0.8107421552
Cu  Cu2       1.0  0.47684  0.95368  0.65522  1.0000 0.8107421552
Cu  Cu3       1.0  0.04632  0.52316  0.65522  1.0000 0.8107421552
Cu  Cu4       1.0  0.52316  0.47684  0.34478  1.0000 0.8107421552
Cu  Cu5       1.0  0.52316  0.04632  0.34478  1.0000 0.8107421552
Cu  Cu6       1.0  0.95368  0.47684  0.34478  1.0000 0.8107421552
H   H1        1.0  0.29540  0.37598  0.00779  1.0000 0.1297217158
H   H2        1.0  0.62402  0.91942  0.00779  1.0000 0.1297217158
H   H3        1.0  0.08058  0.70460  0.00779  1.0000 0.1297217158
H   H4        1.0  0.37598  0.29540  0.99221  1.0000 0.1297217158
H   H5        1.0  0.70460  0.08058  0.99221  1.0000 0.1297217158
H   H6        1.0  0.91942  0.62402  0.99221  1.0000 0.1297217158
H   H7        1.0  0.70460  0.62402  0.99221  1.0000 0.1297217158
H   H8        1.0  0.37598  0.08058  0.99221  1.0000 0.1297217158
H   H9        1.0  0.91942  0.29540  0.99221  1.0000 0.1297217158
H   H10       1.0  0.62402  0.70460  0.00779  1.0000 0.1297217158
H   H11       1.0  0.29540  0.91942  0.00779  1.0000 0.1297217158
H   H12       1.0  0.08058  0.37598  0.00779  1.0000 0.1297217158
H   H13       1.0  0.23324  0.46649  0.47080  1.0000 0.1297217158
H   H14       1.0  0.53351  0.76675  0.47080  1.0000 0.1297217158
H   H15       1.0  0.23324  0.76675  0.47080  1.0000 0.1297217158
H   H16       1.0  0.46649  0.23325  0.52920  1.0000 0.1297217158
H   H17       1.0  0.76675  0.23325  0.52920  1.0000 0.1297217158
H   H18       1.0  0.76675  0.53351  0.52920  1.0000 0.1297217158
C   C1        1.0  0.27820  0.42590  0.25220  1.0000 0.0074601756
C   C2        1.0  0.57410  0.85230  0.25220  1.0000 0.0074601756
C   C3        1.0  0.14770  0.72180  0.25220  1.0000 0.0074601756
C   C4        1.0  0.42590  0.27820  0.74780  1.0000 0.0074601756
C   C5        1.0  0.72180  0.14770  0.74780  1.0000 0.0074601756
C   C6        1.0  0.85230  0.57410  0.74780  1.0000 0.0074601756
C   C7        1.0  0.72180  0.57410  0.74780  1.0000 0.0074601756
C   C8        1.0  0.42590  0.14770  0.74780  1.0000 0.0074601756
C   C9        1.0  0.85230  0.27820  0.74780  1.0000 0.0074601756
C   C10       1.0  0.57410  0.72180  0.25220  1.0000 0.0074601756
C   C11       1.0  0.27820  0.85230  0.25220  1.0000 0.0074601756
C   C12       1.0  0.14770  0.42590  0.25220  1.0000 0.0074601756
C   C13       1.0  0.35990  0.45140  0.34780  1.0000 0.5745062784
C   C14       1.0  0.54860  0.90850  0.34780  1.0000 0.5745062784
C   C15       1.0  0.09150  0.64010  0.34780  1.0000 0.5745062784
C   C16       1.0  0.45140  0.35990  0.65220  1.0000 0.5745062784
C   C17       1.0  0.64010  0.09150  0.65220  1.0000 0.5745062784
C   C18       1.0  0.90850  0.54860  0.65220  1.0000 0.5745062784
C   C19       1.0  0.64010  0.54860  0.65220  1.0000 0.5745062784
C   C20       1.0  0.45140  0.09150  0.65220  1.0000 0.5745062784
C   C21       1.0  0.90850  0.35990  0.65220  1.0000 0.5745062784
C   C22       1.0  0.54860  0.64010  0.34780  1.0000 0.5745062784
C   C23       1.0  0.35990  0.90850  0.34780  1.0000 0.5745062784
C   C24       1.0  0.09150  0.45140  0.34780  1.0000 0.5745062784
C   C25       1.0  0.18360  0.36720  0.98090  1.0000 0.0810405269
C   C26       1.0  0.63280  0.81640  0.98090  1.0000 0.0810405269
C   C27       1.0  0.18360  0.81640  0.98090  1.0000 0.0810405269
C   C28       1.0  0.36720  0.18360  0.01910  1.0000 0.0810405269
C   C29       1.0  0.81640  0.18360  0.01910  1.0000 0.0810405269
C   C30       1.0  0.81640  0.63280  0.01910  1.0000 0.0810405269
C   C31       1.0  0.25840  0.38780  0.07050  1.0000 -0.1931362892
C   C32       1.0  0.61220  0.87060  0.07050  1.0000 -0.1931362892
C   C33       1.0  0.12940  0.74160  0.07050  1.0000 -0.1931362892
C   C34       1.0  0.38780  0.25840  0.92950  1.0000 -0.1931362892
C   C35       1.0  0.74160  0.12940  0.92950  1.0000 -0.1931362892
C   C36       1.0  0.87060  0.61220  0.92950  1.0000 -0.1931362892
C   C37       1.0  0.74160  0.61220  0.92950  1.0000 -0.1931362892
C   C38       1.0  0.38780  0.12940  0.92950  1.0000 -0.1931362892
C   C39       1.0  0.87060  0.25840  0.92950  1.0000 -0.1931362892
C   C40       1.0  0.61220  0.74160  0.07050  1.0000 -0.1931362892
C   C41       1.0  0.25840  0.87060  0.07050  1.0000 -0.1931362892
C   C42       1.0  0.12940  0.38780  0.07050  1.0000 -0.1931362892
C   C43       1.0  0.22170  0.44340  0.34620  1.0000 -0.1601919874
C   C44       1.0  0.55660  0.77830  0.34620  1.0000 -0.1601919874
C   C45       1.0  0.22170  0.77830  0.34620  1.0000 -0.1601919874
C   C46       1.0  0.44340  0.22170  0.65380  1.0000 -0.1601919874
C   C47       1.0  0.77830  0.22170  0.65380  1.0000 -0.1601919874
C   C48       1.0  0.77830  0.55660  0.65380  1.0000 -0.1601919874
N   N1        1.0  0.09960  0.30290  0.72010  1.0000 0.2127256209
N   N2        1.0  0.69710  0.79670  0.72010  1.0000 0.2127256209
N   N3        1.0  0.20330  0.90040  0.72010  1.0000 0.2127256209
N   N4        1.0  0.30290  0.09960  0.27990  1.0000 0.2127256209
N   N5        1.0  0.90040  0.20330  0.27990  1.0000 0.2127256209
N   N6        1.0  0.79670  0.69710  0.27990  1.0000 0.2127256209
N   N7        1.0  0.90040  0.69710  0.27990  1.0000 0.2127256209
N   N8        1.0  0.30290  0.20330  0.27990  1.0000 0.2127256209
N   N9        1.0  0.79670  0.09960  0.27990  1.0000 0.2127256209
N   N10       1.0  0.69710  0.90040  0.72010  1.0000 0.2127256209
N   N11       1.0  0.09960  0.79670  0.72010  1.0000 0.2127256209
N   N12       1.0  0.20330  0.30290  0.72010  1.0000 0.2163105463
N   N13       1.0  0.16380  0.32760  0.79470  1.0000 0.1015847082
N   N14       1.0  0.67240  0.83620  0.79470  1.0000 0.1015847082
N   N15       1.0  0.16380  0.83620  0.79470  1.0000 0.1015847082
N   N16       1.0  0.32760  0.16380  0.20530  1.0000 0.1015847082
N   N17       1.0  0.83620  0.16380  0.20530  1.0000 0.1015847082
N   N18       1.0  0.83620  0.67240  0.20530  1.0000 0.1015847082
N   N19       1.0  0.03990  0.27830  0.63700  1.0000 -0.1828252134
N   N20       1.0  0.72170  0.76160  0.63700  1.0000 -0.1828252134
N   N21       1.0  0.23840  0.96010  0.63700  1.0000 -0.1828252134
N   N22       1.0  0.27830  0.03990  0.36300  1.0000 -0.1828252134
N   N23       1.0  0.96010  0.23840  0.36300  1.0000 -0.1828252134
N   N24       1.0  0.76160  0.72170  0.36300  1.0000 -0.1828252134
N   N25       1.0  0.96010  0.72170  0.36300  1.0000 -0.1828252134
N   N26       1.0  0.27830  0.23840  0.36300  1.0000 -0.1828252134
N   N27       1.0  0.76160  0.03990  0.36300  1.0000 -0.1828252134
N   N28       1.0  0.72170  0.96010  0.63700  1.0000 -0.1828252134
N   N29       1.0  0.03990  0.76160  0.63700  1.0000 -0.1828252134
N   N30       1.0  0.23840  0.27830  0.63700  1.0000 -0.1828252134
O   O1        1.0  0.37140  0.48120  0.51780  1.0000 -0.5234219228
O   O2        1.0  0.51880  0.89020  0.51780  1.0000 -0.5234219228
O   O3        1.0  0.10980  0.62860  0.51780  1.0000 -0.5234219228
O   O4        1.0  0.48120  0.37140  0.48220  1.0000 -0.5234219228
O   O5        1.0  0.62860  0.10980  0.48220  1.0000 -0.5234219228
O   O6        1.0  0.89020  0.51880  0.48220  1.0000 -0.5234219228
O   O7        1.0  0.62860  0.51880  0.48220  1.0000 -0.5234219228
O   O8        1.0  0.48120  0.10980  0.48220  1.0000 -0.5234219228
O   O9        1.0  0.89020  0.37140  0.48220  1.0000 -0.5234219228
O   O10       1.0  0.51880  0.62860  0.51780  1.0000 -0.5234219228
O   O11       1.0  0.37140  0.89020  0.51780  1.0000 -0.5234219228
O   O12       1.0  0.10980  0.48120  0.51780  1.0000 -0.5234219228
O   O13       1.0  0.41100  0.44230  0.24880  1.0000 -0.5067776685
O   O14       1.0  0.55770  0.96870  0.24880  1.0000 -0.5067776685
O   O15       1.0  0.03130  0.58900  0.24880  1.0000 -0.5067776685
O   O16       1.0  0.44230  0.41100  0.75120  1.0000 -0.5067776685
O   O17       1.0  0.58900  0.03130  0.75120  1.0000 -0.5067776685
O   O18       1.0  0.96870  0.55770  0.75120  1.0000 -0.5067776685
O   O19       1.0  0.58900  0.55770  0.75120  1.0000 -0.5067776685
O   O20       1.0  0.44230  0.03130  0.75120  1.0000 -0.5067776685
O   O21       1.0  0.96870  0.41100  0.75120  1.0000 -0.5067776685
O   O22       1.0  0.55770  0.58900  0.24880  1.0000 -0.5067776685
O   O23       1.0  0.41100  0.96870  0.24880  1.0000 -0.5067776685
O   O24       1.0  0.03130  0.44230  0.24880  1.0000 -0.5067776685
