# DDEC6 charges by PACMAN v1.1 (https://github.com/mtap-research/PACMAN-charge/)
data_2024[Sm][sql]2[ASR]2
_chemical_formula_sum              "Sm4 H24 C38 N4 O24"
_cell_length_a       6.00619
_cell_length_b       26.6761
_cell_length_c       11.4263
_cell_angle_alpha    90
_cell_angle_beta     101.705
_cell_angle_gamma    90

_symmetry_space_group_name_H-M    "P 1"
_symmetry_Int_Tables_number       1

loop_
  _symmetry_equiv_pos_as_xyz
  'x, y, z'

loop_
  _atom_site_type_symbol
  _atom_site_label
  _atom_site_symmetry_multiplicity
  _atom_site_fract_x
  _atom_site_fract_y
  _atom_site_fract_z
  _atom_site_occupancy
  _atom_site_charge
Sm  Sm1       1.0  0.45600  0.43777  0.11135  1.0000 1.9846236401
Sm  Sm2       1.0  0.54400  0.93777  0.88865  1.0000 1.9846236401
Sm  Sm3       1.0  0.54400  0.56223  0.88865  1.0000 1.9846236401
Sm  Sm4       1.0  0.45600  0.06223  0.11135  1.0000 1.9846236401
H   H1        1.0  0.21240  0.39900  0.48800  1.0000 0.1087801002
H   H2        1.0  0.78760  0.89900  0.51200  1.0000 0.1087801002
H   H3        1.0  0.78760  0.60100  0.51200  1.0000 0.1087801002
H   H4        1.0  0.21240  0.10100  0.48800  1.0000 0.1087801002
H   H5        1.0  0.36930  0.40750  0.68920  1.0000 0.1301602416
H   H6        1.0  0.63070  0.90750  0.31080  1.0000 0.1301602416
H   H7        1.0  0.63070  0.59250  0.31080  1.0000 0.1301602416
H   H8        1.0  0.36930  0.09250  0.68920  1.0000 0.1301602416
H   H9        1.0  0.67180  0.47290  0.52270  1.0000 0.1009229712
H   H10       1.0  0.32820  0.97290  0.47730  1.0000 0.1009229712
H   H11       1.0  0.32820  0.52710  0.47730  1.0000 0.1009229712
H   H12       1.0  0.67180  0.02710  0.52270  1.0000 0.1009229712
H   H13       1.0  0.97920  0.29790  0.12650  1.0000 0.1301602416
H   H14       1.0  0.02080  0.79790  0.87350  1.0000 0.1301602416
H   H15       1.0  0.02080  0.70210  0.87350  1.0000 0.1301602416
H   H16       1.0  0.97920  0.20210  0.12650  1.0000 0.1301602416
H   H17       1.0  0.11990  0.29520  0.25750  1.0000 0.1087801002
H   H18       1.0  0.88010  0.79520  0.74250  1.0000 0.1087801002
H   H19       1.0  0.88010  0.70480  0.74250  1.0000 0.1087801002
H   H20       1.0  0.11990  0.20480  0.25750  1.0000 0.1087801002
H   H21       1.0  0.40100  0.25000  0.18710  1.0000 0.0789837886
H   H22       1.0  0.59900  0.75000  0.81290  1.0000 0.0789837886
H   H23       1.0  0.24400  0.25000  0.05960  1.0000 0.0789837886
H   H24       1.0  0.75600  0.75000  0.94040  1.0000 0.0789837886
C   C1        1.0  0.13030  0.41580  0.53680  1.0000 0.0789837886
C   C2        1.0  0.86970  0.91580  0.46320  1.0000 0.0789837886
C   C3        1.0  0.86970  0.58420  0.46320  1.0000 0.0789837886
C   C4        1.0  0.13030  0.08420  0.53680  1.0000 0.0789837886
C   C5        1.0  0.22700  0.42100  0.65780  1.0000 -0.1625797756
C   C6        1.0  0.77300  0.92100  0.34220  1.0000 -0.1625797756
C   C7        1.0  0.77300  0.57900  0.34220  1.0000 -0.1625797756
C   C8        1.0  0.22700  0.07900  0.65780  1.0000 -0.1625797756
C   C9        1.0  0.10760  0.44670  0.73040  1.0000 0.0165474221
C   C10       1.0  0.89240  0.94670  0.26960  1.0000 0.0165474221
C   C11       1.0  0.89240  0.55330  0.26960  1.0000 0.0165474221
C   C12       1.0  0.10760  0.05330  0.73040  1.0000 0.0165474221
C   C13       1.0  0.21180  0.44940  0.86210  1.0000 0.6366115652
C   C14       1.0  0.78820  0.94940  0.13790  1.0000 0.6366115652
C   C15       1.0  0.78820  0.55060  0.13790  1.0000 0.6366115652
C   C16       1.0  0.21180  0.05060  0.86210  1.0000 0.6366115652
C   C17       1.0  0.89800  0.46800  0.67890  1.0000 -0.0964454625
C   C18       1.0  0.10200  0.96800  0.32110  1.0000 -0.0964454625
C   C19       1.0  0.10200  0.53200  0.32110  1.0000 -0.0964454625
C   C20       1.0  0.89800  0.03200  0.67890  1.0000 -0.0964454625
C   C21       1.0  0.76560  0.49870  0.75040  1.0000 0.5798129432
C   C22       1.0  0.23440  0.99870  0.24960  1.0000 0.5798129432
C   C23       1.0  0.23440  0.50130  0.24960  1.0000 0.5798129432
C   C24       1.0  0.76560  0.00130  0.75040  1.0000 0.5798129432
C   C25       1.0  0.81330  0.45960  0.55690  1.0000 0.0745357566
C   C26       1.0  0.18670  0.95960  0.44310  1.0000 0.0745357566
C   C27       1.0  0.18670  0.54040  0.44310  1.0000 0.0745357566
C   C28       1.0  0.81330  0.04040  0.55690  1.0000 0.0745357566
C   C29       1.0  0.25200  0.34490  0.15470  1.0000 0.6215976171
C   C30       1.0  0.74800  0.84490  0.84530  1.0000 0.6215976171
C   C31       1.0  0.74800  0.65510  0.84530  1.0000 0.6215976171
C   C32       1.0  0.25200  0.15510  0.15470  1.0000 0.6215976171
C   C33       1.0  0.13230  0.29680  0.17430  1.0000 -0.3133816428
C   C34       1.0  0.86770  0.79680  0.82570  1.0000 -0.3150098629
C   C35       1.0  0.86770  0.70320  0.82570  1.0000 -0.3150098629
C   C36       1.0  0.13230  0.20320  0.17430  1.0000 -0.3133816428
C   C37       1.0  0.24400  0.25000  0.14440  1.0000 -0.1296100028
C   C38       1.0  0.75600  0.75000  0.85560  1.0000 -0.1296100028
N   N1        1.0  0.92500  0.43380  0.48770  1.0000 -0.2607122965
N   N2        1.0  0.07500  0.93380  0.51230  1.0000 -0.2607122965
N   N3        1.0  0.07500  0.56620  0.51230  1.0000 -0.2607122965
N   N4        1.0  0.92500  0.06620  0.48770  1.0000 -0.2607122965
O   O1        1.0  0.17520  0.41370  0.92630  1.0000 -0.5711052127
O   O2        1.0  0.82480  0.91370  0.07370  1.0000 -0.5711052127
O   O3        1.0  0.82480  0.58630  0.07370  1.0000 -0.5711052127
O   O4        1.0  0.17520  0.08630  0.92630  1.0000 -0.5711052127
O   O5        1.0  0.34640  0.48410  0.90250  1.0000 -0.7202925093
O   O6        1.0  0.65360  0.98410  0.09750  1.0000 -0.7202925093
O   O7        1.0  0.65360  0.51590  0.09750  1.0000 -0.7202925093
O   O8        1.0  0.34640  0.01590  0.90250  1.0000 -0.7202925093
O   O9        1.0  0.83340  0.50060  0.86350  1.0000 -0.595666141
O   O10       1.0  0.16660  0.00060  0.13650  1.0000 -0.5948918171
O   O11       1.0  0.16660  0.49940  0.13650  1.0000 -0.5948918171
O   O12       1.0  0.83340  0.99940  0.86350  1.0000 -0.595666141
O   O13       1.0  0.59100  0.52180  0.69790  1.0000 -0.6216950622
O   O14       1.0  0.40900  0.02180  0.30210  1.0000 -0.6216950622
O   O15       1.0  0.40900  0.47820  0.30210  1.0000 -0.6216950622
O   O16       1.0  0.59100  0.97820  0.69790  1.0000 -0.6216950622
O   O17       1.0  0.17720  0.38520  0.18610  1.0000 -0.6216950622
O   O18       1.0  0.82280  0.88520  0.81390  1.0000 -0.6216950622
O   O19       1.0  0.82280  0.61480  0.81390  1.0000 -0.6216950622
O   O20       1.0  0.17720  0.11480  0.18610  1.0000 -0.6216950622
O   O21       1.0  0.42500  0.34480  0.11100  1.0000 -0.6216950622
O   O22       1.0  0.57500  0.84480  0.88900  1.0000 -0.6216950622
O   O23       1.0  0.57500  0.65520  0.88900  1.0000 -0.6216950622
O   O24       1.0  0.42500  0.15520  0.11100  1.0000 -0.6216950622
