# DDEC6 charges by PACMAN v1.1 (https://github.com/mtap-research/PACMAN-charge/)
data_2024[Eu][nan]2[ASR]1
_chemical_formula_sum              "Eu4 H108 C168 O24"
_cell_length_a       15.3422
_cell_length_b       15.6473
_cell_length_c       21.0007
_cell_angle_alpha    98.489
_cell_angle_beta     97.894
_cell_angle_gamma    111.685

_symmetry_space_group_name_H-M    "P 1"
_symmetry_Int_Tables_number       1

loop_
  _symmetry_equiv_pos_as_xyz
  'x, y, z'

loop_
  _atom_site_type_symbol
  _atom_site_label
  _atom_site_symmetry_multiplicity
  _atom_site_fract_x
  _atom_site_fract_y
  _atom_site_fract_z
  _atom_site_occupancy
  _atom_site_charge
Eu  Eu1       1.0  0.34677  0.35877  0.46304  1.0000 2.0881369793
Eu  Eu2       1.0  0.65323  0.64123  0.53696  1.0000 2.0881369793
Eu  Eu3       1.0  0.93377  0.91115  0.55768  1.0000 2.1293132984
Eu  Eu4       1.0  0.06623  0.08885  0.44232  1.0000 2.1293132984
H   H1        1.0  0.81740  0.04950  0.32960  1.0000 0.1098935056
H   H2        1.0  0.18260  0.95050  0.67040  1.0000 0.1098935056
H   H3        1.0  0.88340  0.55650  0.64090  1.0000 0.1098935056
H   H4        1.0  0.11660  0.44350  0.35910  1.0000 0.1098935056
H   H5        1.0  0.63440  0.87470  0.42100  1.0000 0.1285742567
H   H6        1.0  0.36560  0.12530  0.57900  1.0000 0.1285742567
H   H7        1.0  0.79760  0.60350  0.75720  1.0000 0.1184139274
H   H8        1.0  0.20240  0.39650  0.24280  1.0000 0.1184139274
H   H9        1.0  0.68860  0.04680  0.25640  1.0000 0.1098935056
H   H10       1.0  0.31140  0.95320  0.74360  1.0000 0.1098935056
H   H11       1.0  0.93590  0.10720  0.67160  1.0000 0.1184139274
H   H12       1.0  0.06410  0.89280  0.32840  1.0000 0.1184139274
H   H13       1.0  0.01170  0.56400  0.71770  1.0000 0.1098935056
H   H14       1.0  0.98830  0.43600  0.28230  1.0000 0.1098935056
H   H15       1.0  0.18920  0.78060  0.65410  1.0000 0.1184139274
H   H16       1.0  0.81080  0.21940  0.34590  1.0000 0.1184139274
H   H17       1.0  0.05860  0.78840  0.58900  1.0000 0.1184139274
H   H18       1.0  0.94140  0.21160  0.41100  1.0000 0.1184139274
H   H19       1.0  0.25840  0.47390  0.58790  1.0000 0.1285742567
H   H20       1.0  0.74160  0.52610  0.41210  1.0000 0.1285742567
H   H21       1.0  0.88170  0.52690  0.80940  1.0000 0.1098935056
H   H22       1.0  0.11830  0.47310  0.19060  1.0000 0.1098935056
H   H23       1.0  0.64920  0.36600  0.61730  1.0000 0.1285742567
H   H24       1.0  0.35080  0.63400  0.38270  1.0000 0.1285742567
H   H25       1.0  0.48320  0.71460  0.68130  1.0000 0.1184139274
H   H26       1.0  0.51680  0.28540  0.31870  1.0000 0.1184139274
H   H27       1.0  0.73620  0.29080  0.66667  1.0000 0.1184139274
H   H28       1.0  0.26380  0.70920  0.33333  1.0000 0.1184139274
H   H29       1.0  0.54940  0.10990  0.34970  1.0000 0.1098935056
H   H30       1.0  0.45060  0.89010  0.65030  1.0000 0.1098935056
H   H31       1.0  0.88710  0.18770  0.75190  1.0000 0.1098935056
H   H32       1.0  0.11290  0.81230  0.24810  1.0000 0.1098935056
H   H33       1.0  0.50610  0.87550  0.34940  1.0000 0.1184139274
H   H34       1.0  0.49390  0.12450  0.65060  1.0000 0.1184139274
H   H35       1.0  0.45990  0.17540  0.40460  1.0000 0.1285742567
H   H36       1.0  0.54010  0.82460  0.59540  1.0000 0.1285742567
H   H37       1.0  0.38630  0.75740  0.74410  1.0000 0.1098935056
H   H38       1.0  0.61370  0.24260  0.25590  1.0000 0.1098935056
H   H39       1.0  0.08850  0.41690  0.82030  1.0000 0.1098935056
H   H40       1.0  0.91150  0.58310  0.17970  1.0000 0.1098935056
H   H41       1.0  0.90890  0.24690  0.91560  1.0000 0.1098935056
H   H42       1.0  0.09110  0.75310  0.08440  1.0000 0.1098935056
H   H43       1.0  0.15990  0.51980  0.64750  1.0000 0.1098935056
H   H44       1.0  0.84010  0.48020  0.35250  1.0000 0.1098935056
H   H45       1.0  0.36250  0.82270  0.08310  1.0000 0.1098935056
H   H46       1.0  0.63750  0.17730  0.91690  1.0000 0.1098935056
H   H47       1.0  0.02430  0.33550  0.59230  1.0000 0.1184139274
H   H48       1.0  0.97570  0.66450  0.40770  1.0000 0.1184139274
H   H49       1.0  0.72010  0.29570  0.83480  1.0000 0.1098935056
H   H50       1.0  0.27990  0.70430  0.16520  1.0000 0.1098935056
H   H51       1.0  0.21740  0.96540  0.29670  1.0000 0.1098935056
H   H52       1.0  0.78260  0.03460  0.70330  1.0000 0.1098935056
H   H53       1.0  0.97120  0.49730  0.94180  1.0000 0.1098935056
H   H54       1.0  0.02880  0.50270  0.05820  1.0000 0.1098935056
H   H55       1.0  0.88860  0.54320  0.01540  1.0000 0.1022659772
H   H56       1.0  0.11140  0.45680  0.98460  1.0000 0.1022659772
H   H57       1.0  0.63950  0.34070  0.91090  1.0000 0.1098935056
H   H58       1.0  0.36050  0.65930  0.08910  1.0000 0.1098935056
H   H59       1.0  0.21190  0.37690  0.86610  1.0000 0.1098935056
H   H60       1.0  0.78810  0.62310  0.13390  1.0000 0.1098935056
H   H61       1.0  0.30610  0.90020  0.24140  1.0000 0.1098935056
H   H62       1.0  0.69390  0.09980  0.75860  1.0000 0.1098935056
H   H63       1.0  0.96730  0.41310  0.66820  1.0000 0.1098935056
H   H64       1.0  0.03270  0.58690  0.33180  1.0000 0.1098935056
H   H65       1.0  0.18790  0.85220  0.80680  1.0000 0.1098935056
H   H66       1.0  0.81210  0.14780  0.19320  1.0000 0.1098935056
H   H67       1.0  0.03220  0.20460  0.95920  1.0000 0.1098935056
H   H68       1.0  0.96780  0.79540  0.04080  1.0000 0.1098935056
H   H69       1.0  0.72360  0.46590  0.00040  1.0000 0.1022659772
H   H70       1.0  0.27640  0.53410  0.99960  1.0000 0.1022659772
H   H71       1.0  0.27310  0.55210  0.80740  1.0000 0.1098935056
H   H72       1.0  0.72690  0.44790  0.19260  1.0000 0.1098935056
H   H73       1.0  0.33490  0.81420  0.90980  1.0000 0.1098935056
H   H74       1.0  0.66510  0.18580  0.09020  1.0000 0.1098935056
H   H75       1.0  0.09780  0.62240  0.88430  1.0000 0.1184139274
H   H76       1.0  0.90220  0.37760  0.11570  1.0000 0.1184139274
H   H77       1.0  0.22910  0.82220  0.01600  1.0000 0.1098935056
H   H78       1.0  0.77090  0.17780  0.98400  1.0000 0.1098935056
H   H79       1.0  0.99900  0.82620  0.92580  1.0000 0.1098935056
H   H80       1.0  0.00100  0.17380  0.07420  1.0000 0.1098935056
H   H81       1.0  0.55300  0.81120  0.19220  1.0000 0.1184139274
H   H82       1.0  0.44700  0.18880  0.80780  1.0000 0.1184139274
H   H83       1.0  0.46070  0.80550  0.98050  1.0000 0.1098935056
H   H84       1.0  0.53930  0.19450  0.01950  1.0000 0.1098935056
H   H85       1.0  0.99810  0.67960  0.93590  1.0000 0.1098935056
H   H86       1.0  0.00190  0.32040  0.06410  1.0000 0.1098935056
H   H87       1.0  0.49290  0.67120  0.96530  1.0000 0.1098935056
H   H88       1.0  0.50710  0.32880  0.03470  1.0000 0.1098935056
H   H89       1.0  0.39790  0.54410  0.87950  1.0000 0.1098935056
H   H90       1.0  0.60210  0.45590  0.12050  1.0000 0.1098935056
H   H91       1.0  0.56590  0.01260  0.09050  1.0000 0.1098935056
H   H92       1.0  0.43410  0.98740  0.90950  1.0000 0.1098935056
H   H93       1.0  0.18230  0.26890  0.93370  1.0000 0.1098935056
H   H94       1.0  0.81770  0.73110  0.06630  1.0000 0.1098935056
H   H95       1.0  0.09590  0.91340  0.86330  1.0000 0.1098935056
H   H96       1.0  0.90410  0.08660  0.13670  1.0000 0.1098935056
H   H97       1.0  0.42540  0.08670  0.17890  1.0000 0.1184139274
H   H98       1.0  0.57460  0.91330  0.82110  1.0000 0.1184139274
H   H99       1.0  0.65550  0.77030  0.13020  1.0000 0.1098935056
H   H100      1.0  0.34450  0.22970  0.86980  1.0000 0.1098935056
H   H101      1.0  0.18920  0.95110  0.03280  1.0000 0.1098935056
H   H102      1.0  0.81080  0.04890  0.96720  1.0000 0.1098935056
H   H103      1.0  0.28960  0.08540  0.11100  1.0000 0.1098935056
H   H104      1.0  0.71040  0.91460  0.88900  1.0000 0.1098935056
H   H105      1.0  0.67250  0.97560  0.03420  1.0000 0.1098935056
H   H106      1.0  0.32750  0.02440  0.96580  1.0000 0.1098935056
H   H107      1.0  0.71280  0.85240  0.05400  1.0000 0.1098935056
H   H108      1.0  0.28720  0.14760  0.94600  1.0000 0.1098935056
C   C1        1.0  0.68120  0.54680  0.63775  1.0000 0.5775815332
C   C2        1.0  0.31880  0.45320  0.36225  1.0000 0.5775815332
C   C3        1.0  0.86950  0.67960  0.57119  1.0000 0.6417121375
C   C4        1.0  0.13050  0.32040  0.42881  1.0000 0.6417121375
C   C5        1.0  0.75400  0.01400  0.33382  1.0000 -0.1010350082
C   C6        1.0  0.24600  0.98600  0.66618  1.0000 -0.1010350082
C   C7        1.0  0.82510  0.97410  0.43280  1.0000 0.65939691
C   C8        1.0  0.17490  0.02590  0.56720  1.0000 0.65939691
C   C9        1.0  0.01560  0.16010  0.57315  1.0000 0.6470412695
C   C10       1.0  0.98440  0.83990  0.42685  1.0000 0.6470412695
C   C11       1.0  0.44380  0.56610  0.58735  1.0000 0.6744953477
C   C12       1.0  0.55620  0.43390  0.41265  1.0000 0.6744953477
C   C13       1.0  0.73970  0.96420  0.38384  1.0000 -0.03028718
C   C14       1.0  0.26030  0.03580  0.61616  1.0000 -0.03028718
C   C15       1.0  0.95720  0.67390  0.60912  1.0000 -0.0125413528
C   C16       1.0  0.04280  0.32610  0.39088  1.0000 -0.0125413528
C   C17       1.0  0.94490  0.60540  0.64594  1.0000 -0.0908240866
C   C18       1.0  0.05510  0.39460  0.35406  1.0000 -0.0908240866
C   C19       1.0  0.64570  0.91100  0.38822  1.0000 -0.083987861
C   C20       1.0  0.35430  0.08900  0.61178  1.0000 -0.083987861
C   C21       1.0  0.98570  0.21330  0.62465  1.0000 -0.0211048659
C   C22       1.0  0.01430  0.78670  0.37535  1.0000 -0.0211048659
C   C23       1.0  0.27140  0.11780  0.39353  1.0000 0.65939691
C   C24       1.0  0.72860  0.88220  0.60647  1.0000 0.65939691
C   C25       1.0  0.32890  0.07650  0.35678  1.0000 -0.03028718
C   C26       1.0  0.67110  0.92350  0.64322  1.0000 -0.03028718
C   C27       1.0  0.19800  0.67170  0.73896  1.0000 -0.0211048659
C   C28       1.0  0.80200  0.32830  0.26104  1.0000 -0.0211048659
C   C29       1.0  0.78630  0.54040  0.73824  1.0000 -0.0908240866
C   C30       1.0  0.21370  0.45960  0.26176  1.0000 -0.0908240866
C   C31       1.0  0.90750  0.36110  0.83332  1.0000 -0.03028718
C   C32       1.0  0.09250  0.63890  0.16668  1.0000 -0.03028718
C   C33       1.0  0.11400  0.67370  0.69453  1.0000 0.0777014285
C   C34       1.0  0.88600  0.32630  0.30547  1.0000 0.0777014285
C   C35       1.0  0.67740  0.01260  0.29036  1.0000 -0.1576833813
C   C36       1.0  0.32260  0.98740  0.70964  1.0000 -0.1576833813
C   C37       1.0  0.94410  0.17040  0.67158  1.0000 -0.0908240866
C   C38       1.0  0.05590  0.82960  0.32842  1.0000 -0.0908240866
C   C39       1.0  0.82170  0.40240  0.74121  1.0000 0.0733800812
C   C40       1.0  0.17830  0.59760  0.25879  1.0000 0.0733800812
C   C41       1.0  0.71950  0.49410  0.67982  1.0000 -0.0211048659
C   C42       1.0  0.28050  0.50590  0.32018  1.0000 -0.0211048659
C   C43       1.0  0.02200  0.60810  0.69000  1.0000 -0.1496761291
C   C44       1.0  0.97800  0.39190  0.31000  1.0000 -0.1496761291
C   C45       1.0  0.21300  0.69350  0.80494  1.0000 -0.0211048659
C   C46       1.0  0.78700  0.30650  0.19506  1.0000 -0.0211048659
C   C47       1.0  0.88510  0.35810  0.76844  1.0000 -0.0211048659
C   C48       1.0  0.11490  0.64190  0.23156  1.0000 -0.0211048659
C   C49       1.0  0.58340  0.96170  0.29563  1.0000 0.0733800812
C   C50       1.0  0.41660  0.03830  0.70437  1.0000 0.0733800812
C   C51       1.0  0.12630  0.73780  0.65400  1.0000 -0.1420867211
C   C52       1.0  0.87370  0.26220  0.34600  1.0000 -0.1420867211
C   C53       1.0  0.04900  0.74070  0.61370  1.0000 -0.1098475276
C   C54       1.0  0.95100  0.25930  0.38630  1.0000 -0.1098475276
C   C55       1.0  0.28440  0.53210  0.61920  1.0000 -0.083987861
C   C56       1.0  0.71560  0.46790  0.38080  1.0000 -0.083987861
C   C57       1.0  0.92240  0.30950  0.71879  1.0000 0.0777014285
C   C58       1.0  0.07760  0.69050  0.28121  1.0000 0.0777014285
C   C59       1.0  0.38020  0.58970  0.62877  1.0000 -0.03028718
C   C60       1.0  0.61980  0.41030  0.37123  1.0000 -0.03028718
C   C61       1.0  0.83670  0.49490  0.76905  1.0000 -0.1576833813
C   C62       1.0  0.16330  0.50510  0.23095  1.0000 -0.1576833813
C   C63       1.0  0.48540  0.94540  0.18510  1.0000 -0.0211048659
C   C64       1.0  0.51460  0.05460  0.81490  1.0000 -0.0211048659
C   C65       1.0  0.69890  0.39980  0.65510  1.0000 -0.0908240866
C   C66       1.0  0.30110  0.60020  0.34490  1.0000 -0.0908240866
C   C67       1.0  0.98550  0.33510  0.86224  1.0000 0.0733800812
C   C68       1.0  0.01450  0.66490  0.13776  1.0000 0.0733800812
C   C69       1.0  0.41740  0.67420  0.67499  1.0000 -0.0908240866
C   C70       1.0  0.58260  0.32580  0.32501  1.0000 -0.0908240866
C   C71       1.0  0.75000  0.35490  0.68484  1.0000 -0.1576833813
C   C72       1.0  0.25000  0.64510  0.31516  1.0000 -0.1576833813
C   C73       1.0  0.48140  0.08060  0.33821  1.0000 -0.1496761291
C   C74       1.0  0.51860  0.91940  0.66179  1.0000 -0.1496761291
C   C75       1.0  0.26340  0.64290  0.70218  1.0000 0.0733800812
C   C76       1.0  0.73660  0.35710  0.29782  1.0000 0.0733800812
C   C77       1.0  0.49960  0.96530  0.25170  1.0000 -0.03028718
C   C78       1.0  0.50040  0.03470  0.74830  1.0000 -0.03028718
C   C79       1.0  0.91390  0.21800  0.71900  1.0000 -0.1420867211
C   C80       1.0  0.08610  0.78200  0.28100  1.0000 -0.1420867211
C   C81       1.0  0.56950  0.91100  0.34518  1.0000 -0.1576833813
C   C82       1.0  0.43050  0.08900  0.65482  1.0000 -0.1576833813
C   C83       1.0  0.43750  0.99980  0.28825  1.0000 0.0777014285
C   C84       1.0  0.56250  0.00020  0.71175  1.0000 0.0777014285
C   C85       1.0  0.85390  0.39110  0.88062  1.0000 0.0777014285
C   C86       1.0  0.14610  0.60890  0.11938  1.0000 0.0777014285
C   C87       1.0  0.42820  0.11920  0.37151  1.0000 -0.0908240866
C   C88       1.0  0.57180  0.88080  0.62849  1.0000 -0.0908240866
C   C89       1.0  0.35970  0.70010  0.71190  1.0000 -0.1576833813
C   C90       1.0  0.64030  0.29990  0.28810  1.0000 -0.1576833813
C   C91       1.0  0.07640  0.37350  0.84860  1.0000 -0.1496761291
C   C92       1.0  0.92360  0.62650  0.15140  1.0000 -0.1496761291
C   C93       1.0  0.15060  0.73050  0.83882  1.0000 0.0777014285
C   C94       1.0  0.84940  0.26950  0.16118  1.0000 0.0777014285
C   C95       1.0  0.97000  0.27270  0.90460  1.0000 -0.1496761291
C   C96       1.0  0.03000  0.72730  0.09540  1.0000 -0.1496761291
C   C97       1.0  0.22620  0.55910  0.65510  1.0000 -0.1496761291
C   C98       1.0  0.77380  0.44090  0.34490  1.0000 -0.1496761291
C   C99       1.0  0.34700  0.87630  0.09020  1.0000 -0.1576833813
C   C100      1.0  0.65300  0.12370  0.90980  1.0000 -0.1576833813
C   C101      1.0  0.29200  0.68480  0.84990  1.0000 0.0777014285
C   C102      1.0  0.70800  0.31520  0.15010  1.0000 0.0777014285
C   C103      1.0  0.55050  0.91710  0.14870  1.0000 0.0733800812
C   C104      1.0  0.44950  0.08290  0.85130  1.0000 0.0733800812
C   C105      1.0  0.99510  0.30460  0.62420  1.0000 -0.0908240866
C   C106      1.0  0.00490  0.69540  0.37580  1.0000 -0.0908240866
C   C107      1.0  0.40450  0.95240  0.14070  1.0000 0.0733800812
C   C108      1.0  0.59550  0.04760  0.85930  1.0000 0.0733800812
C   C109      1.0  0.75500  0.34580  0.87180  1.0000 -0.1496761291
C   C110      1.0  0.24500  0.65420  0.12820  1.0000 -0.1496761291
C   C111      1.0  0.28540  0.99530  0.30770  1.0000 -0.0908240866
C   C112      1.0  0.71460  0.00470  0.69230  1.0000 -0.0908240866
C   C113      1.0  0.90350  0.46540  0.93500  1.0000 -0.1576833813
C   C114      1.0  0.09650  0.53460  0.06500  1.0000 -0.1576833813
C   C115      1.0  0.85440  0.49240  0.97870  1.0000 -0.1010350082
C   C116      1.0  0.14560  0.50760  0.02130  1.0000 -0.1010350082
C   C117      1.0  0.70700  0.37300  0.91680  1.0000 -0.0908240866
C   C118      1.0  0.29300  0.62700  0.08320  1.0000 -0.0908240866
C   C119      1.0  0.15000  0.34960  0.87550  1.0000 -0.1010350082
C   C120      1.0  0.85000  0.65040  0.12450  1.0000 -0.1010350082
C   C121      1.0  0.33810  0.95670  0.27420  1.0000 -0.1576833813
C   C122      1.0  0.66190  0.04330  0.72580  1.0000 -0.1576833813
C   C123      1.0  0.96230  0.35120  0.67010  1.0000 -0.1576833813
C   C124      1.0  0.03770  0.64880  0.32990  1.0000 -0.1576833813
C   C125      1.0  0.14990  0.81690  0.83350  1.0000 -0.1496761291
C   C126      1.0  0.85010  0.18310  0.16650  1.0000 -0.1496761291
C   C127      1.0  0.04360  0.24790  0.93090  1.0000 -0.1098475276
C   C128      1.0  0.95640  0.75210  0.06910  1.0000 -0.1098475276
C   C129      1.0  0.75670  0.44670  0.96990  1.0000 -0.1010350082
C   C130      1.0  0.24330  0.55330  0.03010  1.0000 -0.1010350082
C   C131      1.0  0.31120  0.60440  0.84240  1.0000 -0.1420867211
C   C132      1.0  0.68880  0.39560  0.15760  1.0000 -0.1420867211
C   C133      1.0  0.34800  0.75910  0.90280  1.0000 -0.1496761291
C   C134      1.0  0.65200  0.24090  0.09720  1.0000 -0.1496761291
C   C135      1.0  0.09580  0.68080  0.87850  1.0000 -0.1496761291
C   C136      1.0  0.90420  0.31920  0.12150  1.0000 -0.1496761291
C   C137      1.0  0.26780  0.87580  0.04990  1.0000 -0.1098475276
C   C138      1.0  0.73220  0.12420  0.95010  1.0000 -0.1098475276
C   C139      1.0  0.03810  0.80200  0.90400  1.0000 -0.1098475276
C   C140      1.0  0.96190  0.19800  0.09600  1.0000 -0.1098475276
C   C141      1.0  0.57620  0.84500  0.15990  1.0000 -0.1496761291
C   C142      1.0  0.42380  0.15500  0.84010  1.0000 -0.1496761291
C   C143      1.0  0.42250  0.75380  0.94510  1.0000 -0.1098475276
C   C144      1.0  0.57750  0.24620  0.05490  1.0000 -0.1098475276
C   C145      1.0  0.03770  0.71550  0.91020  1.0000 -0.1010350082
C   C146      1.0  0.96230  0.28450  0.08980  1.0000 -0.1010350082
C   C147      1.0  0.44150  0.67450  0.93640  1.0000 -0.1098475276
C   C148      1.0  0.55850  0.32550  0.06360  1.0000 -0.1098475276
C   C149      1.0  0.38550  0.59960  0.88530  1.0000 -0.1010350082
C   C150      1.0  0.61450  0.40040  0.11470  1.0000 -0.1010350082
C   C151      1.0  0.58520  0.96400  0.10020  1.0000 -0.1576833813
C   C152      1.0  0.41480  0.03600  0.89980  1.0000 -0.1576833813
C   C153      1.0  0.13250  0.28630  0.91590  1.0000 -0.1098475276
C   C154      1.0  0.86750  0.71370  0.08410  1.0000 -0.1098475276
C   C155      1.0  0.09450  0.85310  0.86660  1.0000 -0.1010350082
C   C156      1.0  0.90550  0.14690  0.13340  1.0000 -0.1010350082
C   C157      1.0  0.38450  0.03150  0.14690  1.0000 -0.1420867211
C   C158      1.0  0.61550  0.96850  0.85310  1.0000 -0.1420867211
C   C159      1.0  0.63800  0.82080  0.12290  1.0000 -0.1098475276
C   C160      1.0  0.36200  0.17920  0.87710  1.0000 -0.1098475276
C   C161      1.0  0.24540  0.95220  0.05900  1.0000 -0.1188672437
C   C162      1.0  0.75460  0.04780  0.94100  1.0000 -0.1188672437
C   C163      1.0  0.30380  0.03090  0.10610  1.0000 -0.1010350082
C   C164      1.0  0.69620  0.96910  0.89390  1.0000 -0.1010350082
C   C165      1.0  0.64710  0.94130  0.06590  1.0000 -0.1098475276
C   C166      1.0  0.35290  0.05870  0.93410  1.0000 -0.1098475276
C   C167      1.0  0.67120  0.86900  0.07810  1.0000 -0.1098475276
C   C168      1.0  0.32880  0.13100  0.92190  1.0000 -0.1098475276
O   O1        1.0  0.99497  0.07347  0.56983  1.0000 -0.7375846422
O   O2        1.0  0.00503  0.92653  0.43017  1.0000 -0.7375846422
O   O3        1.0  0.90174  0.04421  0.43670  1.0000 -0.7285335875
O   O4        1.0  0.09826  0.95579  0.56330  1.0000 -0.7285335875
O   O5        1.0  0.81708  0.91424  0.46883  1.0000 -0.6612014687
O   O6        1.0  0.18292  0.08576  0.53117  1.0000 -0.6612014687
O   O7        1.0  0.41115  0.48475  0.55037  1.0000 -0.7285335875
O   O8        1.0  0.58885  0.51525  0.44963  1.0000 -0.7285335875
O   O9        1.0  0.06022  0.20251  0.53310  1.0000 -0.6188216027
O   O10       1.0  0.93978  0.79749  0.46690  1.0000 -0.6188216027
O   O11       1.0  0.79934  0.60589  0.54126  1.0000 -0.6188216027
O   O12       1.0  0.20066  0.39411  0.45874  1.0000 -0.6188216027
O   O13       1.0  0.71459  0.63578  0.65272  1.0000 -0.6188216027
O   O14       1.0  0.28541  0.36422  0.34728  1.0000 -0.6188216027
O   O15       1.0  0.86680  0.76027  0.57515  1.0000 -0.7510105884
O   O16       1.0  0.13320  0.23973  0.42485  1.0000 -0.7510105884
O   O17       1.0  0.52522  0.62862  0.59150  1.0000 -0.6529445565
O   O18       1.0  0.47478  0.37138  0.40850  1.0000 -0.6529445565
O   O19       1.0  0.62142  0.50120  0.58439  1.0000 -0.6301243222
O   O20       1.0  0.37858  0.49880  0.41561  1.0000 -0.6301243222
O   O21       1.0  0.31320  0.19945  0.42794  1.0000 -0.7025335348
O   O22       1.0  0.68680  0.80055  0.57206  1.0000 -0.7025335348
O   O23       1.0  0.18367  0.06756  0.38777  1.0000 -0.6785107172
O   O24       1.0  0.81633  0.93244  0.61223  1.0000 -0.6785107172
