# DDEC6 charges by PACMAN v1.1 (https://github.com/mtap-research/PACMAN-charge/)
data_2024[Zr][bcu]3[ASR]1
_chemical_formula_sum              "Zr12 H72 C120 N32 O48"
_cell_length_a       13.9537
_cell_length_b       24.406
_cell_length_c       31.786
_cell_angle_alpha    90
_cell_angle_beta     90
_cell_angle_gamma    90

_symmetry_space_group_name_H-M    "P 1"
_symmetry_Int_Tables_number       1

loop_
  _symmetry_equiv_pos_as_xyz
  'x, y, z'

loop_
  _atom_site_type_symbol
  _atom_site_label
  _atom_site_symmetry_multiplicity
  _atom_site_fract_x
  _atom_site_fract_y
  _atom_site_fract_z
  _atom_site_occupancy
  _atom_site_charge
Zr  Zr1       1.0  0.41983  0.50000  0.56808  1.0000 2.3432655358
Zr  Zr2       1.0  0.58017  0.50000  0.43192  1.0000 2.3432655358
Zr  Zr3       1.0  0.91983  0.00000  0.93192  1.0000 2.3432655358
Zr  Zr4       1.0  0.08017  0.00000  0.06808  1.0000 2.3471558913
Zr  Zr5       1.0  0.61239  0.57260  0.52564  1.0000 2.4484853073
Zr  Zr6       1.0  0.38761  0.57260  0.47436  1.0000 2.4484853073
Zr  Zr7       1.0  0.11239  0.92740  0.97436  1.0000 2.4484853073
Zr  Zr8       1.0  0.88761  0.92740  0.02564  1.0000 2.4484853073
Zr  Zr9       1.0  0.38761  0.42740  0.47436  1.0000 2.4484853073
Zr  Zr10      1.0  0.61239  0.42740  0.52564  1.0000 2.4484853073
Zr  Zr11      1.0  0.88761  0.07260  0.02564  1.0000 2.4484853073
Zr  Zr12      1.0  0.11239  0.07260  0.97436  1.0000 2.4484853073
H   H1        1.0  0.69177  0.16991  0.81500  1.0000 0.1127328474
H   H2        1.0  0.30823  0.16991  0.18500  1.0000 0.1127328474
H   H3        1.0  0.19177  0.33009  0.68500  1.0000 0.1127328474
H   H4        1.0  0.80823  0.33009  0.31500  1.0000 0.1127328474
H   H5        1.0  0.30823  0.83009  0.18500  1.0000 0.1127328474
H   H6        1.0  0.69177  0.83009  0.81500  1.0000 0.1127328474
H   H7        1.0  0.80823  0.66991  0.31500  1.0000 0.1127328474
H   H8        1.0  0.19177  0.66991  0.68500  1.0000 0.1127328474
H   H9        1.0  0.76149  0.10351  0.85840  1.0000 0.1208653747
H   H10       1.0  0.23851  0.10351  0.14160  1.0000 0.1208653747
H   H11       1.0  0.26149  0.39649  0.64160  1.0000 0.1208653747
H   H12       1.0  0.73851  0.39649  0.35840  1.0000 0.1208653747
H   H13       1.0  0.23851  0.89649  0.14160  1.0000 0.1208653747
H   H14       1.0  0.76149  0.89649  0.85840  1.0000 0.1208653747
H   H15       1.0  0.73851  0.60351  0.35840  1.0000 0.1208653747
H   H16       1.0  0.26149  0.60351  0.64160  1.0000 0.1208653747
H   H17       1.0  0.64565  0.17719  0.96073  1.0000 0.1127328474
H   H18       1.0  0.35435  0.17719  0.03927  1.0000 0.1127328474
H   H19       1.0  0.14565  0.32281  0.53927  1.0000 0.1127328474
H   H20       1.0  0.85435  0.32281  0.46073  1.0000 0.1127328474
H   H21       1.0  0.35435  0.82281  0.03927  1.0000 0.1127328474
H   H22       1.0  0.64565  0.82281  0.96073  1.0000 0.1127328474
H   H23       1.0  0.85435  0.67719  0.46073  1.0000 0.1127328474
H   H24       1.0  0.14565  0.67719  0.53927  1.0000 0.1127328474
H   H25       1.0  0.43131  0.42577  0.69027  1.0000 0.1127328474
H   H26       1.0  0.56869  0.42577  0.30973  1.0000 0.1127328474
H   H27       1.0  0.93131  0.07423  0.80973  1.0000 0.1127328474
H   H28       1.0  0.06869  0.07423  0.19027  1.0000 0.1127328474
H   H29       1.0  0.56869  0.57423  0.30973  1.0000 0.1127328474
H   H30       1.0  0.43131  0.57423  0.69027  1.0000 0.1127328474
H   H31       1.0  0.06869  0.92577  0.19027  1.0000 0.1127328474
H   H32       1.0  0.93131  0.92577  0.80973  1.0000 0.1127328474
H   H33       1.0  0.65614  0.28588  0.71027  1.0000 0.1289533599
H   H34       1.0  0.34386  0.28588  0.28973  1.0000 0.1289533599
H   H35       1.0  0.15614  0.21412  0.78973  1.0000 0.1289533599
H   H36       1.0  0.84386  0.21412  0.21027  1.0000 0.1289533599
H   H37       1.0  0.34386  0.71412  0.28973  1.0000 0.1289533599
H   H38       1.0  0.65614  0.71412  0.71027  1.0000 0.1289533599
H   H39       1.0  0.84386  0.78588  0.21027  1.0000 0.1289533599
H   H40       1.0  0.15614  0.78588  0.78973  1.0000 0.1289533599
H   H41       1.0  0.64909  0.33229  0.64592  1.0000 0.1011426122
H   H42       1.0  0.35091  0.33229  0.35408  1.0000 0.1011426122
H   H43       1.0  0.14909  0.16771  0.85408  1.0000 0.1011426122
H   H44       1.0  0.85091  0.16771  0.14592  1.0000 0.1011426122
H   H45       1.0  0.35091  0.66771  0.35408  1.0000 0.1011426122
H   H46       1.0  0.64909  0.66771  0.64592  1.0000 0.1011426122
H   H47       1.0  0.85091  0.83229  0.14592  1.0000 0.1011426122
H   H48       1.0  0.14909  0.83229  0.85408  1.0000 0.1011426122
H   H49       1.0  0.65329  0.23806  0.77411  1.0000 0.1420833505
H   H50       1.0  0.34671  0.23806  0.22589  1.0000 0.1420833505
H   H51       1.0  0.15329  0.26194  0.72589  1.0000 0.1420833505
H   H52       1.0  0.84671  0.26194  0.27411  1.0000 0.1420833505
H   H53       1.0  0.34671  0.76194  0.22589  1.0000 0.1420833505
H   H54       1.0  0.65329  0.76194  0.77411  1.0000 0.1420833505
H   H55       1.0  0.84671  0.73806  0.27411  1.0000 0.1420833505
H   H56       1.0  0.15329  0.73806  0.72589  1.0000 0.1420833505
H   H57       1.0  0.47675  0.35253  0.81163  1.0000 0.2592595256
H   H58       1.0  0.52325  0.35253  0.18837  1.0000 0.2592595256
H   H59       1.0  0.97675  0.14747  0.68837  1.0000 0.2592595256
H   H60       1.0  0.02325  0.14747  0.31163  1.0000 0.2592595256
H   H61       1.0  0.52325  0.64747  0.18837  1.0000 0.2592595256
H   H62       1.0  0.47675  0.64747  0.81163  1.0000 0.2592595256
H   H63       1.0  0.02325  0.85253  0.31163  1.0000 0.2592595256
H   H64       1.0  0.97675  0.85253  0.68837  1.0000 0.2592595256
H   H65       1.0  0.49342  0.29198  0.87109  1.0000 0.2681142016
H   H66       1.0  0.50658  0.29198  0.12891  1.0000 0.2681142016
H   H67       1.0  0.99342  0.20802  0.62891  1.0000 0.2681142016
H   H68       1.0  0.00658  0.20802  0.37109  1.0000 0.2681142016
H   H69       1.0  0.50658  0.70802  0.12891  1.0000 0.2681142016
H   H70       1.0  0.49342  0.70802  0.87109  1.0000 0.2681142016
H   H71       1.0  0.00658  0.79198  0.37109  1.0000 0.2681142016
H   H72       1.0  0.99342  0.79198  0.62891  1.0000 0.2681142016
C   C1        1.0  0.76270  0.09460  0.94110  1.0000 0.6296277013
C   C2        1.0  0.23730  0.09460  0.05890  1.0000 0.6296277013
C   C3        1.0  0.26270  0.40540  0.55890  1.0000 0.6296277013
C   C4        1.0  0.73730  0.40540  0.44110  1.0000 0.6296277013
C   C5        1.0  0.23730  0.90540  0.05890  1.0000 0.6296277013
C   C6        1.0  0.76270  0.90540  0.94110  1.0000 0.6296277013
C   C7        1.0  0.73730  0.59460  0.44110  1.0000 0.6296277013
C   C8        1.0  0.26270  0.59460  0.55890  1.0000 0.6296277013
C   C9        1.0  0.68240  0.17140  0.84458  1.0000 -0.1888948671
C   C10       1.0  0.31760  0.17140  0.15542  1.0000 -0.1888948671
C   C11       1.0  0.18240  0.32860  0.65542  1.0000 -0.1888948671
C   C12       1.0  0.81760  0.32860  0.34458  1.0000 -0.1888948671
C   C13       1.0  0.31760  0.82860  0.15542  1.0000 -0.1888948671
C   C14       1.0  0.68240  0.82860  0.84458  1.0000 -0.1888948671
C   C15       1.0  0.81760  0.67140  0.34458  1.0000 -0.1888948671
C   C16       1.0  0.18240  0.67140  0.65542  1.0000 -0.1888948671
C   C17       1.0  0.72380  0.13190  0.87036  1.0000 -0.0796138143
C   C18       1.0  0.27620  0.13190  0.12964  1.0000 -0.0796138143
C   C19       1.0  0.22380  0.36810  0.62964  1.0000 -0.0746646916
C   C20       1.0  0.77620  0.36810  0.37036  1.0000 -0.0746646916
C   C21       1.0  0.27620  0.86810  0.12964  1.0000 -0.0796138143
C   C22       1.0  0.72380  0.86810  0.87036  1.0000 -0.0746646916
C   C23       1.0  0.77620  0.63190  0.37036  1.0000 -0.0746646916
C   C24       1.0  0.22380  0.63190  0.62964  1.0000 -0.0796138143
C   C25       1.0  0.71010  0.13410  0.91364  1.0000 -0.0796138143
C   C26       1.0  0.28990  0.13410  0.08636  1.0000 -0.0796138143
C   C27       1.0  0.21010  0.36590  0.58636  1.0000 -0.0796138143
C   C28       1.0  0.78990  0.36590  0.41364  1.0000 -0.0796138143
C   C29       1.0  0.28990  0.86590  0.08636  1.0000 -0.0796138143
C   C30       1.0  0.71010  0.86590  0.91364  1.0000 -0.0796138143
C   C31       1.0  0.78990  0.63410  0.41364  1.0000 -0.0796138143
C   C32       1.0  0.21010  0.63410  0.58636  1.0000 -0.0796138143
C   C33       1.0  0.65500  0.17570  0.93115  1.0000 0.0374456494
C   C34       1.0  0.34500  0.17570  0.06885  1.0000 0.0374456494
C   C35       1.0  0.15500  0.32430  0.56885  1.0000 0.0374456494
C   C36       1.0  0.84500  0.32430  0.43115  1.0000 0.0374456494
C   C37       1.0  0.34500  0.82430  0.06885  1.0000 0.0374456494
C   C38       1.0  0.65500  0.82430  0.93115  1.0000 0.0374456494
C   C39       1.0  0.84500  0.67570  0.43115  1.0000 0.0374456494
C   C40       1.0  0.15500  0.67570  0.56885  1.0000 0.0374456494
C   C41       1.0  0.62730  0.21300  0.86209  1.0000 0.1515070385
C   C42       1.0  0.37270  0.21300  0.13791  1.0000 0.1515070385
C   C43       1.0  0.12730  0.28700  0.63791  1.0000 0.1515070385
C   C44       1.0  0.87270  0.28700  0.36209  1.0000 0.1515070385
C   C45       1.0  0.37270  0.78700  0.13791  1.0000 0.1515070385
C   C46       1.0  0.62730  0.78700  0.86209  1.0000 0.1515070385
C   C47       1.0  0.87270  0.71300  0.36209  1.0000 0.1515070385
C   C48       1.0  0.12730  0.71300  0.63791  1.0000 0.1515070385
C   C49       1.0  0.53250  0.41040  0.62000  1.0000 0.6296277013
C   C50       1.0  0.46750  0.41040  0.38000  1.0000 0.6296277013
C   C51       1.0  0.03250  0.08960  0.88000  1.0000 0.6241477354
C   C52       1.0  0.96750  0.08960  0.12000  1.0000 0.6296277013
C   C53       1.0  0.46750  0.58960  0.38000  1.0000 0.6296277013
C   C54       1.0  0.53250  0.58960  0.62000  1.0000 0.6296277013
C   C55       1.0  0.96750  0.91040  0.12000  1.0000 0.6296277013
C   C56       1.0  0.03250  0.91040  0.88000  1.0000 0.6241477354
C   C57       1.0  0.53950  0.38340  0.66205  1.0000 -0.0925592967
C   C58       1.0  0.46050  0.38340  0.33795  1.0000 -0.0925592967
C   C59       1.0  0.03950  0.11660  0.83795  1.0000 -0.0925592967
C   C60       1.0  0.96050  0.11660  0.16205  1.0000 -0.0925592967
C   C61       1.0  0.46050  0.61660  0.33795  1.0000 -0.0925592967
C   C62       1.0  0.53950  0.61660  0.66205  1.0000 -0.0925592967
C   C63       1.0  0.96050  0.88340  0.16205  1.0000 -0.0925592967
C   C64       1.0  0.03950  0.88340  0.83795  1.0000 -0.0925592967
C   C65       1.0  0.47700  0.39740  0.69433  1.0000 0.0528115812
C   C66       1.0  0.52300  0.39740  0.30567  1.0000 0.0528115812
C   C67       1.0  0.97700  0.10260  0.80567  1.0000 0.0528115812
C   C68       1.0  0.02300  0.10260  0.19433  1.0000 0.0528115812
C   C69       1.0  0.52300  0.60260  0.30567  1.0000 0.0528115812
C   C70       1.0  0.47700  0.60260  0.69433  1.0000 0.0528115812
C   C71       1.0  0.02300  0.89740  0.19433  1.0000 0.0528115812
C   C72       1.0  0.97700  0.89740  0.80567  1.0000 0.0528115812
C   C73       1.0  0.54790  0.32830  0.73849  1.0000 0.1515070385
C   C74       1.0  0.45210  0.32830  0.26151  1.0000 0.1515070385
C   C75       1.0  0.04790  0.17170  0.76151  1.0000 0.1515070385
C   C76       1.0  0.95210  0.17170  0.23849  1.0000 0.1515070385
C   C77       1.0  0.45210  0.67170  0.26151  1.0000 0.1515070385
C   C78       1.0  0.54790  0.67170  0.73849  1.0000 0.1515070385
C   C79       1.0  0.95210  0.82830  0.23849  1.0000 0.1515070385
C   C80       1.0  0.04790  0.82830  0.76151  1.0000 0.1515070385
C   C81       1.0  0.61050  0.31430  0.70621  1.0000 -0.1888948671
C   C82       1.0  0.38950  0.31430  0.29379  1.0000 -0.1888948671
C   C83       1.0  0.11050  0.18570  0.79379  1.0000 -0.1888948671
C   C84       1.0  0.88950  0.18570  0.20621  1.0000 -0.1888948671
C   C85       1.0  0.38950  0.68570  0.29379  1.0000 -0.1888948671
C   C86       1.0  0.61050  0.68570  0.70621  1.0000 -0.1888948671
C   C87       1.0  0.88950  0.81430  0.20621  1.0000 -0.1888948671
C   C88       1.0  0.11050  0.81430  0.79379  1.0000 -0.1888948671
C   C89       1.0  0.60630  0.34180  0.66799  1.0000 -0.048365722
C   C90       1.0  0.39370  0.34180  0.33201  1.0000 -0.048365722
C   C91       1.0  0.10630  0.15820  0.83201  1.0000 -0.048365722
C   C92       1.0  0.89370  0.15820  0.16799  1.0000 -0.048365722
C   C93       1.0  0.39370  0.65820  0.33201  1.0000 -0.048365722
C   C94       1.0  0.60630  0.65820  0.66799  1.0000 -0.048365722
C   C95       1.0  0.89370  0.84180  0.16799  1.0000 -0.048365722
C   C96       1.0  0.10630  0.84180  0.83201  1.0000 -0.048365722
C   C97       1.0  0.60990  0.25870  0.79080  1.0000 -0.2868674729
C   C98       1.0  0.39010  0.25870  0.20920  1.0000 -0.2849216835
C   C99       1.0  0.10990  0.24130  0.70920  1.0000 -0.2868674729
C   C100      1.0  0.89010  0.24130  0.29080  1.0000 -0.2868674729
C   C101      1.0  0.39010  0.74130  0.20920  1.0000 -0.2868674729
C   C102      1.0  0.60990  0.74130  0.79080  1.0000 -0.2868674729
C   C103      1.0  0.89010  0.75870  0.29080  1.0000 -0.2868674729
C   C104      1.0  0.10990  0.75870  0.70920  1.0000 -0.2868674729
C   C105      1.0  0.55580  0.29990  0.77740  1.0000 0.05816896
C   C106      1.0  0.44420  0.29990  0.22260  1.0000 0.05816896
C   C107      1.0  0.05580  0.20010  0.72260  1.0000 0.0528115812
C   C108      1.0  0.94420  0.20010  0.27740  1.0000 0.05816896
C   C109      1.0  0.44420  0.70010  0.22260  1.0000 0.05816896
C   C110      1.0  0.55580  0.70010  0.77740  1.0000 0.05816896
C   C111      1.0  0.94420  0.79990  0.27740  1.0000 0.05816896
C   C112      1.0  0.05580  0.79990  0.72260  1.0000 0.0528115812
C   C113      1.0  0.59240  0.25110  0.83310  1.0000 0.0734248803
C   C114      1.0  0.40760  0.25110  0.16690  1.0000 0.0734248803
C   C115      1.0  0.09240  0.24890  0.66690  1.0000 0.0734248803
C   C116      1.0  0.90760  0.24890  0.33310  1.0000 0.0734248803
C   C117      1.0  0.40760  0.74890  0.16690  1.0000 0.0734248803
C   C118      1.0  0.59240  0.74890  0.83310  1.0000 0.0734248803
C   C119      1.0  0.90760  0.75110  0.33310  1.0000 0.0734248803
C   C120      1.0  0.09240  0.75110  0.66690  1.0000 0.0734248803
N   N1        1.0  0.61360  0.21520  0.90537  1.0000 -0.3812478633
N   N2        1.0  0.38640  0.21520  0.09463  1.0000 -0.3812478633
N   N3        1.0  0.11360  0.28480  0.59463  1.0000 -0.3812478633
N   N4        1.0  0.88640  0.28480  0.40537  1.0000 -0.3812478633
N   N5        1.0  0.38640  0.78480  0.09463  1.0000 -0.3812478633
N   N6        1.0  0.61360  0.78480  0.90537  1.0000 -0.3812478633
N   N7        1.0  0.88640  0.71520  0.40537  1.0000 -0.3812478633
N   N8        1.0  0.11360  0.71520  0.59463  1.0000 -0.3812478633
N   N9        1.0  0.48110  0.36980  0.73255  1.0000 -0.3542099969
N   N10       1.0  0.51890  0.36980  0.26745  1.0000 -0.3542099969
N   N11       1.0  0.98110  0.13020  0.76745  1.0000 -0.3565006332
N   N12       1.0  0.01890  0.13020  0.23255  1.0000 -0.3565006332
N   N13       1.0  0.51890  0.63020  0.26745  1.0000 -0.3565006332
N   N14       1.0  0.48110  0.63020  0.73255  1.0000 -0.3565006332
N   N15       1.0  0.01890  0.86980  0.23255  1.0000 -0.3542099969
N   N16       1.0  0.98110  0.86980  0.76745  1.0000 -0.3542099969
N   N17       1.0  0.50970  0.32180  0.81190  1.0000 -0.1413514009
N   N18       1.0  0.49030  0.32180  0.18810  1.0000 -0.1413514009
N   N19       1.0  0.00970  0.17820  0.68810  1.0000 -0.1413514009
N   N20       1.0  0.99030  0.17820  0.31190  1.0000 -0.1413514009
N   N21       1.0  0.49030  0.67820  0.18810  1.0000 -0.1413514009
N   N22       1.0  0.50970  0.67820  0.81190  1.0000 -0.1465077923
N   N23       1.0  0.99030  0.82180  0.31190  1.0000 -0.1413514009
N   N24       1.0  0.00970  0.82180  0.68810  1.0000 -0.1413514009
N   N25       1.0  0.52200  0.28960  0.84650  1.0000 -0.2218672947
N   N26       1.0  0.47800  0.28960  0.15350  1.0000 -0.2286656425
N   N27       1.0  0.02200  0.21040  0.65350  1.0000 -0.2218672947
N   N28       1.0  0.97800  0.21040  0.34650  1.0000 -0.2286656425
N   N29       1.0  0.47800  0.71040  0.15350  1.0000 -0.2218672947
N   N30       1.0  0.52200  0.71040  0.84650  1.0000 -0.2218672947
N   N31       1.0  0.97800  0.78960  0.34650  1.0000 -0.2286656425
N   N32       1.0  0.02200  0.78960  0.65350  1.0000 -0.2218672947
O   O1        1.0  0.65440  0.50000  0.49262  1.0000 -1.1710062202
O   O2        1.0  0.34560  0.50000  0.50738  1.0000 -1.1710062202
O   O3        1.0  0.15440  0.00000  0.00738  1.0000 -1.1710062202
O   O4        1.0  0.84560  0.00000  0.99262  1.0000 -1.1710062202
O   O5        1.0  0.57250  0.50000  0.55670  1.0000 -1.1619871566
O   O6        1.0  0.42750  0.50000  0.44330  1.0000 -1.1619871566
O   O7        1.0  0.07250  0.00000  0.94330  1.0000 -1.1539875643
O   O8        1.0  0.92750  0.00000  0.05670  1.0000 -1.1619871566
O   O9        1.0  0.46680  0.44610  0.61833  1.0000 -0.584415497
O   O10       1.0  0.53320  0.44610  0.38167  1.0000 -0.584415497
O   O11       1.0  0.96680  0.05390  0.88167  1.0000 -0.5888165829
O   O12       1.0  0.03320  0.05390  0.11833  1.0000 -0.5888165829
O   O13       1.0  0.53320  0.55390  0.38167  1.0000 -0.584415497
O   O14       1.0  0.46680  0.55390  0.61833  1.0000 -0.584415497
O   O15       1.0  0.03320  0.94610  0.11833  1.0000 -0.5888165829
O   O16       1.0  0.96680  0.94610  0.88167  1.0000 -0.584415497
O   O17       1.0  0.77800  0.10430  0.97792  1.0000 -0.5888165829
O   O18       1.0  0.22200  0.10430  0.02208  1.0000 -0.5888165829
O   O19       1.0  0.27800  0.39570  0.52208  1.0000 -0.5888165829
O   O20       1.0  0.72200  0.39570  0.47792  1.0000 -0.5888165829
O   O21       1.0  0.22200  0.89570  0.02208  1.0000 -0.5888165829
O   O22       1.0  0.77800  0.89570  0.97792  1.0000 -0.5888165829
O   O23       1.0  0.72200  0.60430  0.47792  1.0000 -0.5888165829
O   O24       1.0  0.27800  0.60430  0.52208  1.0000 -0.5888165829
O   O25       1.0  0.58940  0.39820  0.59214  1.0000 -0.5888165829
O   O26       1.0  0.41060  0.39820  0.40786  1.0000 -0.5888165829
O   O27       1.0  0.08940  0.10180  0.90786  1.0000 -0.5888165829
O   O28       1.0  0.91060  0.10180  0.09214  1.0000 -0.5888165829
O   O29       1.0  0.41060  0.60180  0.40786  1.0000 -0.5888165829
O   O30       1.0  0.58940  0.60180  0.59214  1.0000 -0.5888165829
O   O31       1.0  0.91060  0.89820  0.09214  1.0000 -0.5888165829
O   O32       1.0  0.08940  0.89820  0.90786  1.0000 -0.5888165829
O   O33       1.0  0.79580  0.05360  0.91986  1.0000 -0.6020869465
O   O34       1.0  0.20420  0.05360  0.08014  1.0000 -0.6020869465
O   O35       1.0  0.29580  0.44640  0.58014  1.0000 -0.6020869465
O   O36       1.0  0.70420  0.44640  0.41986  1.0000 -0.6020869465
O   O37       1.0  0.20420  0.94640  0.08014  1.0000 -0.6020869465
O   O38       1.0  0.79580  0.94640  0.91986  1.0000 -0.6020869465
O   O39       1.0  0.70420  0.55360  0.41986  1.0000 -0.6020869465
O   O40       1.0  0.29580  0.55360  0.58014  1.0000 -0.6020869465
O   O41       1.0  0.46130  0.57360  0.53330  1.0000 -1.1619871566
O   O42       1.0  0.53870  0.57360  0.46670  1.0000 -1.1619871566
O   O43       1.0  0.96130  0.92640  0.96670  1.0000 -1.1710062202
O   O44       1.0  0.03870  0.92640  0.03330  1.0000 -1.1619871566
O   O45       1.0  0.53870  0.42640  0.46670  1.0000 -1.1710062202
O   O46       1.0  0.46130  0.42640  0.53330  1.0000 -1.1619871566
O   O47       1.0  0.03870  0.07360  0.03330  1.0000 -1.1619871566
O   O48       1.0  0.96130  0.07360  0.96670  1.0000 -1.1619871566
