# DDEC6 charges by PACMAN v1.1 (https://github.com/mtap-research/PACMAN-charge/)
data_2024[Cd][nan]3[ASR]8
_chemical_formula_sum              "Cd8 H72 C120 O36"
_cell_length_a       14.0828
_cell_length_b       10.9927
_cell_length_c       23.566
_cell_angle_alpha    90
_cell_angle_beta     98.544
_cell_angle_gamma    90

_symmetry_space_group_name_H-M    "P 1"
_symmetry_Int_Tables_number       1

loop_
  _symmetry_equiv_pos_as_xyz
  'x, y, z'

loop_
  _atom_site_type_symbol
  _atom_site_label
  _atom_site_symmetry_multiplicity
  _atom_site_fract_x
  _atom_site_fract_y
  _atom_site_fract_z
  _atom_site_occupancy
  _atom_site_charge
Cd  Cd1       1.0  0.92680  0.51687  0.78584  1.0000 0.9908939139
Cd  Cd2       1.0  0.07320  0.01687  0.71416  1.0000 0.9908939139
Cd  Cd3       1.0  0.07320  0.48313  0.21416  1.0000 0.9908939139
Cd  Cd4       1.0  0.92680  0.98313  0.28584  1.0000 0.9908939139
Cd  Cd5       1.0  0.01615  0.32918  0.63916  1.0000 1.0541048484
Cd  Cd6       1.0  0.98385  0.82918  0.86084  1.0000 1.0541048484
Cd  Cd7       1.0  0.98385  0.67082  0.36084  1.0000 1.0541048484
Cd  Cd8       1.0  0.01615  0.17082  0.13916  1.0000 1.0541048484
H   H1        1.0  0.07492  0.48815  0.71159  1.0000 0.3725014018
H   H2        1.0  0.92508  0.98815  0.78841  1.0000 0.3725014018
H   H3        1.0  0.92508  0.51185  0.28841  1.0000 0.3725014018
H   H4        1.0  0.07492  0.01185  0.21159  1.0000 0.3725014018
H   H5        1.0  0.08169  0.38902  0.75067  1.0000 0.3931775601
H   H6        1.0  0.91831  0.88902  0.74933  1.0000 0.3931775601
H   H7        1.0  0.91831  0.61098  0.24933  1.0000 0.3931775601
H   H8        1.0  0.08169  0.11098  0.25067  1.0000 0.3931775601
H   H9        1.0  0.18188  0.97417  0.45041  1.0000 0.1299223141
H   H10       1.0  0.81812  0.47417  0.04959  1.0000 0.1299223141
H   H11       1.0  0.81812  0.02583  0.54959  1.0000 0.1299223141
H   H12       1.0  0.18188  0.52583  0.95041  1.0000 0.1299223141
H   H13       1.0  0.31957  0.59432  0.47848  1.0000 0.1122308181
H   H14       1.0  0.68043  0.09432  0.02152  1.0000 0.1122308181
H   H15       1.0  0.68043  0.40568  0.52152  1.0000 0.1122308181
H   H16       1.0  0.31957  0.90568  0.97848  1.0000 0.1122308181
H   H17       1.0  0.23954  0.77702  0.31420  1.0000 0.1299223141
H   H18       1.0  0.76046  0.27702  0.18580  1.0000 0.1299223141
H   H19       1.0  0.76046  0.22298  0.68580  1.0000 0.1299223141
H   H20       1.0  0.23954  0.72298  0.81420  1.0000 0.1299223141
H   H21       1.0  0.32875  0.91856  0.50065  1.0000 0.1122308181
H   H22       1.0  0.67125  0.41856  0.99935  1.0000 0.1122308181
H   H23       1.0  0.67125  0.08144  0.49935  1.0000 0.1122308181
H   H24       1.0  0.32875  0.58144  0.00065  1.0000 0.1122308181
H   H25       1.0  0.39154  0.73223  0.36299  1.0000 0.1170549983
H   H26       1.0  0.60846  0.23223  0.13701  1.0000 0.1170549983
H   H27       1.0  0.60846  0.26777  0.63701  1.0000 0.1170549983
H   H28       1.0  0.39154  0.76777  0.86299  1.0000 0.1170549983
H   H29       1.0  0.67832  0.50615  0.64936  1.0000 0.1122308181
H   H30       1.0  0.32168  0.00615  0.85064  1.0000 0.1122308181
H   H31       1.0  0.32168  0.49385  0.35064  1.0000 0.1122308181
H   H32       1.0  0.67832  0.99385  0.14936  1.0000 0.1122308181
H   H33       1.0  0.29361  0.70006  0.66758  1.0000 0.1122308181
H   H34       1.0  0.70639  0.20006  0.83242  1.0000 0.1122308181
H   H35       1.0  0.70639  0.29994  0.33242  1.0000 0.1122308181
H   H36       1.0  0.29361  0.79994  0.16758  1.0000 0.1122308181
H   H37       1.0  0.74975  0.85956  0.62811  1.0000 0.1122308181
H   H38       1.0  0.25025  0.35956  0.87189  1.0000 0.1122308181
H   H39       1.0  0.25025  0.14044  0.37189  1.0000 0.1122308181
H   H40       1.0  0.74975  0.64044  0.12811  1.0000 0.1122308181
H   H41       1.0  0.53926  0.53323  0.58329  1.0000 0.1122308181
H   H42       1.0  0.46074  0.03323  0.91671  1.0000 0.1122308181
H   H43       1.0  0.46074  0.46677  0.41671  1.0000 0.1122308181
H   H44       1.0  0.53926  0.96677  0.08329  1.0000 0.1122308181
H   H45       1.0  0.61601  0.88085  0.55893  1.0000 0.104594207
H   H46       1.0  0.38399  0.38085  0.94107  1.0000 0.104594207
H   H47       1.0  0.38399  0.11915  0.44107  1.0000 0.104594207
H   H48       1.0  0.61601  0.61915  0.05893  1.0000 0.104594207
H   H49       1.0  0.18886  0.52695  0.52042  1.0000 0.1170549983
H   H50       1.0  0.81114  0.02695  0.97958  1.0000 0.1122308181
H   H51       1.0  0.81114  0.47305  0.47958  1.0000 0.1122308181
H   H52       1.0  0.18886  0.97305  0.02042  1.0000 0.1170549983
H   H53       1.0  0.42497  0.76753  0.62658  1.0000 0.1122308181
H   H54       1.0  0.57503  0.26753  0.87342  1.0000 0.1122308181
H   H55       1.0  0.57503  0.23247  0.37342  1.0000 0.1122308181
H   H56       1.0  0.42497  0.73247  0.12658  1.0000 0.1122308181
H   H57       1.0  0.65204  0.01246  0.37225  1.0000 0.1122308181
H   H58       1.0  0.34796  0.51246  0.12775  1.0000 0.1122308181
H   H59       1.0  0.34796  0.98754  0.62775  1.0000 0.1122308181
H   H60       1.0  0.65204  0.48754  0.87225  1.0000 0.1122308181
H   H61       1.0  0.74615  0.67006  0.41056  1.0000 0.1170549983
H   H62       1.0  0.25385  0.17006  0.08944  1.0000 0.1170549983
H   H63       1.0  0.25385  0.32994  0.58944  1.0000 0.1170549983
H   H64       1.0  0.74615  0.82994  0.91056  1.0000 0.1170549983
H   H65       1.0  0.51962  0.97561  0.41829  1.0000 0.1122308181
H   H66       1.0  0.48038  0.47561  0.08171  1.0000 0.1122308181
H   H67       1.0  0.48038  0.02439  0.58171  1.0000 0.1122308181
H   H68       1.0  0.51962  0.52439  0.91829  1.0000 0.1122308181
H   H69       1.0  0.61541  0.63478  0.45783  1.0000 0.1122308181
H   H70       1.0  0.38459  0.13478  0.04217  1.0000 0.1122308181
H   H71       1.0  0.38459  0.36522  0.54217  1.0000 0.1122308181
H   H72       1.0  0.61541  0.86522  0.95783  1.0000 0.1122308181
C   C1        1.0  0.22320  0.92210  0.43310  1.0000 -0.0998936752
C   C2        1.0  0.77680  0.42210  0.06690  1.0000 -0.0998936752
C   C3        1.0  0.77680  0.07790  0.56690  1.0000 -0.0998936752
C   C4        1.0  0.22320  0.57790  0.93310  1.0000 -0.0998936752
C   C5        1.0  0.19460  0.87830  0.37740  1.0000 -0.0333053296
C   C6        1.0  0.80540  0.37830  0.12260  1.0000 -0.0333053296
C   C7        1.0  0.80540  0.12170  0.62260  1.0000 -0.0333053296
C   C8        1.0  0.19460  0.62170  0.87740  1.0000 -0.0333053296
C   C9        1.0  0.09750  0.90840  0.34680  1.0000 0.5530908691
C   C10       1.0  0.90250  0.40840  0.15320  1.0000 0.5530908691
C   C11       1.0  0.90250  0.09160  0.65320  1.0000 0.5530908691
C   C12       1.0  0.09750  0.59160  0.84680  1.0000 0.5530908691
C   C13       1.0  0.72660  0.68100  0.64640  1.0000 -0.0081265177
C   C14       1.0  0.27340  0.18100  0.85360  1.0000 -0.0081265177
C   C15       1.0  0.27340  0.31900  0.35360  1.0000 -0.0081265177
C   C16       1.0  0.72660  0.81900  0.14640  1.0000 -0.0081265177
C   C17       1.0  0.55360  0.80150  0.44270  1.0000 0.0707460316
C   C18       1.0  0.44640  0.30150  0.05730  1.0000 0.0707460316
C   C19       1.0  0.44640  0.19850  0.55730  1.0000 0.0707460316
C   C20       1.0  0.55360  0.69850  0.94270  1.0000 0.0707460316
C   C21       1.0  0.31460  0.61610  0.51690  1.0000 -0.1577277337
C   C22       1.0  0.68540  0.11610  0.98310  1.0000 -0.1577277337
C   C23       1.0  0.68540  0.38390  0.48310  1.0000 -0.1577277337
C   C24       1.0  0.31460  0.88390  0.01690  1.0000 -0.1577277337
C   C25       1.0  0.25800  0.80660  0.35210  1.0000 -0.0998936752
C   C26       1.0  0.74200  0.30660  0.14790  1.0000 -0.0998936752
C   C27       1.0  0.74200  0.19340  0.64790  1.0000 -0.0998936752
C   C28       1.0  0.25800  0.69340  0.85210  1.0000 -0.0998936752
C   C29       1.0  0.37400  0.81600  0.43830  1.0000 0.0707460316
C   C30       1.0  0.62600  0.31600  0.06170  1.0000 0.0707460316
C   C31       1.0  0.62600  0.18400  0.56170  1.0000 0.0707460316
C   C32       1.0  0.37400  0.68400  0.93830  1.0000 0.0707460316
C   C33       1.0  0.46800  0.77990  0.47120  1.0000 -0.0219258067
C   C34       1.0  0.53200  0.27990  0.02880  1.0000 -0.0219258067
C   C35       1.0  0.53200  0.22010  0.52880  1.0000 -0.0219258067
C   C36       1.0  0.46800  0.72010  0.97120  1.0000 -0.0219258067
C   C37       1.0  0.31080  0.88970  0.46260  1.0000 -0.1408613189
C   C38       1.0  0.68920  0.38970  0.03740  1.0000 -0.1408613189
C   C39       1.0  0.68920  0.11030  0.53740  1.0000 -0.1408613189
C   C40       1.0  0.31080  0.61030  0.96260  1.0000 -0.1408613189
C   C41       1.0  0.34770  0.77790  0.38150  1.0000 -0.1468826869
C   C42       1.0  0.65230  0.27790  0.11850  1.0000 -0.1468826869
C   C43       1.0  0.65230  0.22210  0.61850  1.0000 -0.1468826869
C   C44       1.0  0.34770  0.72210  0.88150  1.0000 -0.1468826869
C   C45       1.0  0.22940  0.60560  0.59840  1.0000 -0.0333053296
C   C46       1.0  0.77060  0.10560  0.90160  1.0000 -0.0333053296
C   C47       1.0  0.77060  0.39440  0.40160  1.0000 -0.0333053296
C   C48       1.0  0.22940  0.89440  0.09840  1.0000 -0.0333053296
C   C49       1.0  0.66460  0.58330  0.63190  1.0000 -0.1058562709
C   C50       1.0  0.33540  0.08330  0.86810  1.0000 -0.1058562709
C   C51       1.0  0.33540  0.41670  0.36810  1.0000 -0.1058562709
C   C52       1.0  0.66460  0.91670  0.13190  1.0000 -0.1058562709
C   C53       1.0  0.29910  0.67800  0.62920  1.0000 -0.0913401408
C   C54       1.0  0.70090  0.17800  0.87080  1.0000 -0.0913401408
C   C55       1.0  0.70090  0.32200  0.37080  1.0000 -0.0913401408
C   C56       1.0  0.29910  0.82200  0.12920  1.0000 -0.0913401408
C   C57       1.0  0.70770  0.79260  0.61880  1.0000 -0.0998936752
C   C58       1.0  0.29230  0.29260  0.88120  1.0000 -0.0998936752
C   C59       1.0  0.29230  0.20740  0.38120  1.0000 -0.0998936752
C   C60       1.0  0.70770  0.70740  0.11880  1.0000 -0.0998936752
C   C61       1.0  0.58270  0.59920  0.59160  1.0000 -0.1577277337
C   C62       1.0  0.41730  0.09920  0.90840  1.0000 -0.1577277337
C   C63       1.0  0.41730  0.40080  0.40840  1.0000 -0.1577277337
C   C64       1.0  0.58270  0.90080  0.09160  1.0000 -0.1577277337
C   C65       1.0  0.15080  0.55300  0.62720  1.0000 0.5791620748
C   C66       1.0  0.84920  0.05300  0.87280  1.0000 0.5791620748
C   C67       1.0  0.84920  0.44700  0.37280  1.0000 0.5791620748
C   C68       1.0  0.15080  0.94700  0.12720  1.0000 0.5791620748
C   C69       1.0  0.62770  0.80490  0.57790  1.0000 -0.1468826869
C   C70       1.0  0.37230  0.30490  0.92210  1.0000 -0.1468826869
C   C71       1.0  0.37230  0.19510  0.42210  1.0000 -0.1468826869
C   C72       1.0  0.62770  0.69510  0.07790  1.0000 -0.1468826869
C   C73       1.0  0.38580  0.68910  0.54840  1.0000 0.0707460316
C   C74       1.0  0.61420  0.18910  0.95160  1.0000 0.0707460316
C   C75       1.0  0.61420  0.31090  0.45160  1.0000 0.0707460316
C   C76       1.0  0.38580  0.81090  0.04840  1.0000 0.0707460316
C   C77       1.0  0.23700  0.57560  0.54200  1.0000 -0.0998936752
C   C78       1.0  0.76300  0.07560  0.95800  1.0000 -0.0998936752
C   C79       1.0  0.76300  0.42440  0.45800  1.0000 -0.0998936752
C   C80       1.0  0.23700  0.92440  0.04200  1.0000 -0.0998936752
C   C81       1.0  0.47280  0.72800  0.52390  1.0000 -0.0219258067
C   C82       1.0  0.52720  0.22800  0.97610  1.0000 -0.0219258067
C   C83       1.0  0.52720  0.27200  0.47610  1.0000 -0.0219258067
C   C84       1.0  0.47280  0.77200  0.02390  1.0000 -0.0219258067
C   C85       1.0  0.37720  0.71890  0.60470  1.0000 -0.1577277337
C   C86       1.0  0.62280  0.21890  0.89530  1.0000 -0.1577277337
C   C87       1.0  0.62280  0.28110  0.39530  1.0000 -0.1577277337
C   C88       1.0  0.37720  0.78110  0.10470  1.0000 -0.1577277337
C   C89       1.0  0.71310  0.84440  0.38710  1.0000 -0.0219258067
C   C90       1.0  0.28690  0.34440  0.11290  1.0000 -0.0219258067
C   C91       1.0  0.28690  0.15560  0.61290  1.0000 -0.0219258067
C   C92       1.0  0.71310  0.65560  0.88710  1.0000 -0.0219258067
C   C93       1.0  0.56290  0.70920  0.56340  1.0000 0.0707460316
C   C94       1.0  0.43710  0.20920  0.93660  1.0000 0.0707460316
C   C95       1.0  0.43710  0.29080  0.43660  1.0000 0.0707460316
C   C96       1.0  0.56290  0.79080  0.06340  1.0000 0.0707460316
C   C97       1.0  0.79650  0.86580  0.35600  1.0000 0.591889842
C   C98       1.0  0.20350  0.36580  0.14400  1.0000 0.591889842
C   C99       1.0  0.20350  0.13420  0.64400  1.0000 0.591889842
C   C100      1.0  0.79650  0.63420  0.85600  1.0000 0.591889842
C   C101      1.0  0.64470  0.93550  0.38940  1.0000 -0.0998936752
C   C102      1.0  0.35530  0.43550  0.11060  1.0000 -0.0998936752
C   C103      1.0  0.35530  0.06450  0.61060  1.0000 -0.0998936752
C   C104      1.0  0.64470  0.56450  0.88940  1.0000 -0.0998936752
C   C105      1.0  0.70040  0.73290  0.41240  1.0000 -0.0846770307
C   C106      1.0  0.29960  0.23290  0.08760  1.0000 -0.0846770307
C   C107      1.0  0.29960  0.26710  0.58760  1.0000 -0.0846770307
C   C108      1.0  0.70040  0.76710  0.91240  1.0000 -0.0846770307
C   C109      1.0  0.81300  0.66880  0.69190  1.0000 0.5684497194
C   C110      1.0  0.18700  0.16880  0.80810  1.0000 0.5684497194
C   C111      1.0  0.18700  0.33120  0.30810  1.0000 0.5684497194
C   C112      1.0  0.81300  0.83120  0.19190  1.0000 0.5684497194
C   C113      1.0  0.56600  0.91330  0.41700  1.0000 -0.1577277337
C   C114      1.0  0.43400  0.41330  0.08300  1.0000 -0.1577277337
C   C115      1.0  0.43400  0.08670  0.58300  1.0000 -0.1577277337
C   C116      1.0  0.56600  0.58670  0.91700  1.0000 -0.1577277337
C   C117      1.0  0.62220  0.71140  0.44030  1.0000 -0.1468826869
C   C118      1.0  0.37780  0.21140  0.05970  1.0000 -0.1468826869
C   C119      1.0  0.37780  0.28860  0.55970  1.0000 -0.1468826869
C   C120      1.0  0.62220  0.78860  0.94030  1.0000 -0.1468826869
O   O1        1.0  0.04280  0.43160  0.72630  1.0000 -0.7013121707
O   O2        1.0  0.95720  0.93160  0.77370  1.0000 -0.7013121707
O   O3        1.0  0.95720  0.56840  0.27370  1.0000 -0.7013121707
O   O4        1.0  0.04280  0.06840  0.22630  1.0000 -0.7013121707
O   O5        1.0  0.05180  0.82930  0.31330  1.0000 -0.5850848122
O   O6        1.0  0.94820  0.32930  0.18670  1.0000 -0.5837061369
O   O7        1.0  0.94820  0.17070  0.68670  1.0000 -0.5837061369
O   O8        1.0  0.05180  0.67070  0.81330  1.0000 -0.5850848122
O   O9        1.0  0.06120  0.00950  0.35390  1.0000 -0.5013682409
O   O10       1.0  0.93880  0.50950  0.14610  1.0000 -0.5013682409
O   O11       1.0  0.93880  0.99050  0.64610  1.0000 -0.5013682409
O   O12       1.0  0.06120  0.49050  0.85390  1.0000 -0.5013682409
O   O13       1.0  0.84120  0.55970  0.70330  1.0000 -0.5681759281
O   O14       1.0  0.15880  0.05970  0.79670  1.0000 -0.5681759281
O   O15       1.0  0.15880  0.44030  0.29670  1.0000 -0.5681759281
O   O16       1.0  0.84120  0.94030  0.20330  1.0000 -0.5681759281
O   O17       1.0  0.09850  0.47310  0.59990  1.0000 -0.5837061369
O   O18       1.0  0.90150  0.97310  0.90010  1.0000 -0.5837061369
O   O19       1.0  0.90150  0.52690  0.40010  1.0000 -0.5837061369
O   O20       1.0  0.09850  0.02690  0.09990  1.0000 -0.5837061369
O   O21       1.0  0.14340  0.58860  0.67730  1.0000 -0.5443567796
O   O22       1.0  0.85660  0.08860  0.82270  1.0000 -0.5443567796
O   O23       1.0  0.85660  0.41140  0.32270  1.0000 -0.5443567796
O   O24       1.0  0.14340  0.91140  0.17730  1.0000 -0.5443567796
O   O25       1.0  0.80880  0.97050  0.33810  1.0000 -0.5243741436
O   O26       1.0  0.19120  0.47050  0.16190  1.0000 -0.5243741436
O   O27       1.0  0.19120  0.02950  0.66190  1.0000 -0.5243741436
O   O28       1.0  0.80880  0.52950  0.83810  1.0000 -0.5243741436
O   O29       1.0  0.84950  0.75840  0.71530  1.0000 -0.5116127445
O   O30       1.0  0.15050  0.25840  0.78470  1.0000 -0.5116127445
O   O31       1.0  0.15050  0.24160  0.28470  1.0000 -0.5116127445
O   O32       1.0  0.84950  0.74160  0.21530  1.0000 -0.5116127445
O   O33       1.0  0.84890  0.77890  0.34860  1.0000 -0.5681759281
O   O34       1.0  0.15110  0.27890  0.15140  1.0000 -0.5681759281
O   O35       1.0  0.15110  0.22110  0.65140  1.0000 -0.5681759281
O   O36       1.0  0.84890  0.72110  0.84860  1.0000 -0.5681759281
