# DDEC6 charges by PACMAN v1.1 (https://github.com/mtap-research/PACMAN-charge/)
data_2024[Cd][nan]3[ASR]7
_chemical_formula_sum              "Cd6 H68 C106 N12 O26"
_cell_length_a       14.7456
_cell_length_b       14.8727
_cell_length_c       19.8711
_cell_angle_alpha    95.863
_cell_angle_beta     103.166
_cell_angle_gamma    112.263

_symmetry_space_group_name_H-M    "P 1"
_symmetry_Int_Tables_number       1

loop_
  _symmetry_equiv_pos_as_xyz
  'x, y, z'

loop_
  _atom_site_type_symbol
  _atom_site_label
  _atom_site_symmetry_multiplicity
  _atom_site_fract_x
  _atom_site_fract_y
  _atom_site_fract_z
  _atom_site_occupancy
  _atom_site_charge
Cd  Cd1       1.0  0.20108  0.04699  0.24746  1.0000 0.9941175775
Cd  Cd2       1.0  0.03167  0.80698  0.11874  1.0000 0.9223639564
Cd  Cd3       1.0  0.43350  0.20818  0.40512  1.0000 0.9440941111
Cd  Cd4       1.0  0.79892  0.95301  0.75254  1.0000 0.9941175775
Cd  Cd5       1.0  0.96833  0.19302  0.88126  1.0000 0.9223639564
Cd  Cd6       1.0  0.56650  0.79182  0.59488  1.0000 0.9440941111
H   H1        1.0  0.67000  0.66080  0.79020  1.0000 0.2953399093
H   H2        1.0  0.95300  0.25470  0.16050  1.0000 0.1197032171
H   H3        1.0  0.03320  0.15020  0.15330  1.0000 0.1197032171
H   H4        1.0  0.56570  0.54910  0.70900  1.0000 0.2953399093
H   H5        1.0  0.11860  0.55400  0.28410  1.0000 0.1276309685
H   H6        1.0  0.08830  0.82500  0.40060  1.0000 0.1197032171
H   H7        1.0  0.98570  0.67560  0.97220  1.0000 0.1010311441
H   H8        1.0  0.16890  0.70330  0.24630  1.0000 0.1276309685
H   H9        1.0  0.86640  0.53810  0.21620  1.0000 0.1089432688
H   H10       1.0  0.87320  0.55240  0.34570  1.0000 0.1197032171
H   H11       1.0  0.85270  0.85040  0.00500  1.0000 0.1089432688
H   H12       1.0  0.92650  0.43650  0.04270  1.0000 0.1276309685
H   H13       1.0  0.87240  0.59610  0.86340  1.0000 0.1511627221
H   H14       1.0  0.56980  0.11470  0.30270  1.0000 0.1276309685
H   H15       1.0  0.79710  0.28220  0.45550  1.0000 0.1197032171
H   H16       1.0  0.83650  0.27240  0.05300  1.0000 0.1276309685
H   H17       1.0  0.72030  0.15080  0.27110  1.0000 0.1276309685
H   H18       1.0  0.03700  0.22270  0.28970  1.0000 0.1089432688
H   H19       1.0  0.03390  0.67320  0.43760  1.0000 0.1197032171
H   H20       1.0  0.78440  0.37570  0.22950  1.0000 0.1197032171
H   H21       1.0  0.59080  0.21390  0.09030  1.0000 0.1276309685
H   H22       1.0  0.70930  0.46970  0.35350  1.0000 0.1197032171
H   H23       1.0  0.96130  0.36510  0.45020  1.0000 0.1197032171
H   H24       1.0  0.44190  0.17780  0.12300  1.0000 0.1197032171
H   H25       1.0  0.77980  0.91960  0.15740  1.0000 0.1197032171
H   H26       1.0  0.30140  0.42920  0.42320  1.0000 0.1089432688
H   H27       1.0  0.95900  0.32780  0.30270  1.0000 0.1197032171
H   H28       1.0  0.22000  0.53310  0.44020  1.0000 0.1276309685
H   H29       1.0  0.69440  0.02080  0.15740  1.0000 0.1197032171
H   H30       1.0  0.73510  0.78250  0.89370  1.0000 0.1511627221
H   H31       1.0  0.66480  0.37420  0.66640  1.0000 0.1511627221
H   H32       1.0  0.59530  0.26200  0.55920  1.0000 0.1197032171
H   H33       1.0  0.37860  0.35300  0.50140  1.0000 0.1010311441
H   H34       1.0  0.44060  0.46800  0.60510  1.0000 0.1511627221
H   H35       1.0  0.33000  0.33920  0.20980  1.0000 0.2953399093
H   H36       1.0  0.04700  0.74530  0.83950  1.0000 0.1197032171
H   H37       1.0  0.96680  0.84980  0.84670  1.0000 0.1197032171
H   H38       1.0  0.43430  0.45090  0.29100  1.0000 0.2953399093
H   H39       1.0  0.88140  0.44600  0.71590  1.0000 0.1276309685
H   H40       1.0  0.91170  0.17500  0.59940  1.0000 0.1197032171
H   H41       1.0  0.01430  0.32440  0.02780  1.0000 0.1010311441
H   H42       1.0  0.83110  0.29670  0.75370  1.0000 0.1276309685
H   H43       1.0  0.13360  0.46190  0.78380  1.0000 0.1089432688
H   H44       1.0  0.12680  0.44760  0.65430  1.0000 0.1197032171
H   H45       1.0  0.14730  0.14960  0.99500  1.0000 0.1089432688
H   H46       1.0  0.07350  0.56350  0.95730  1.0000 0.1276309685
H   H47       1.0  0.12760  0.40390  0.13660  1.0000 0.1511627221
H   H48       1.0  0.43020  0.88530  0.69730  1.0000 0.1276309685
H   H49       1.0  0.20290  0.71780  0.54450  1.0000 0.1197032171
H   H50       1.0  0.16350  0.72760  0.94700  1.0000 0.1276309685
H   H51       1.0  0.27970  0.84920  0.72890  1.0000 0.1276309685
H   H52       1.0  0.96300  0.77730  0.71030  1.0000 0.1089432688
H   H53       1.0  0.96610  0.32680  0.56240  1.0000 0.1197032171
H   H54       1.0  0.21560  0.62430  0.77050  1.0000 0.1197032171
H   H55       1.0  0.40920  0.78610  0.90970  1.0000 0.1276309685
H   H56       1.0  0.29070  0.53030  0.64650  1.0000 0.1197032171
H   H57       1.0  0.03870  0.63490  0.54980  1.0000 0.1197032171
H   H58       1.0  0.55810  0.82220  0.87700  1.0000 0.1197032171
H   H59       1.0  0.22020  0.08040  0.84260  1.0000 0.1197032171
H   H60       1.0  0.69860  0.57080  0.57680  1.0000 0.1089432688
H   H61       1.0  0.04100  0.67220  0.69730  1.0000 0.1197032171
H   H62       1.0  0.78000  0.46690  0.55980  1.0000 0.1276309685
H   H63       1.0  0.30560  0.97920  0.84260  1.0000 0.1197032171
H   H64       1.0  0.26490  0.21750  0.10630  1.0000 0.1511627221
H   H65       1.0  0.33520  0.62580  0.33360  1.0000 0.1511627221
H   H66       1.0  0.40470  0.73800  0.44080  1.0000 0.1197032171
H   H67       1.0  0.62140  0.64700  0.49860  1.0000 0.1010311441
H   H68       1.0  0.55940  0.53200  0.39490  1.0000 0.1511627221
C   C1        1.0  0.15620  0.87200  0.29170  1.0000 0.5779756503
C   C2        1.0  0.39370  0.11800  0.23570  1.0000 0.5779756503
C   C3        1.0  0.13160  0.77850  0.31910  1.0000 -0.0318129985
C   C4        1.0  0.81400  0.15050  0.15790  1.0000 0.2081399755
C   C5        1.0  0.67150  0.18600  0.17820  1.0000 0.1778912292
C   C6        1.0  0.91610  0.18590  0.15820  1.0000 -0.197695879
C   C7        1.0  0.96450  0.12400  0.15550  1.0000 -0.0902420655
C   C8        1.0  0.06870  0.59830  0.36300  1.0000 0.1778912292
C   C9        1.0  0.22800  0.24550  0.34190  1.0000 0.5779756503
C   C10       1.0  0.17840  0.31510  0.35480  1.0000 -0.0318129985
C   C11       1.0  0.08200  0.44040  0.37420  1.0000 0.1683279694
C   C12       1.0  0.49150  0.14330  0.21610  1.0000 -0.0418371587
C   C13       1.0  0.11070  0.60850  0.30730  1.0000 -0.1898149914
C   C14       1.0  0.90660  0.50280  0.12910  1.0000 -0.0318129985
C   C15       1.0  0.97030  0.95800  0.15270  1.0000 0.5534582631
C   C16       1.0  0.93390  0.46460  0.39310  1.0000 0.1976287858
C   C17       1.0  0.09310  0.76950  0.37610  1.0000 -0.0831386297
C   C18       1.0  0.91680  0.02520  0.15570  1.0000 -0.0418371587
C   C19       1.0  0.93140  0.69510  0.95660  1.0000 0.0737776728
C   C20       1.0  0.73460  0.36390  0.40270  1.0000 -0.0418371587
C   C21       1.0  0.80710  0.30980  0.14450  1.0000 0.1683279694
C   C22       1.0  0.14110  0.69730  0.28510  1.0000 -0.0745236828
C   C23       1.0  0.86270  0.48430  0.18390  1.0000 -0.0902420655
C   C24       1.0  0.85770  0.49610  0.36700  1.0000 -0.2060186221
C   C25       1.0  0.85560  0.79740  0.97590  1.0000 0.1089432688
C   C26       1.0  0.89740  0.42430  0.08070  1.0000 -0.0831386297
C   C27       1.0  0.86490  0.64730  0.89120  1.0000 -0.243049304
C   C28       1.0  0.96310  0.60780  0.12370  1.0000 0.54165556
C   C29       1.0  0.57430  0.13520  0.25940  1.0000 -0.0745236828
C   C30       1.0  0.81210  0.33640  0.43220  1.0000 -0.0902420655
C   C31       1.0  0.62730  0.30590  0.40330  1.0000 0.5296004907
C   C32       1.0  0.84540  0.32670  0.08740  1.0000 -0.197695879
C   C33       1.0  0.66390  0.15660  0.24060  1.0000 -0.197695879
C   C34       1.0  0.07530  0.28650  0.31990  1.0000 -0.0831386297
C   C35       1.0  0.06100  0.67910  0.39840  1.0000 -0.197695879
C   C36       1.0  0.81360  0.38790  0.19160  1.0000 -0.197695879
C   C37       1.0  0.58690  0.19380  0.13380  1.0000 -0.1811282067
C   C38       1.0  0.76020  0.44700  0.37160  1.0000 -0.0902420655
C   C39       1.0  0.90950  0.38500  0.42860  1.0000 -0.197695879
C   C40       1.0  0.49870  0.17240  0.15330  1.0000 -0.0831386297
C   C41       1.0  0.78580  0.67550  0.86650  1.0000 0.3075285898
C   C42       1.0  0.81450  0.98780  0.15690  1.0000 -0.0831386297
C   C43       1.0  0.23090  0.40770  0.39900  1.0000 -0.1083583637
C   C44       1.0  0.02870  0.34800  0.32830  1.0000 -0.1703405185
C   C45       1.0  0.18270  0.46990  0.40910  1.0000 -0.1703405185
C   C46       1.0  0.76400  0.04790  0.15740  1.0000 -0.1898149914
C   C47       1.0  0.78410  0.75660  0.90970  1.0000 -0.2624758138
C   C48       1.0  0.69290  0.54290  0.75810  1.0000 0.6136304335
C   C49       1.0  0.60710  0.37290  0.63260  1.0000 -0.2322639628
C   C50       1.0  0.56410  0.43820  0.64650  1.0000 0.2890859441
C   C51       1.0  0.56480  0.30600  0.56870  1.0000 0.0753934281
C   C52       1.0  0.43890  0.35880  0.53490  1.0000 0.090876122
C   C53       1.0  0.47530  0.42770  0.59640  1.0000 -0.2624758138
C   C54       1.0  0.84380  0.12800  0.70830  1.0000 0.5779756503
C   C55       1.0  0.60630  0.88200  0.76430  1.0000 0.5779756503
C   C56       1.0  0.86840  0.22150  0.68090  1.0000 -0.0318129985
C   C57       1.0  0.18600  0.84950  0.84210  1.0000 0.2081399755
C   C58       1.0  0.32850  0.81400  0.82180  1.0000 0.1778912292
C   C59       1.0  0.08390  0.81410  0.84180  1.0000 -0.197695879
C   C60       1.0  0.03550  0.87600  0.84450  1.0000 -0.0902420655
C   C61       1.0  0.93130  0.40170  0.63700  1.0000 0.1778912292
C   C62       1.0  0.77200  0.75450  0.65810  1.0000 0.5779756503
C   C63       1.0  0.82160  0.68490  0.64520  1.0000 -0.0318129985
C   C64       1.0  0.91800  0.55960  0.62580  1.0000 0.1683279694
C   C65       1.0  0.50850  0.85670  0.78390  1.0000 -0.0418371587
C   C66       1.0  0.88930  0.39150  0.69270  1.0000 -0.1898149914
C   C67       1.0  0.09340  0.49720  0.87090  1.0000 -0.0318129985
C   C68       1.0  0.02970  0.04200  0.84730  1.0000 0.5534582631
C   C69       1.0  0.06610  0.53540  0.60690  1.0000 0.1976287858
C   C70       1.0  0.90690  0.23050  0.62390  1.0000 -0.0831386297
C   C71       1.0  0.08320  0.97480  0.84430  1.0000 -0.0418371587
C   C72       1.0  0.06860  0.30490  0.04340  1.0000 0.0737776728
C   C73       1.0  0.26540  0.63610  0.59730  1.0000 -0.0418371587
C   C74       1.0  0.19290  0.69020  0.85550  1.0000 0.1683279694
C   C75       1.0  0.85890  0.30270  0.71490  1.0000 -0.0745236828
C   C76       1.0  0.13730  0.51570  0.81610  1.0000 -0.0902420655
C   C77       1.0  0.14230  0.50390  0.63300  1.0000 -0.2060186221
C   C78       1.0  0.14440  0.20260  0.02410  1.0000 0.1089432688
C   C79       1.0  0.10260  0.57570  0.91930  1.0000 -0.0831386297
C   C80       1.0  0.13510  0.35270  0.10880  1.0000 -0.243049304
C   C81       1.0  0.03690  0.39220  0.87630  1.0000 0.54165556
C   C82       1.0  0.42570  0.86480  0.74060  1.0000 -0.0745236828
C   C83       1.0  0.18790  0.66360  0.56780  1.0000 -0.0902420655
C   C84       1.0  0.37270  0.69410  0.59670  1.0000 0.5296004907
C   C85       1.0  0.15460  0.67330  0.91260  1.0000 -0.197695879
C   C86       1.0  0.33610  0.84340  0.75940  1.0000 -0.197695879
C   C87       1.0  0.92470  0.71350  0.68010  1.0000 -0.0831386297
C   C88       1.0  0.93900  0.32090  0.60160  1.0000 -0.197695879
C   C89       1.0  0.18640  0.61210  0.80840  1.0000 -0.197695879
C   C90       1.0  0.41310  0.80620  0.86620  1.0000 -0.1811282067
C   C91       1.0  0.23980  0.55300  0.62840  1.0000 -0.0902420655
C   C92       1.0  0.09050  0.61500  0.57140  1.0000 -0.197695879
C   C93       1.0  0.50130  0.82760  0.84670  1.0000 -0.0831386297
C   C94       1.0  0.21420  0.32450  0.13350  1.0000 0.3075285898
C   C95       1.0  0.18550  0.01220  0.84310  1.0000 -0.0831386297
C   C96       1.0  0.76910  0.59230  0.60100  1.0000 -0.1083583637
C   C97       1.0  0.97130  0.65200  0.67170  1.0000 -0.1703405185
C   C98       1.0  0.81730  0.53010  0.59090  1.0000 -0.1703405185
C   C99       1.0  0.23600  0.95210  0.84260  1.0000 -0.1898149914
C   C100      1.0  0.21590  0.24340  0.09030  1.0000 -0.2624758138
C   C101      1.0  0.30710  0.45710  0.24190  1.0000 0.6136304335
C   C102      1.0  0.39290  0.62710  0.36740  1.0000 -0.2322639628
C   C103      1.0  0.43590  0.56180  0.35350  1.0000 0.2890859441
C   C104      1.0  0.43520  0.69400  0.43130  1.0000 0.0753934281
C   C105      1.0  0.56110  0.64120  0.46510  1.0000 0.090876122
C   C106      1.0  0.52470  0.57230  0.40360  1.0000 -0.2624758138
N   N1        1.0  0.03160  0.50550  0.38350  1.0000 -0.1811282067
N   N2        1.0  0.76210  0.21050  0.15660  1.0000 -0.1703405185
N   N3        1.0  0.92760  0.76690  0.00090  1.0000 -0.2693519621
N   N4        1.0  0.71090  0.63150  0.80370  1.0000 -0.4113267763
N   N5        1.0  0.48210  0.30010  0.51910  1.0000 -0.2693519621
N   N6        1.0  0.60230  0.51490  0.70510  1.0000 -0.4113267763
N   N7        1.0  0.96840  0.49450  0.61650  1.0000 -0.1811282067
N   N8        1.0  0.23790  0.78950  0.84340  1.0000 -0.1703405185
N   N9        1.0  0.07240  0.23310  0.99910  1.0000 -0.2693519621
N   N10       1.0  0.28910  0.36850  0.19630  1.0000 -0.4113267763
N   N11       1.0  0.51790  0.69990  0.48090  1.0000 -0.2693519621
N   N12       1.0  0.39770  0.48510  0.29490  1.0000 -0.4113267763
O   O1        1.0  0.38860  0.10160  0.29592  1.0000 -0.5887671713
O   O2        1.0  0.16590  0.87210  0.23021  1.0000 -0.5887671713
O   O3        1.0  0.06220  0.99360  0.15241  1.0000 -0.5834576292
O   O4        1.0  0.31580  0.10970  0.18855  1.0000 -0.5489906921
O   O5        1.0  0.16780  0.95100  0.33056  1.0000 -0.5404993101
O   O6        1.0  0.17260  0.16490  0.29940  1.0000 -0.5489906921
O   O7        1.0  0.94260  0.67340  0.15400  1.0000 -0.5210580035
O   O8        1.0  0.60660  0.23180  0.43020  1.0000 -0.5404993101
O   O9        1.0  0.55800  0.33270  0.37400  1.0000 -0.5696204408
O   O10       1.0  0.92090  0.86760  0.14740  1.0000 -0.4975994183
O   O11       1.0  0.32090  0.27390  0.37380  1.0000 -0.5887671713
O   O12       1.0  0.02640  0.62840  0.08920  1.0000 -0.5696204408
O   O13       1.0  0.74950  0.50270  0.76390  1.0000 -0.4583391054
O   O14       1.0  0.61140  0.89840  0.70408  1.0000 -0.5887671713
O   O15       1.0  0.83410  0.12790  0.76979  1.0000 -0.5887671713
O   O16       1.0  0.93780  0.00640  0.84759  1.0000 -0.5834576292
O   O17       1.0  0.68420  0.89030  0.81145  1.0000 -0.5489906921
O   O18       1.0  0.83220  0.04900  0.66944  1.0000 -0.5404993101
O   O19       1.0  0.82740  0.83510  0.70060  1.0000 -0.5489906921
O   O20       1.0  0.05740  0.32660  0.84600  1.0000 -0.5210580035
O   O21       1.0  0.39340  0.76820  0.56980  1.0000 -0.5404993101
O   O22       1.0  0.44200  0.66730  0.62600  1.0000 -0.5696204408
O   O23       1.0  0.07910  0.13240  0.85260  1.0000 -0.4975994183
O   O24       1.0  0.67910  0.72610  0.62620  1.0000 -0.5887671713
O   O25       1.0  0.97360  0.37160  0.91080  1.0000 -0.5696204408
O   O26       1.0  0.25050  0.49730  0.23610  1.0000 -0.4583391054
