# DDEC6 charges by PACMAN v1.1 (https://github.com/mtap-research/PACMAN-charge/)
data_2024[Cu][nan]3[ASR]2
_chemical_formula_sum              "Cu12 H52 C104 N4 O48"
_cell_length_a       18.8653
_cell_length_b       18.8653
_cell_length_c       19.2775
_cell_angle_alpha    90
_cell_angle_beta     90
_cell_angle_gamma    137.348

_symmetry_space_group_name_H-M    "P 1"
_symmetry_Int_Tables_number       1

loop_
  _symmetry_equiv_pos_as_xyz
  'x, y, z'

loop_
  _atom_site_type_symbol
  _atom_site_label
  _atom_site_symmetry_multiplicity
  _atom_site_fract_x
  _atom_site_fract_y
  _atom_site_fract_z
  _atom_site_occupancy
  _atom_site_charge
Cu  Cu1       1.0  0.28896  0.71104  0.46189  1.0000 0.8703854888
Cu  Cu2       1.0  0.21104  0.78896  0.96189  1.0000 0.8703854888
Cu  Cu3       1.0  0.71104  0.28896  0.53811  1.0000 0.8703854888
Cu  Cu4       1.0  0.78896  0.21104  0.03811  1.0000 0.8703854888
Cu  Cu5       1.0  0.34836  0.65164  0.37849  1.0000 0.8703854888
Cu  Cu6       1.0  0.15164  0.84836  0.87849  1.0000 0.8703854888
Cu  Cu7       1.0  0.65164  0.34836  0.62151  1.0000 0.8703854888
Cu  Cu8       1.0  0.84836  0.15164  0.12151  1.0000 0.8703854888
Cu  Cu9       1.0  0.98620  0.01380  0.43582  1.0000 0.8612737044
Cu  Cu10      1.0  0.51380  0.48620  0.93582  1.0000 0.8612737044
Cu  Cu11      1.0  0.01380  0.98620  0.56418  1.0000 0.8612737044
Cu  Cu12      1.0  0.48620  0.51380  0.06418  1.0000 0.8612737044
H   H1        1.0  0.13589  0.47339  0.62038  1.0000 0.1302409221
H   H2        1.0  0.36411  0.02661  0.12038  1.0000 0.1302409221
H   H3        1.0  0.47338  0.13589  0.37962  1.0000 0.1302409221
H   H4        1.0  0.02661  0.36411  0.87962  1.0000 0.1302409221
H   H5        1.0  0.86411  0.52662  0.37962  1.0000 0.1302409221
H   H6        1.0  0.63589  0.97338  0.87962  1.0000 0.1302409221
H   H7        1.0  0.52661  0.86410  0.62038  1.0000 0.1302409221
H   H8        1.0  0.97338  0.63589  0.12038  1.0000 0.1302409221
H   H9        1.0  0.93776  0.56224  0.75000  1.0000 0.1432149367
H   H10       1.0  0.56224  0.93776  0.25000  1.0000 0.1452087595
H   H11       1.0  0.06224  0.43776  0.25000  1.0000 0.1432149367
H   H12       1.0  0.43776  0.06224  0.75000  1.0000 0.1432149367
H   H13       1.0  0.16785  0.34845  0.47202  1.0000 0.1432149367
H   H14       1.0  0.33215  0.15155  0.97202  1.0000 0.1432149367
H   H15       1.0  0.34845  0.16785  0.52798  1.0000 0.1432149367
H   H16       1.0  0.15155  0.33215  0.02798  1.0000 0.1432149367
H   H17       1.0  0.83215  0.65155  0.52798  1.0000 0.1432149367
H   H18       1.0  0.66785  0.84845  0.02798  1.0000 0.1432149367
H   H19       1.0  0.65155  0.83215  0.47202  1.0000 0.1432149367
H   H20       1.0  0.84845  0.66785  0.97202  1.0000 0.1432149367
H   H21       1.0  0.03263  0.20023  0.65383  1.0000 0.1302409221
H   H22       1.0  0.46737  0.29977  0.15383  1.0000 0.1302409221
H   H23       1.0  0.20023  0.03263  0.34617  1.0000 0.1302409221
H   H24       1.0  0.29977  0.46737  0.84617  1.0000 0.1302409221
H   H25       1.0  0.96737  0.79977  0.34617  1.0000 0.1302409221
H   H26       1.0  0.53263  0.70023  0.84617  1.0000 0.1302409221
H   H27       1.0  0.79977  0.96737  0.65383  1.0000 0.1302409221
H   H28       1.0  0.70023  0.53263  0.15383  1.0000 0.1302409221
H   H29       1.0  0.95630  0.28128  0.71321  1.0000 0.1302409221
H   H30       1.0  0.54370  0.21872  0.21321  1.0000 0.1302409221
H   H31       1.0  0.28128  0.95630  0.28679  1.0000 0.1302409221
H   H32       1.0  0.21872  0.54370  0.78679  1.0000 0.1302409221
H   H33       1.0  0.04370  0.71872  0.28679  1.0000 0.1302409221
H   H34       1.0  0.45630  0.78128  0.78679  1.0000 0.1302409221
H   H35       1.0  0.71872  0.04370  0.71321  1.0000 0.1302409221
H   H36       1.0  0.78128  0.45630  0.21321  1.0000 0.1302409221
H   H37       1.0  0.03232  0.28394  0.75001  1.0000 0.1223013609
H   H38       1.0  0.46768  0.21606  0.25001  1.0000 0.1223013609
H   H39       1.0  0.28394  0.03232  0.24999  1.0000 0.1223013609
H   H40       1.0  0.21606  0.46768  0.74999  1.0000 0.1223013609
H   H41       1.0  0.96768  0.71606  0.24999  1.0000 0.1223013609
H   H42       1.0  0.53232  0.78394  0.74999  1.0000 0.1223013609
H   H43       1.0  0.71606  0.96768  0.75001  1.0000 0.1223013609
H   H44       1.0  0.78394  0.53232  0.25001  1.0000 0.1223013609
H   H45       1.0  0.13377  0.56311  0.82819  1.0000 0.1302409221
H   H46       1.0  0.36623  0.93689  0.32819  1.0000 0.1302409221
H   H47       1.0  0.56311  0.13377  0.17181  1.0000 0.1302409221
H   H48       1.0  0.93689  0.36623  0.67181  1.0000 0.1302409221
H   H49       1.0  0.86623  0.43689  0.17181  1.0000 0.1302409221
H   H50       1.0  0.63377  0.06311  0.67181  1.0000 0.1302409221
H   H51       1.0  0.43689  0.86623  0.82819  1.0000 0.1302409221
H   H52       1.0  0.06311  0.63377  0.32819  1.0000 0.1302409221
C   C1        1.0  0.22014  0.52146  0.49470  1.0000 0.5738268628
C   C2        1.0  0.27986  0.97854  0.99470  1.0000 0.5738268628
C   C3        1.0  0.52146  0.22014  0.50530  1.0000 0.5738268628
C   C4        1.0  0.97854  0.27986  0.00530  1.0000 0.5738268628
C   C5        1.0  0.77986  0.47854  0.50530  1.0000 0.5738268628
C   C6        1.0  0.72014  0.02146  0.00530  1.0000 0.5738268628
C   C7        1.0  0.47854  0.77986  0.49470  1.0000 0.5738268628
C   C8        1.0  0.02146  0.72014  0.99470  1.0000 0.5738268628
C   C9        1.0  0.08762  0.66178  0.84400  1.0000 0.5782865196
C   C10       1.0  0.41238  0.83822  0.34400  1.0000 0.5782865196
C   C11       1.0  0.66178  0.08762  0.15600  1.0000 0.5782865196
C   C12       1.0  0.83822  0.41238  0.65600  1.0000 0.5782865196
C   C13       1.0  0.91238  0.33822  0.15600  1.0000 0.5782865196
C   C14       1.0  0.58762  0.16178  0.65600  1.0000 0.5782865196
C   C15       1.0  0.33822  0.91238  0.84400  1.0000 0.5782865196
C   C16       1.0  0.16178  0.58762  0.34400  1.0000 0.5782865196
C   C17       1.0  0.12674  0.42026  0.60520  1.0000 -0.1706516274
C   C18       1.0  0.37326  0.07974  0.10520  1.0000 -0.1706516274
C   C19       1.0  0.42026  0.12674  0.39480  1.0000 -0.1706516274
C   C20       1.0  0.07974  0.37326  0.89480  1.0000 -0.1706516274
C   C21       1.0  0.87326  0.57974  0.39480  1.0000 -0.1706516274
C   C22       1.0  0.62674  0.92026  0.89480  1.0000 -0.1706516274
C   C23       1.0  0.57974  0.87326  0.60520  1.0000 -0.1706516274
C   C24       1.0  0.92026  0.62674  0.10520  1.0000 -0.1706516274
C   C25       1.0  0.09734  0.26126  0.55920  1.0000 -0.0364105801
C   C26       1.0  0.40266  0.23874  0.05920  1.0000 -0.0364105801
C   C27       1.0  0.26126  0.09734  0.44080  1.0000 -0.0364105801
C   C28       1.0  0.23874  0.40266  0.94080  1.0000 -0.0364105801
C   C29       1.0  0.90266  0.73874  0.44080  1.0000 -0.0364105801
C   C30       1.0  0.59734  0.76126  0.94080  1.0000 -0.0364105801
C   C31       1.0  0.73874  0.90266  0.55920  1.0000 -0.0364105801
C   C32       1.0  0.76126  0.59734  0.05920  1.0000 -0.0364105801
C   C33       1.0  0.96420  0.53580  0.75000  1.0000 -0.1142770962
C   C34       1.0  0.53580  0.96420  0.25000  1.0000 -0.1142770962
C   C35       1.0  0.03580  0.46420  0.25000  1.0000 -0.1142770962
C   C36       1.0  0.46420  0.03580  0.75000  1.0000 -0.1142770962
C   C37       1.0  0.14703  0.34657  0.51630  1.0000 -0.097867116
C   C38       1.0  0.35297  0.15343  0.01630  1.0000 -0.097867116
C   C39       1.0  0.34657  0.14703  0.48370  1.0000 -0.097867116
C   C40       1.0  0.15343  0.35297  0.98370  1.0000 -0.097867116
C   C41       1.0  0.85297  0.65343  0.48370  1.0000 -0.097867116
C   C42       1.0  0.64703  0.84657  0.98370  1.0000 -0.097867116
C   C43       1.0  0.65343  0.85297  0.51630  1.0000 -0.097867116
C   C44       1.0  0.84657  0.64703  0.01630  1.0000 -0.097867116
C   C45       1.0  0.06348  0.25632  0.62490  1.0000 -0.1706516274
C   C46       1.0  0.43652  0.24368  0.12490  1.0000 -0.1706516274
C   C47       1.0  0.25632  0.06348  0.37510  1.0000 -0.1706516274
C   C48       1.0  0.24368  0.43652  0.87510  1.0000 -0.1706516274
C   C49       1.0  0.93652  0.74368  0.37510  1.0000 -0.1706516274
C   C50       1.0  0.56348  0.75632  0.87510  1.0000 -0.1706516274
C   C51       1.0  0.74368  0.93652  0.62490  1.0000 -0.1706516274
C   C52       1.0  0.75632  0.56348  0.12490  1.0000 -0.1706516274
C   C53       1.0  0.02931  0.32229  0.71920  1.0000 -0.1631582599
C   C54       1.0  0.47069  0.17771  0.21920  1.0000 -0.1631582599
C   C55       1.0  0.32229  0.02931  0.28080  1.0000 -0.1631582599
C   C56       1.0  0.17771  0.47069  0.78080  1.0000 -0.1631582599
C   C57       1.0  0.97069  0.67771  0.28080  1.0000 -0.1631582599
C   C58       1.0  0.52931  0.82229  0.78080  1.0000 -0.1631582599
C   C59       1.0  0.67771  0.97069  0.71920  1.0000 -0.1631582599
C   C60       1.0  0.82229  0.52931  0.21920  1.0000 -0.1631582599
C   C61       1.0  0.07546  0.33494  0.64770  1.0000 0.0924402608
C   C62       1.0  0.42454  0.16506  0.14770  1.0000 0.0924402608
C   C63       1.0  0.33494  0.07546  0.35230  1.0000 0.0924402608
C   C64       1.0  0.16506  0.42454  0.85230  1.0000 0.0924402608
C   C65       1.0  0.92454  0.66506  0.35230  1.0000 0.0924402608
C   C66       1.0  0.57546  0.83494  0.85230  1.0000 0.0924402608
C   C67       1.0  0.66506  0.92454  0.64770  1.0000 0.0924402608
C   C68       1.0  0.83494  0.57546  0.14770  1.0000 0.0924402608
C   C69       1.0  0.16586  0.42934  0.53930  1.0000 -0.0216892268
C   C70       1.0  0.33414  0.07066  0.03930  1.0000 -0.0216892268
C   C71       1.0  0.42934  0.16586  0.46070  1.0000 -0.0216892268
C   C72       1.0  0.07066  0.33414  0.96070  1.0000 -0.0216892268
C   C73       1.0  0.83414  0.57066  0.46070  1.0000 -0.0216892268
C   C74       1.0  0.66586  0.92934  0.96070  1.0000 -0.0216892268
C   C75       1.0  0.57066  0.83414  0.53930  1.0000 -0.0216892268
C   C76       1.0  0.92934  0.66586  0.03930  1.0000 -0.0216892268
C   C77       1.0  0.04268  0.57452  0.79590  1.0000 0.0037597606
C   C78       1.0  0.45732  0.92548  0.29590  1.0000 0.0037597606
C   C79       1.0  0.57452  0.04268  0.20410  1.0000 0.0037597606
C   C80       1.0  0.92548  0.45732  0.70410  1.0000 0.0037597606
C   C81       1.0  0.95732  0.42548  0.20410  1.0000 0.0037597606
C   C82       1.0  0.54268  0.07452  0.70410  1.0000 0.0037597606
C   C83       1.0  0.42548  0.95732  0.79590  1.0000 0.0037597606
C   C84       1.0  0.07452  0.54268  0.29590  1.0000 0.0037597606
C   C85       1.0  0.07438  0.17222  0.53590  1.0000 0.5738268628
C   C86       1.0  0.42562  0.32778  0.03590  1.0000 0.5738268628
C   C87       1.0  0.17222  0.07438  0.46410  1.0000 0.5738268628
C   C88       1.0  0.32778  0.42562  0.96410  1.0000 0.5738268628
C   C89       1.0  0.92562  0.82778  0.46410  1.0000 0.5738268628
C   C90       1.0  0.57438  0.67222  0.96410  1.0000 0.5738268628
C   C91       1.0  0.82778  0.92562  0.53590  1.0000 0.5738268628
C   C92       1.0  0.67222  0.57438  0.03590  1.0000 0.5738268628
C   C93       1.0  0.08153  0.53687  0.79680  1.0000 -0.1836910413
C   C94       1.0  0.41847  0.96313  0.29680  1.0000 -0.1836910413
C   C95       1.0  0.53687  0.08153  0.20320  1.0000 -0.1836910413
C   C96       1.0  0.96313  0.41847  0.70320  1.0000 -0.1836910413
C   C97       1.0  0.91847  0.46313  0.20320  1.0000 -0.1836910413
C   C98       1.0  0.58153  0.03687  0.70320  1.0000 -0.1836910413
C   C99       1.0  0.46313  0.91847  0.79680  1.0000 -0.1836910413
C   C100      1.0  0.03687  0.58153  0.29680  1.0000 -0.1836910413
C   C101      1.0  0.04250  0.45750  0.75000  1.0000 0.1681061968
C   C102      1.0  0.45750  0.04250  0.25000  1.0000 0.1681061968
C   C103      1.0  0.95750  0.54250  0.25000  1.0000 0.1681061968
C   C104      1.0  0.54250  0.95750  0.75000  1.0000 0.1681061968
N   N1        1.0  0.08210  0.41790  0.75000  1.0000 -0.0364105801
N   N2        1.0  0.41790  0.08210  0.25000  1.0000 -0.0364105801
N   N3        1.0  0.91790  0.58210  0.25000  1.0000 -0.0364105801
N   N4        1.0  0.58210  0.91790  0.75000  1.0000 -0.0364105801
O   O1        1.0  0.08037  0.72063  0.82750  1.0000 -0.511721851
O   O2        1.0  0.41963  0.77937  0.32750  1.0000 -0.511721851
O   O3        1.0  0.72063  0.08037  0.17250  1.0000 -0.511721851
O   O4        1.0  0.77937  0.41963  0.67250  1.0000 -0.511721851
O   O5        1.0  0.91963  0.27937  0.17250  1.0000 -0.511721851
O   O6        1.0  0.58037  0.22063  0.67250  1.0000 -0.511721851
O   O7        1.0  0.27937  0.91963  0.82750  1.0000 -0.511721851
O   O8        1.0  0.22063  0.58037  0.32750  1.0000 -0.511721851
O   O9        1.0  0.21661  0.58319  0.51130  1.0000 -0.5280940565
O   O10       1.0  0.28339  0.91681  0.01130  1.0000 -0.5280940565
O   O11       1.0  0.58319  0.21661  0.48870  1.0000 -0.5280940565
O   O12       1.0  0.91681  0.28339  0.98870  1.0000 -0.5280940565
O   O13       1.0  0.78339  0.41681  0.48870  1.0000 -0.5280940565
O   O14       1.0  0.71661  0.08319  0.98870  1.0000 -0.5280940565
O   O15       1.0  0.41681  0.78339  0.51130  1.0000 -0.5280940565
O   O16       1.0  0.08319  0.71661  0.01130  1.0000 -0.5280940565
O   O17       1.0  0.13316  0.67204  0.89830  1.0000 -0.5412395165
O   O18       1.0  0.36684  0.82796  0.39830  1.0000 -0.5412395165
O   O19       1.0  0.67204  0.13316  0.10170  1.0000 -0.5412395165
O   O20       1.0  0.82796  0.36684  0.60170  1.0000 -0.5412395165
O   O21       1.0  0.86684  0.32796  0.10170  1.0000 -0.5412395165
O   O22       1.0  0.63316  0.17204  0.60170  1.0000 -0.5412395165
O   O23       1.0  0.32796  0.86684  0.89830  1.0000 -0.5412395165
O   O24       1.0  0.17204  0.63316  0.39830  1.0000 -0.5412395165
O   O25       1.0  0.26632  0.53128  0.44100  1.0000 -0.5280940565
O   O26       1.0  0.23368  0.96872  0.94100  1.0000 -0.5280940565
O   O27       1.0  0.53128  0.26632  0.55900  1.0000 -0.5280940565
O   O28       1.0  0.96872  0.23368  0.05900  1.0000 -0.5280940565
O   O29       1.0  0.73368  0.46872  0.55900  1.0000 -0.5280940565
O   O30       1.0  0.76632  0.03128  0.05900  1.0000 -0.5280940565
O   O31       1.0  0.46872  0.73368  0.44100  1.0000 -0.5280940565
O   O32       1.0  0.03128  0.76632  0.94100  1.0000 -0.5280940565
O   O33       1.0  0.05230  0.14850  0.47250  1.0000 -0.511721851
O   O34       1.0  0.44770  0.35150  0.97250  1.0000 -0.511721851
O   O35       1.0  0.14850  0.05230  0.52750  1.0000 -0.511721851
O   O36       1.0  0.35150  0.44770  0.02750  1.0000 -0.511721851
O   O37       1.0  0.94770  0.85150  0.52750  1.0000 -0.511721851
O   O38       1.0  0.55230  0.64850  0.02750  1.0000 -0.511721851
O   O39       1.0  0.85150  0.94770  0.47250  1.0000 -0.511721851
O   O40       1.0  0.64850  0.55230  0.97250  1.0000 -0.511721851
O   O41       1.0  0.07163  0.12157  0.58080  1.0000 -0.5242589678
O   O42       1.0  0.42837  0.37843  0.08080  1.0000 -0.5242589678
O   O43       1.0  0.12157  0.07163  0.41920  1.0000 -0.5242589678
O   O44       1.0  0.37843  0.42837  0.91920  1.0000 -0.5280940565
O   O45       1.0  0.92837  0.87843  0.41920  1.0000 -0.5242589678
O   O46       1.0  0.57163  0.62157  0.91920  1.0000 -0.5280940565
O   O47       1.0  0.87843  0.92837  0.58080  1.0000 -0.5242589678
O   O48       1.0  0.62157  0.57163  0.08080  1.0000 -0.5242589678
