# DDEC6 charges by PACMAN v1.1 (https://github.com/mtap-research/PACMAN-charge/)
data_1997[Cu][dia]3[FSR]1
_chemical_formula_sum              "Cu6 H96 C168 N24"
_cell_length_a       16.8918
_cell_length_b       16.8918
_cell_length_c       16.8918
_cell_angle_alpha    109.471
_cell_angle_beta     109.471
_cell_angle_gamma    109.471

_symmetry_space_group_name_H-M    "P 1"
_symmetry_Int_Tables_number       1

loop_
  _symmetry_equiv_pos_as_xyz
  'x, y, z'

loop_
  _atom_site_type_symbol
  _atom_site_label
  _atom_site_symmetry_multiplicity
  _atom_site_fract_x
  _atom_site_fract_y
  _atom_site_fract_z
  _atom_site_occupancy
  _atom_site_charge
Cu  Cu1       1.0  0.62500  0.75000  0.37500  1.0000 0.1942334172
Cu  Cu2       1.0  0.87500  0.25000  0.12500  1.0000 0.1942334172
Cu  Cu3       1.0  0.75000  0.37500  0.62500  1.0000 0.1942334172
Cu  Cu4       1.0  0.25000  0.12500  0.87500  1.0000 0.1942334172
Cu  Cu5       1.0  0.37500  0.62500  0.75000  1.0000 0.1942334172
Cu  Cu6       1.0  0.12500  0.87500  0.25000  1.0000 0.1942334172
H   H1        1.0  0.52280  0.64230  0.44230  1.0000 0.1077419989
H   H2        1.0  0.70000  0.08050  0.05770  1.0000 0.1077419989
H   H3        1.0  0.97720  0.41950  0.11950  1.0000 0.1077419989
H   H4        1.0  0.80000  0.85770  0.38050  1.0000 0.1077419989
H   H5        1.0  0.61950  0.91950  0.47720  1.0000 0.1077419989
H   H6        1.0  0.88050  0.35770  0.30000  1.0000 0.1077419989
H   H7        1.0  0.55770  0.58050  0.20000  1.0000 0.1077419989
H   H8        1.0  0.94230  0.14230  0.02280  1.0000 0.1077419989
H   H9        1.0  0.42250  0.72690  0.26060  1.0000 0.1077419989
H   H10       1.0  0.96630  0.16190  0.23940  1.0000 0.1077419989
H   H11       1.0  0.07750  0.33810  0.30440  1.0000 0.1077419989
H   H12       1.0  0.53370  0.77310  0.19560  1.0000 0.1077419989
H   H13       1.0  0.80440  0.83810  0.57750  1.0000 0.1077419989
H   H14       1.0  0.69560  0.27310  0.03370  1.0000 0.1077419989
H   H15       1.0  0.73940  0.66190  0.46630  1.0000 0.1077419989
H   H16       1.0  0.76060  0.22690  0.92250  1.0000 0.1077419989
H   H17       1.0  0.41100  0.52570  0.46990  1.0000 0.1182041139
H   H18       1.0  0.55580  0.94110  0.03010  1.0000 0.1182041139
H   H19       1.0  0.08900  0.55890  0.11470  1.0000 0.1182041139
H   H20       1.0  0.94420  0.97430  0.38530  1.0000 0.1182041139
H   H21       1.0  0.61470  0.05890  0.58900  1.0000 0.1182041139
H   H22       1.0  0.88530  0.47430  0.44420  1.0000 0.1182041139
H   H23       1.0  0.53010  0.44110  0.05580  1.0000 0.1182041139
H   H24       1.0  0.96990  0.02570  0.91100  1.0000 0.1182041139
H   H25       1.0  0.24600  0.66350  0.16050  1.0000 0.1182041139
H   H26       1.0  0.00300  0.08550  0.33950  1.0000 0.1182041139
H   H27       1.0  0.25400  0.41450  0.41750  1.0000 0.1182041139
H   H28       1.0  0.49700  0.83650  0.08250  1.0000 0.1182041139
H   H29       1.0  0.91750  0.91450  0.75400  1.0000 0.1182041139
H   H30       1.0  0.58250  0.33650  0.99700  1.0000 0.1182041139
H   H31       1.0  0.83950  0.58550  0.50300  1.0000 0.1182041139
H   H32       1.0  0.66050  0.16350  0.74600  1.0000 0.1182041139
H   H33       1.0  0.91950  0.47720  0.61950  1.0000 0.1077419989
H   H34       1.0  0.35770  0.30000  0.88050  1.0000 0.1077419989
H   H35       1.0  0.58050  0.20000  0.55770  1.0000 0.1077419989
H   H36       1.0  0.14230  0.02280  0.94230  1.0000 0.1077419989
H   H37       1.0  0.08050  0.05770  0.70000  1.0000 0.1077419989
H   H38       1.0  0.64230  0.44230  0.52280  1.0000 0.1077419989
H   H39       1.0  0.41950  0.11950  0.97720  1.0000 0.1077419989
H   H40       1.0  0.85770  0.38050  0.80000  1.0000 0.1077419989
H   H41       1.0  0.83810  0.57750  0.80440  1.0000 0.1077419989
H   H42       1.0  0.27310  0.03370  0.69560  1.0000 0.1077419989
H   H43       1.0  0.66190  0.46630  0.73940  1.0000 0.1077419989
H   H44       1.0  0.22690  0.92250  0.76060  1.0000 0.1077419989
H   H45       1.0  0.16190  0.23940  0.96630  1.0000 0.1077419989
H   H46       1.0  0.72690  0.26060  0.42250  1.0000 0.1077419989
H   H47       1.0  0.33810  0.30440  0.07750  1.0000 0.1077419989
H   H48       1.0  0.77310  0.19560  0.53370  1.0000 0.1077419989
H   H49       1.0  0.05890  0.58900  0.61470  1.0000 0.1182041139
H   H50       1.0  0.47430  0.44420  0.88530  1.0000 0.1182041139
H   H51       1.0  0.44110  0.05580  0.53010  1.0000 0.1182041139
H   H52       1.0  0.02570  0.91100  0.96990  1.0000 0.1182041139
H   H53       1.0  0.94110  0.03010  0.55580  1.0000 0.1182041139
H   H54       1.0  0.52570  0.46990  0.41100  1.0000 0.1182041139
H   H55       1.0  0.55890  0.11470  0.08900  1.0000 0.1182041139
H   H56       1.0  0.97430  0.38530  0.94420  1.0000 0.1182041139
H   H57       1.0  0.91450  0.75400  0.91750  1.0000 0.1182041139
H   H58       1.0  0.33650  0.99700  0.58250  1.0000 0.1182041139
H   H59       1.0  0.58550  0.50300  0.83950  1.0000 0.1182041139
H   H60       1.0  0.16350  0.74600  0.66050  1.0000 0.1182041139
H   H61       1.0  0.08550  0.33950  0.00300  1.0000 0.1182041139
H   H62       1.0  0.66350  0.16050  0.24600  1.0000 0.1182041139
H   H63       1.0  0.41450  0.41750  0.25400  1.0000 0.1182041139
H   H64       1.0  0.83650  0.08250  0.49700  1.0000 0.1182041139
H   H65       1.0  0.47720  0.61950  0.91950  1.0000 0.1077419989
H   H66       1.0  0.38050  0.80000  0.85770  1.0000 0.1077419989
H   H67       1.0  0.02280  0.94230  0.14230  1.0000 0.1077419989
H   H68       1.0  0.20000  0.55770  0.58050  1.0000 0.1077419989
H   H69       1.0  0.05770  0.70000  0.08050  1.0000 0.1077419989
H   H70       1.0  0.44230  0.52280  0.64230  1.0000 0.1077419989
H   H71       1.0  0.30000  0.88050  0.35770  1.0000 0.1077419989
H   H72       1.0  0.11950  0.97720  0.41950  1.0000 0.1077419989
H   H73       1.0  0.57750  0.80440  0.83810  1.0000 0.1077419989
H   H74       1.0  0.19560  0.53370  0.77310  1.0000 0.1077419989
H   H75       1.0  0.92250  0.76060  0.22690  1.0000 0.1077419989
H   H76       1.0  0.46630  0.73940  0.66190  1.0000 0.1077419989
H   H77       1.0  0.23940  0.96630  0.16190  1.0000 0.1077419989
H   H78       1.0  0.26060  0.42250  0.72690  1.0000 0.1077419989
H   H79       1.0  0.03370  0.69560  0.27310  1.0000 0.1077419989
H   H80       1.0  0.30440  0.07750  0.33810  1.0000 0.1077419989
H   H81       1.0  0.58900  0.61470  0.05890  1.0000 0.1182041139
H   H82       1.0  0.38530  0.94420  0.97430  1.0000 0.1182041139
H   H83       1.0  0.91100  0.96990  0.02570  1.0000 0.1182041139
H   H84       1.0  0.05580  0.53010  0.44110  1.0000 0.1182041139
H   H85       1.0  0.03010  0.55580  0.94110  1.0000 0.1182041139
H   H86       1.0  0.46990  0.41100  0.52570  1.0000 0.1182041139
H   H87       1.0  0.44420  0.88530  0.47430  1.0000 0.1182041139
H   H88       1.0  0.11470  0.08900  0.55890  1.0000 0.1182041139
H   H89       1.0  0.75400  0.91750  0.91450  1.0000 0.1182041139
H   H90       1.0  0.08250  0.49700  0.83650  1.0000 0.1182041139
H   H91       1.0  0.74600  0.66050  0.16350  1.0000 0.1182041139
H   H92       1.0  0.50300  0.83950  0.58550  1.0000 0.1182041139
H   H93       1.0  0.33950  0.00300  0.08550  1.0000 0.1182041139
H   H94       1.0  0.16050  0.24600  0.66350  1.0000 0.1182041139
H   H95       1.0  0.99700  0.58250  0.33650  1.0000 0.1182041139
H   H96       1.0  0.41750  0.25400  0.41450  1.0000 0.1182041139
C   C1        1.0  0.46890  0.63780  0.39490  1.0000 -0.0383274093
C   C2        1.0  0.74290  0.07400  0.10510  1.0000 -0.0383274093
C   C3        1.0  0.03110  0.42600  0.16890  1.0000 -0.0383274093
C   C4        1.0  0.75710  0.86220  0.33110  1.0000 -0.0383274093
C   C5        1.0  0.66890  0.92600  0.53110  1.0000 -0.0383274093
C   C6        1.0  0.83110  0.36220  0.25710  1.0000 -0.0383274093
C   C7        1.0  0.60510  0.57400  0.24290  1.0000 -0.0383274093
C   C8        1.0  0.89490  0.13780  0.96890  1.0000 -0.0383274093
C   C9        1.0  0.37800  0.57650  0.37430  1.0000 0.0473340671
C   C10       1.0  0.70220  0.00370  0.12570  1.0000 0.0473340671
C   C11       1.0  0.12200  0.49630  0.19850  1.0000 0.0473340671
C   C12       1.0  0.79780  0.92350  0.30150  1.0000 0.0473340671
C   C13       1.0  0.69850  0.99630  0.62200  1.0000 0.0473340671
C   C14       1.0  0.80150  0.42350  0.29780  1.0000 0.0473340671
C   C15       1.0  0.62570  0.50370  0.20220  1.0000 0.0473340671
C   C16       1.0  0.87430  0.07650  0.87800  1.0000 0.0473340671
C   C17       1.0  0.29910  0.57030  0.30300  1.0000 0.0088492123
C   C18       1.0  0.76730  0.99610  0.19700  1.0000 0.0088492123
C   C19       1.0  0.20090  0.50390  0.27120  1.0000 0.0088492123
C   C20       1.0  0.73270  0.92970  0.22880  1.0000 0.0088492123
C   C21       1.0  0.77120  0.00390  0.70090  1.0000 0.0088492123
C   C22       1.0  0.72880  0.42970  0.23270  1.0000 0.0088492123
C   C23       1.0  0.69700  0.49610  0.26730  1.0000 0.0088492123
C   C24       1.0  0.80300  0.07030  0.79910  1.0000 0.0088492123
C   C25       1.0  0.31600  0.62800  0.26020  1.0000 0.0473340671
C   C26       1.0  0.86780  0.05580  0.23980  1.0000 0.0473340671
C   C27       1.0  0.18400  0.44420  0.31200  1.0000 0.0473340671
C   C28       1.0  0.63220  0.87200  0.18800  1.0000 0.0473340671
C   C29       1.0  0.81200  0.94420  0.68400  1.0000 0.0473340671
C   C30       1.0  0.68800  0.37200  0.13220  1.0000 0.0473340671
C   C31       1.0  0.73980  0.55580  0.36780  1.0000 0.0473340671
C   C32       1.0  0.76020  0.12800  0.81600  1.0000 0.0473340671
C   C33       1.0  0.41050  0.68700  0.28850  1.0000 -0.0383274093
C   C34       1.0  0.89850  0.12200  0.21150  1.0000 -0.0383274093
C   C35       1.0  0.08950  0.37800  0.27650  1.0000 -0.0383274093
C   C36       1.0  0.60150  0.81300  0.22350  1.0000 -0.0383274093
C   C37       1.0  0.77650  0.87800  0.58950  1.0000 -0.0383274093
C   C38       1.0  0.72350  0.31300  0.10150  1.0000 -0.0383274093
C   C39       1.0  0.71150  0.62200  0.39850  1.0000 -0.0383274093
C   C40       1.0  0.78850  0.18700  0.91050  1.0000 -0.0383274093
C   C41       1.0  0.35840  0.51860  0.41860  1.0000 -0.1700759713
C   C42       1.0  0.60000  0.93980  0.08140  1.0000 -0.1700759713
C   C43       1.0  0.14160  0.56020  0.16020  1.0000 -0.1700759713
C   C44       1.0  0.90000  0.98140  0.33980  1.0000 -0.1700759713
C   C45       1.0  0.66020  0.06020  0.64160  1.0000 -0.1700759713
C   C46       1.0  0.83980  0.48140  0.40000  1.0000 -0.1700759713
C   C47       1.0  0.58140  0.43980  0.10000  1.0000 -0.1700759713
C   C48       1.0  0.91860  0.01860  0.85840  1.0000 -0.1700759713
C   C49       1.0  0.23470  0.62320  0.18810  1.0000 -0.1596151494
C   C50       1.0  0.93510  0.04660  0.31190  1.0000 -0.1596151494
C   C51       1.0  0.26530  0.45340  0.38850  1.0000 -0.1596151494
C   C52       1.0  0.56490  0.87680  0.11150  1.0000 -0.1596151494
C   C53       1.0  0.88850  0.95340  0.76530  1.0000 -0.1596151494
C   C54       1.0  0.61150  0.37680  0.06490  1.0000 -0.1596151494
C   C55       1.0  0.81190  0.54660  0.43510  1.0000 -0.1596151494
C   C56       1.0  0.68810  0.12320  0.73470  1.0000 -0.1596151494
C   C57       1.0  0.92600  0.53110  0.66890  1.0000 -0.0383274093
C   C58       1.0  0.36220  0.25710  0.83110  1.0000 -0.0383274093
C   C59       1.0  0.57400  0.24290  0.60510  1.0000 -0.0383274093
C   C60       1.0  0.13780  0.96890  0.89490  1.0000 -0.0383274093
C   C61       1.0  0.07400  0.10510  0.74290  1.0000 -0.0383274093
C   C62       1.0  0.63780  0.39490  0.46890  1.0000 -0.0383274093
C   C63       1.0  0.42600  0.16890  0.03110  1.0000 -0.0383274093
C   C64       1.0  0.86220  0.33110  0.75710  1.0000 -0.0383274093
C   C65       1.0  0.99630  0.62200  0.69850  1.0000 0.0473340671
C   C66       1.0  0.42350  0.29780  0.80150  1.0000 0.0473340671
C   C67       1.0  0.50370  0.20220  0.62570  1.0000 0.0473340671
C   C68       1.0  0.07650  0.87800  0.87430  1.0000 0.0473340671
C   C69       1.0  0.00370  0.12570  0.70220  1.0000 0.0473340671
C   C70       1.0  0.57650  0.37430  0.37800  1.0000 0.0473340671
C   C71       1.0  0.49630  0.19850  0.12200  1.0000 0.0473340671
C   C72       1.0  0.92350  0.30150  0.79780  1.0000 0.0473340671
C   C73       1.0  0.00390  0.70090  0.77120  1.0000 0.0088492123
C   C74       1.0  0.42970  0.23270  0.72880  1.0000 0.0088492123
C   C75       1.0  0.49610  0.26730  0.69700  1.0000 0.0088492123
C   C76       1.0  0.07030  0.79910  0.80300  1.0000 0.0088492123
C   C77       1.0  0.99610  0.19700  0.76730  1.0000 0.0088492123
C   C78       1.0  0.57030  0.30300  0.29910  1.0000 0.0088492123
C   C79       1.0  0.50390  0.27120  0.20090  1.0000 0.0088492123
C   C80       1.0  0.92970  0.22880  0.73270  1.0000 0.0088492123
C   C81       1.0  0.94420  0.68400  0.81200  1.0000 0.0473340671
C   C82       1.0  0.37200  0.13220  0.68800  1.0000 0.0473340671
C   C83       1.0  0.55580  0.36780  0.73980  1.0000 0.0473340671
C   C84       1.0  0.12800  0.81600  0.76020  1.0000 0.0473340671
C   C85       1.0  0.05580  0.23980  0.86780  1.0000 0.0473340671
C   C86       1.0  0.62800  0.26020  0.31600  1.0000 0.0473340671
C   C87       1.0  0.44420  0.31200  0.18400  1.0000 0.0473340671
C   C88       1.0  0.87200  0.18800  0.63220  1.0000 0.0473340671
C   C89       1.0  0.87800  0.58950  0.77650  1.0000 -0.0383274093
C   C90       1.0  0.31300  0.10150  0.72350  1.0000 -0.0383274093
C   C91       1.0  0.62200  0.39850  0.71150  1.0000 -0.0383274093
C   C92       1.0  0.18700  0.91050  0.78850  1.0000 -0.0383274093
C   C93       1.0  0.12200  0.21150  0.89850  1.0000 -0.0383274093
C   C94       1.0  0.68700  0.28850  0.41050  1.0000 -0.0383274093
C   C95       1.0  0.37800  0.27650  0.08950  1.0000 -0.0383274093
C   C96       1.0  0.81300  0.22350  0.60150  1.0000 -0.0383274093
C   C97       1.0  0.06020  0.64160  0.66020  1.0000 -0.1700759713
C   C98       1.0  0.48140  0.40000  0.83980  1.0000 -0.1700759713
C   C99       1.0  0.43980  0.10000  0.58140  1.0000 -0.1700759713
C   C100      1.0  0.01860  0.85840  0.91860  1.0000 -0.1700759713
C   C101      1.0  0.93980  0.08140  0.60000  1.0000 -0.1700759713
C   C102      1.0  0.51860  0.41860  0.35840  1.0000 -0.1700759713
C   C103      1.0  0.56020  0.16020  0.14160  1.0000 -0.1700759713
C   C104      1.0  0.98140  0.33980  0.90000  1.0000 -0.1700759713
C   C105      1.0  0.95340  0.76530  0.88850  1.0000 -0.1596151494
C   C106      1.0  0.37680  0.06490  0.61150  1.0000 -0.1596151494
C   C107      1.0  0.54660  0.43510  0.81190  1.0000 -0.1596151494
C   C108      1.0  0.12320  0.73470  0.68810  1.0000 -0.1596151494
C   C109      1.0  0.04660  0.31190  0.93510  1.0000 -0.1596151494
C   C110      1.0  0.62320  0.18810  0.23470  1.0000 -0.1596151494
C   C111      1.0  0.45340  0.38850  0.26530  1.0000 -0.1596151494
C   C112      1.0  0.87680  0.11150  0.56490  1.0000 -0.1596151494
C   C113      1.0  0.53110  0.66890  0.92600  1.0000 -0.0383274093
C   C114      1.0  0.33110  0.75710  0.86220  1.0000 -0.0383274093
C   C115      1.0  0.96890  0.89490  0.13780  1.0000 -0.0383274093
C   C116      1.0  0.24290  0.60510  0.57400  1.0000 -0.0383274093
C   C117      1.0  0.10510  0.74290  0.07400  1.0000 -0.0383274093
C   C118      1.0  0.39490  0.46890  0.63780  1.0000 -0.0383274093
C   C119      1.0  0.25710  0.83110  0.36220  1.0000 -0.0383274093
C   C120      1.0  0.16890  0.03110  0.42600  1.0000 -0.0383274093
C   C121      1.0  0.62200  0.69850  0.99630  1.0000 0.0473340671
C   C122      1.0  0.30150  0.79780  0.92350  1.0000 0.0473340671
C   C123      1.0  0.87800  0.87430  0.07650  1.0000 0.0473340671
C   C124      1.0  0.20220  0.62570  0.50370  1.0000 0.0473340671
C   C125      1.0  0.12570  0.70220  0.00370  1.0000 0.0473340671
C   C126      1.0  0.37430  0.37800  0.57650  1.0000 0.0473340671
C   C127      1.0  0.29780  0.80150  0.42350  1.0000 0.0473340671
C   C128      1.0  0.19850  0.12200  0.49630  1.0000 0.0473340671
C   C129      1.0  0.70090  0.77120  0.00390  1.0000 0.0088492123
C   C130      1.0  0.22880  0.73270  0.92970  1.0000 0.0088492123
C   C131      1.0  0.79910  0.80300  0.07030  1.0000 0.0088492123
C   C132      1.0  0.26730  0.69700  0.49610  1.0000 0.0088492123
C   C133      1.0  0.19700  0.76730  0.99610  1.0000 0.0088492123
C   C134      1.0  0.30300  0.29910  0.57030  1.0000 0.0088492123
C   C135      1.0  0.23270  0.72880  0.42970  1.0000 0.0088492123
C   C136      1.0  0.27120  0.20090  0.50390  1.0000 0.0088492123
C   C137      1.0  0.68400  0.81200  0.94420  1.0000 0.0473340671
C   C138      1.0  0.18800  0.63220  0.87200  1.0000 0.0473340671
C   C139      1.0  0.81600  0.76020  0.12800  1.0000 0.0473340671
C   C140      1.0  0.36780  0.73980  0.55580  1.0000 0.0473340671
C   C141      1.0  0.23980  0.86780  0.05580  1.0000 0.0473340671
C   C142      1.0  0.26020  0.31600  0.62800  1.0000 0.0473340671
C   C143      1.0  0.13220  0.68800  0.37200  1.0000 0.0473340671
C   C144      1.0  0.31200  0.18400  0.44420  1.0000 0.0473340671
C   C145      1.0  0.58950  0.77650  0.87800  1.0000 -0.0383274093
C   C146      1.0  0.22350  0.60150  0.81300  1.0000 -0.0383274093
C   C147      1.0  0.91050  0.78850  0.18700  1.0000 -0.0383274093
C   C148      1.0  0.39850  0.71150  0.62200  1.0000 -0.0383274093
C   C149      1.0  0.21150  0.89850  0.12200  1.0000 -0.0383274093
C   C150      1.0  0.28850  0.41050  0.68700  1.0000 -0.0383274093
C   C151      1.0  0.10150  0.72350  0.31300  1.0000 -0.0383274093
C   C152      1.0  0.27650  0.08950  0.37800  1.0000 -0.0383274093
C   C153      1.0  0.64160  0.66020  0.06020  1.0000 -0.1700759713
C   C154      1.0  0.33980  0.90000  0.98140  1.0000 -0.1700759713
C   C155      1.0  0.85840  0.91860  0.01860  1.0000 -0.1700759713
C   C156      1.0  0.10000  0.58140  0.43980  1.0000 -0.1700759713
C   C157      1.0  0.08140  0.60000  0.93980  1.0000 -0.1700759713
C   C158      1.0  0.41860  0.35840  0.51860  1.0000 -0.1700759713
C   C159      1.0  0.40000  0.83980  0.48140  1.0000 -0.1700759713
C   C160      1.0  0.16020  0.14160  0.56020  1.0000 -0.1700759713
C   C161      1.0  0.76530  0.88850  0.95340  1.0000 -0.1596151494
C   C162      1.0  0.11150  0.56490  0.87680  1.0000 -0.1596151494
C   C163      1.0  0.73470  0.68810  0.12320  1.0000 -0.1596151494
C   C164      1.0  0.43510  0.81190  0.54660  1.0000 -0.1596151494
C   C165      1.0  0.31190  0.93510  0.04660  1.0000 -0.1596151494
C   C166      1.0  0.18810  0.23470  0.62320  1.0000 -0.1596151494
C   C167      1.0  0.06490  0.61150  0.37680  1.0000 -0.1596151494
C   C168      1.0  0.38850  0.26530  0.45340  1.0000 -0.1596151494
N   N1        1.0  0.48750  0.69170  0.35360  1.0000 -0.1976219872
N   N2        1.0  0.83810  0.13390  0.14640  1.0000 -0.1976219872
N   N3        1.0  0.01250  0.36610  0.20420  1.0000 -0.1976219872
N   N4        1.0  0.66190  0.80830  0.29580  1.0000 -0.1976219872
N   N5        1.0  0.70420  0.86610  0.51250  1.0000 -0.1976219872
N   N6        1.0  0.79580  0.30830  0.16190  1.0000 -0.1976219872
N   N7        1.0  0.64640  0.63390  0.33810  1.0000 -0.1976219872
N   N8        1.0  0.85360  0.19170  0.98750  1.0000 -0.1976219872
N   N9        1.0  0.86610  0.51250  0.70420  1.0000 -0.1976219872
N   N10       1.0  0.30830  0.16190  0.79580  1.0000 -0.1976219872
N   N11       1.0  0.63390  0.33810  0.64640  1.0000 -0.1976219872
N   N12       1.0  0.19170  0.98750  0.85360  1.0000 -0.1976219872
N   N13       1.0  0.13390  0.14640  0.83810  1.0000 -0.1976219872
N   N14       1.0  0.69170  0.35360  0.48750  1.0000 -0.1976219872
N   N15       1.0  0.36610  0.20420  0.01250  1.0000 -0.1976219872
N   N16       1.0  0.80830  0.29580  0.66190  1.0000 -0.1976219872
N   N17       1.0  0.51250  0.70420  0.86610  1.0000 -0.1976219872
N   N18       1.0  0.29580  0.66190  0.80830  1.0000 -0.1976219872
N   N19       1.0  0.98750  0.85360  0.19170  1.0000 -0.1976219872
N   N20       1.0  0.33810  0.64640  0.63390  1.0000 -0.1976219872
N   N21       1.0  0.14640  0.83810  0.13390  1.0000 -0.1976219872
N   N22       1.0  0.35360  0.48750  0.69170  1.0000 -0.1976219872
N   N23       1.0  0.16190  0.79580  0.30830  1.0000 -0.1976219872
N   N24       1.0  0.20420  0.01250  0.36610  1.0000 -0.1976219872
