# DDEC6 charges by PACMAN v1.1 (https://github.com/mtap-research/PACMAN-charge/)
data_2004[Cu][pts]3[FSR]1
_chemical_formula_sum              "Cu8 H128 C192 S8 N32"
_cell_length_a       23.1487
_cell_length_b       23.1487
_cell_length_c       23.1487
_cell_angle_alpha    121.783
_cell_angle_beta     121.783
_cell_angle_gamma    86.9384

_symmetry_space_group_name_H-M    "P 1"
_symmetry_Int_Tables_number       1

loop_
  _symmetry_equiv_pos_as_xyz
  'x, y, z'

loop_
  _atom_site_type_symbol
  _atom_site_label
  _atom_site_symmetry_multiplicity
  _atom_site_fract_x
  _atom_site_fract_y
  _atom_site_fract_z
  _atom_site_occupancy
  _atom_site_charge
Cu  Cu1       1.0  0.57392  0.07392  0.14784  1.0000 0.18452952
Cu  Cu2       1.0  0.82392  0.17608  0.00000  1.0000 0.1858525107
Cu  Cu3       1.0  0.17608  0.82392  0.00000  1.0000 0.1858525107
Cu  Cu4       1.0  0.92608  0.42608  0.85216  1.0000 0.1858525107
Cu  Cu5       1.0  0.17608  0.17608  0.35216  1.0000 0.18452952
Cu  Cu6       1.0  0.92608  0.07392  0.50000  1.0000 0.18452952
Cu  Cu7       1.0  0.57392  0.42608  0.50000  1.0000 0.1858525107
Cu  Cu8       1.0  0.82392  0.82392  0.64784  1.0000 0.1858525107
H   H1        1.0  0.69660  0.06360  0.13400  1.0000 0.0950723732
H   H2        1.0  0.81360  0.17960  0.86700  1.0000 0.0950723732
H   H3        1.0  0.31260  0.94660  0.13300  1.0000 0.0950723732
H   H4        1.0  0.43740  0.07040  0.13400  1.0000 0.0950723732
H   H5        1.0  0.92960  0.56260  0.86600  1.0000 0.0950723732
H   H6        1.0  0.82040  0.18640  0.13300  1.0000 0.0950723732
H   H7        1.0  0.05340  0.68740  0.86700  1.0000 0.0950723732
H   H8        1.0  0.93640  0.30340  0.86600  1.0000 0.0950723732
H   H9        1.0  0.05340  0.18640  0.36600  1.0000 0.0950723732
H   H10       1.0  0.93640  0.07040  0.63300  1.0000 0.0950723732
H   H11       1.0  0.43740  0.30340  0.36700  1.0000 0.0950723732
H   H12       1.0  0.31260  0.17960  0.36600  1.0000 0.0950723732
H   H13       1.0  0.82040  0.68740  0.63400  1.0000 0.0950723732
H   H14       1.0  0.92960  0.06360  0.36700  1.0000 0.0950723732
H   H15       1.0  0.69660  0.56260  0.63300  1.0000 0.0950723732
H   H16       1.0  0.81360  0.94660  0.63400  1.0000 0.0950723732
H   H17       1.0  0.72940  0.98810  0.05090  1.0000 0.1219331244
H   H18       1.0  0.73810  0.18720  0.75870  1.0000 0.1219331244
H   H19       1.0  0.42850  0.97940  0.24130  1.0000 0.1219331244
H   H20       1.0  0.32150  0.06280  0.05090  1.0000 0.1219331244
H   H21       1.0  0.93720  0.67850  0.94910  1.0000 0.1219331244
H   H22       1.0  0.81280  0.26190  0.24130  1.0000 0.1219331244
H   H23       1.0  0.02060  0.57150  0.75870  1.0000 0.1219331244
H   H24       1.0  0.01190  0.27060  0.94910  1.0000 0.1219331244
H   H25       1.0  0.02060  0.26190  0.44910  1.0000 0.1219331244
H   H26       1.0  0.01190  0.06280  0.74130  1.0000 0.1219331244
H   H27       1.0  0.32150  0.27060  0.25870  1.0000 0.1219331244
H   H28       1.0  0.42850  0.18720  0.44910  1.0000 0.1219331244
H   H29       1.0  0.81280  0.57150  0.55090  1.0000 0.1219331244
H   H30       1.0  0.93720  0.98810  0.25870  1.0000 0.1219331244
H   H31       1.0  0.72940  0.67850  0.74130  1.0000 0.1219331244
H   H32       1.0  0.73810  0.97940  0.55090  1.0000 0.1219331244
H   H33       1.0  0.53120  0.84850  0.89230  1.0000 0.1252401987
H   H34       1.0  0.59850  0.20620  0.81730  1.0000 0.1252401987
H   H35       1.0  0.38890  0.78120  0.18270  1.0000 0.1252401987
H   H36       1.0  0.36110  0.04380  0.89230  1.0000 0.1252401987
H   H37       1.0  0.95620  0.63890  0.10770  1.0000 0.1252401987
H   H38       1.0  0.79380  0.40150  0.18270  1.0000 0.1252401987
H   H39       1.0  0.21880  0.61110  0.81730  1.0000 0.1252401987
H   H40       1.0  0.15150  0.46880  0.10770  1.0000 0.1252401987
H   H41       1.0  0.21880  0.40150  0.60770  1.0000 0.1252401987
H   H42       1.0  0.15150  0.04380  0.68270  1.0000 0.1252401987
H   H43       1.0  0.36110  0.46880  0.31730  1.0000 0.1252401987
H   H44       1.0  0.38890  0.20620  0.60770  1.0000 0.1252401987
H   H45       1.0  0.79380  0.61110  0.39230  1.0000 0.1252401987
H   H46       1.0  0.95620  0.84850  0.31730  1.0000 0.1252401987
H   H47       1.0  0.53120  0.63890  0.68270  1.0000 0.1252401987
H   H48       1.0  0.59850  0.78120  0.39230  1.0000 0.1252401987
H   H49       1.0  0.50380  0.92920  0.98040  1.0000 0.092057086
H   H50       1.0  0.67920  0.19880  0.92540  1.0000 0.092057086
H   H51       1.0  0.27340  0.75380  0.07460  1.0000 0.092057086
H   H52       1.0  0.47660  0.05120  0.98040  1.0000 0.092057086
H   H53       1.0  0.94880  0.52340  0.01960  1.0000 0.092057086
H   H54       1.0  0.80120  0.32080  0.07460  1.0000 0.092057086
H   H55       1.0  0.24620  0.72660  0.92540  1.0000 0.092057086
H   H56       1.0  0.07080  0.49620  0.01960  1.0000 0.092057086
H   H57       1.0  0.24620  0.32080  0.51960  1.0000 0.092057086
H   H58       1.0  0.07080  0.05120  0.57460  1.0000 0.092057086
H   H59       1.0  0.47660  0.49620  0.42540  1.0000 0.092057086
H   H60       1.0  0.27340  0.19880  0.51960  1.0000 0.092057086
H   H61       1.0  0.80120  0.72660  0.48040  1.0000 0.092057086
H   H62       1.0  0.94880  0.92920  0.42540  1.0000 0.092057086
H   H63       1.0  0.50380  0.52340  0.57460  1.0000 0.092057086
H   H64       1.0  0.67920  0.75380  0.48040  1.0000 0.092057086
H   H65       1.0  0.63350  0.96120  0.84750  1.0000 0.1357032409
H   H66       1.0  0.71120  0.36370  0.82770  1.0000 0.1357032409
H   H67       1.0  0.53600  0.88350  0.17230  1.0000 0.1357032409
H   H68       1.0  0.21400  0.88630  0.84750  1.0000 0.1357032409
H   H69       1.0  0.11370  0.78600  0.15250  1.0000 0.1357032409
H   H70       1.0  0.63630  0.28880  0.17230  1.0000 0.1357032409
H   H71       1.0  0.11650  0.46400  0.82770  1.0000 0.1357032409
H   H72       1.0  0.03880  0.36650  0.15250  1.0000 0.1357032409
H   H73       1.0  0.11650  0.28880  0.65250  1.0000 0.1357032409
H   H74       1.0  0.03880  0.88630  0.67230  1.0000 0.1357032409
H   H75       1.0  0.21400  0.36650  0.32770  1.0000 0.1357032409
H   H76       1.0  0.53600  0.36370  0.65250  1.0000 0.1357032409
H   H77       1.0  0.63630  0.46400  0.34750  1.0000 0.1357032409
H   H78       1.0  0.11370  0.96120  0.32770  1.0000 0.1357032409
H   H79       1.0  0.63350  0.78600  0.67230  1.0000 0.1357032409
H   H80       1.0  0.71120  0.88350  0.34750  1.0000 0.1357032409
H   H81       1.0  0.68740  0.07000  0.88840  1.0000 0.092057086
H   H82       1.0  0.82000  0.43160  0.88260  1.0000 0.092057086
H   H83       1.0  0.54900  0.93740  0.11740  1.0000 0.092057086
H   H84       1.0  0.20100  0.81840  0.88840  1.0000 0.092057086
H   H85       1.0  0.18160  0.79900  0.11160  1.0000 0.092057086
H   H86       1.0  0.56840  0.18000  0.11740  1.0000 0.092057086
H   H87       1.0  0.06260  0.45100  0.88260  1.0000 0.092057086
H   H88       1.0  0.93000  0.31260  0.11160  1.0000 0.092057086
H   H89       1.0  0.06260  0.18000  0.61160  1.0000 0.092057086
H   H90       1.0  0.93000  0.81840  0.61740  1.0000 0.092057086
H   H91       1.0  0.20100  0.31260  0.38260  1.0000 0.092057086
H   H92       1.0  0.54900  0.43160  0.61160  1.0000 0.092057086
H   H93       1.0  0.56840  0.45100  0.38840  1.0000 0.092057086
H   H94       1.0  0.18160  0.07000  0.38260  1.0000 0.092057086
H   H95       1.0  0.68740  0.79900  0.61740  1.0000 0.092057086
H   H96       1.0  0.82000  0.93740  0.38840  1.0000 0.092057086
H   H97       1.0  0.87630  0.06350  0.02740  1.0000 0.092057086
H   H98       1.0  0.81350  0.28610  0.68720  1.0000 0.092057086
H   H99       1.0  0.59890  0.12630  0.31280  1.0000 0.092057086
H   H100      1.0  0.15110  0.96390  0.02740  1.0000 0.092057086
H   H101      1.0  0.03610  0.84890  0.97260  1.0000 0.092057086
H   H102      1.0  0.71390  0.18650  0.31280  1.0000 0.092057086
H   H103      1.0  0.87370  0.40110  0.68720  1.0000 0.092057086
H   H104      1.0  0.93650  0.12370  0.97260  1.0000 0.092057086
H   H105      1.0  0.87370  0.18650  0.47260  1.0000 0.092057086
H   H106      1.0  0.93650  0.96390  0.81280  1.0000 0.092057086
H   H107      1.0  0.15110  0.12370  0.18720  1.0000 0.092057086
H   H108      1.0  0.59890  0.28610  0.47260  1.0000 0.092057086
H   H109      1.0  0.71390  0.40110  0.52740  1.0000 0.092057086
H   H110      1.0  0.03610  0.06350  0.18720  1.0000 0.092057086
H   H111      1.0  0.87630  0.84890  0.81280  1.0000 0.092057086
H   H112      1.0  0.81350  0.12630  0.52740  1.0000 0.092057086
H   H113      1.0  0.82730  0.95480  0.99150  1.0000 0.1219331244
H   H114      1.0  0.70480  0.21330  0.62750  1.0000 0.1219331244
H   H115      1.0  0.58580  0.07730  0.37250  1.0000 0.1219331244
H   H116      1.0  0.16420  0.03670  0.99150  1.0000 0.1219331244
H   H117      1.0  0.96330  0.83580  0.00850  1.0000 0.1219331244
H   H118      1.0  0.78670  0.29520  0.37250  1.0000 0.1219331244
H   H119      1.0  0.92270  0.41420  0.62750  1.0000 0.1219331244
H   H120      1.0  0.04520  0.17270  0.00850  1.0000 0.1219331244
H   H121      1.0  0.92270  0.29520  0.50850  1.0000 0.1219331244
H   H122      1.0  0.04520  0.03670  0.87250  1.0000 0.1219331244
H   H123      1.0  0.16420  0.17270  0.12750  1.0000 0.1219331244
H   H124      1.0  0.58580  0.21330  0.50850  1.0000 0.1219331244
H   H125      1.0  0.78670  0.41420  0.49150  1.0000 0.1219331244
H   H126      1.0  0.96330  0.95480  0.12750  1.0000 0.1219331244
H   H127      1.0  0.82730  0.83580  0.87250  1.0000 0.1219331244
H   H128      1.0  0.70480  0.07730  0.49150  1.0000 0.1219331244
C   C1        1.0  0.66245  0.01875  0.08410  1.0000 0.0424619566
C   C2        1.0  0.76875  0.18465  0.85630  1.0000 0.0424619566
C   C3        1.0  0.32835  0.91245  0.14370  1.0000 0.0424619566
C   C4        1.0  0.42165  0.06535  0.08410  1.0000 0.0424619566
C   C5        1.0  0.93465  0.57835  0.91590  1.0000 0.0424619566
C   C6        1.0  0.81535  0.23125  0.14370  1.0000 0.0424619566
C   C7        1.0  0.08755  0.67165  0.85630  1.0000 0.0424619566
C   C8        1.0  0.98125  0.33755  0.91590  1.0000 0.0424619566
C   C9        1.0  0.08755  0.23125  0.41590  1.0000 0.0424619566
C   C10       1.0  0.98125  0.06535  0.64370  1.0000 0.0424619566
C   C11       1.0  0.42165  0.33755  0.35630  1.0000 0.0424619566
C   C12       1.0  0.32835  0.18465  0.41590  1.0000 0.0424619566
C   C13       1.0  0.81535  0.67165  0.58410  1.0000 0.0424619566
C   C14       1.0  0.93465  0.01875  0.35630  1.0000 0.0424619566
C   C15       1.0  0.66245  0.57835  0.64370  1.0000 0.0424619566
C   C16       1.0  0.76875  0.91245  0.58410  1.0000 0.0424619566
C   C17       1.0  0.68243  0.97443  0.03460  1.0000 -0.2007023474
C   C18       1.0  0.72443  0.18983  0.79200  1.0000 -0.2007023474
C   C19       1.0  0.39783  0.93243  0.20800  1.0000 -0.2007023474
C   C20       1.0  0.35217  0.06017  0.03460  1.0000 -0.2007023474
C   C21       1.0  0.93983  0.64783  0.96540  1.0000 -0.2007023474
C   C22       1.0  0.81017  0.27557  0.20800  1.0000 -0.2007023474
C   C23       1.0  0.06757  0.60217  0.79200  1.0000 -0.2007023474
C   C24       1.0  0.02557  0.31757  0.96540  1.0000 -0.2007023474
C   C25       1.0  0.06757  0.27557  0.46540  1.0000 -0.2007023474
C   C26       1.0  0.02557  0.06017  0.70800  1.0000 -0.2007023474
C   C27       1.0  0.35217  0.31757  0.29200  1.0000 -0.2007023474
C   C28       1.0  0.39783  0.18983  0.46540  1.0000 -0.2007023474
C   C29       1.0  0.81017  0.60217  0.53460  1.0000 -0.2007023474
C   C30       1.0  0.93983  0.97443  0.29200  1.0000 -0.2007023474
C   C31       1.0  0.68243  0.64783  0.70800  1.0000 -0.2007023474
C   C32       1.0  0.72443  0.93243  0.53460  1.0000 -0.2007023474
C   C33       1.0  0.63310  0.90880  0.95970  1.0000 0.1219331244
C   C34       1.0  0.65880  0.19910  0.77570  1.0000 0.1219331244
C   C35       1.0  0.42340  0.88310  0.22430  1.0000 0.1219331244
C   C36       1.0  0.32660  0.05090  0.95970  1.0000 0.1219331244
C   C37       1.0  0.94910  0.67340  0.04030  1.0000 0.1219331244
C   C38       1.0  0.80090  0.34120  0.22430  1.0000 0.1219331244
C   C39       1.0  0.11690  0.57660  0.77570  1.0000 0.1219331244
C   C40       1.0  0.09120  0.36690  0.04030  1.0000 0.1219331244
C   C41       1.0  0.11690  0.34120  0.54030  1.0000 0.1219331244
C   C42       1.0  0.09120  0.05090  0.72430  1.0000 0.1219331244
C   C43       1.0  0.32660  0.36690  0.27570  1.0000 0.1219331244
C   C44       1.0  0.42340  0.19910  0.54030  1.0000 0.1219331244
C   C45       1.0  0.80090  0.57660  0.45970  1.0000 0.1219331244
C   C46       1.0  0.94910  0.90880  0.27570  1.0000 0.1219331244
C   C47       1.0  0.63310  0.67340  0.72430  1.0000 0.1219331244
C   C48       1.0  0.65880  0.88310  0.45970  1.0000 0.1219331244
C   C49       1.0  0.56629  0.89299  0.94190  1.0000 -0.2007023474
C   C50       1.0  0.64299  0.20109  0.82670  1.0000 -0.2007023474
C   C51       1.0  0.37439  0.81629  0.17330  1.0000 -0.2007023474
C   C52       1.0  0.37561  0.04891  0.94190  1.0000 -0.2007023474
C   C53       1.0  0.95109  0.62439  0.05810  1.0000 -0.2007023474
C   C54       1.0  0.79891  0.35701  0.17330  1.0000 -0.2007023474
C   C55       1.0  0.18371  0.62561  0.82670  1.0000 -0.2007023474
C   C56       1.0  0.10701  0.43371  0.05810  1.0000 -0.2007023474
C   C57       1.0  0.18371  0.35701  0.55810  1.0000 -0.2007023474
C   C58       1.0  0.10701  0.04891  0.67330  1.0000 -0.2007023474
C   C59       1.0  0.37561  0.43371  0.32670  1.0000 -0.2007023474
C   C60       1.0  0.37439  0.20109  0.55810  1.0000 -0.2007023474
C   C61       1.0  0.79891  0.62561  0.44190  1.0000 -0.2007023474
C   C62       1.0  0.95109  0.89299  0.32670  1.0000 -0.2007023474
C   C63       1.0  0.56629  0.62439  0.67330  1.0000 -0.2007023474
C   C64       1.0  0.64299  0.81629  0.44190  1.0000 -0.2007023474
C   C65       1.0  0.55052  0.94094  0.99522  1.0000 0.0289949849
C   C66       1.0  0.69094  0.19572  0.89042  1.0000 0.0289949849
C   C67       1.0  0.30530  0.80052  0.10958  1.0000 0.0289949849
C   C68       1.0  0.44470  0.05428  0.99522  1.0000 0.0289949849
C   C69       1.0  0.94572  0.55530  0.00478  1.0000 0.0289949849
C   C70       1.0  0.80428  0.30906  0.10958  1.0000 0.0289949849
C   C71       1.0  0.19948  0.69470  0.89042  1.0000 0.0289949849
C   C72       1.0  0.05906  0.44948  0.00478  1.0000 0.0289949849
C   C73       1.0  0.19948  0.30906  0.50478  1.0000 0.0289949849
C   C74       1.0  0.05906  0.05428  0.60958  1.0000 0.0289949849
C   C75       1.0  0.44470  0.44948  0.39042  1.0000 0.0289949849
C   C76       1.0  0.30530  0.19572  0.50478  1.0000 0.0289949849
C   C77       1.0  0.80428  0.69470  0.49522  1.0000 0.0289949849
C   C78       1.0  0.94572  0.94094  0.39042  1.0000 0.0289949849
C   C79       1.0  0.55052  0.55530  0.60958  1.0000 0.0289949849
C   C80       1.0  0.69094  0.80052  0.49522  1.0000 0.0289949849
C   C81       1.0  0.64930  0.85850  0.90120  1.0000 -0.0748823961
C   C82       1.0  0.60850  0.20730  0.70920  1.0000 -0.0748823961
C   C83       1.0  0.49810  0.89930  0.29080  1.0000 -0.0748823961
C   C84       1.0  0.25190  0.04270  0.90120  1.0000 -0.0753500169
C   C85       1.0  0.95730  0.74810  0.09880  1.0000 -0.0748823961
C   C86       1.0  0.79270  0.39150  0.29080  1.0000 -0.0748823961
C   C87       1.0  0.10070  0.50190  0.70920  1.0000 -0.0748823961
C   C88       1.0  0.14150  0.35070  0.09880  1.0000 -0.0753500169
C   C89       1.0  0.10070  0.39150  0.59880  1.0000 -0.0753500169
C   C90       1.0  0.14150  0.04270  0.79080  1.0000 -0.0753500169
C   C91       1.0  0.25190  0.35070  0.20920  1.0000 -0.0753500169
C   C92       1.0  0.49810  0.20730  0.59880  1.0000 -0.0753500169
C   C93       1.0  0.79270  0.50190  0.40120  1.0000 -0.0748823961
C   C94       1.0  0.95730  0.85850  0.20920  1.0000 -0.0748823961
C   C95       1.0  0.64930  0.74810  0.79080  1.0000 -0.0748823961
C   C96       1.0  0.60850  0.89930  0.40120  1.0000 -0.0748823961
C   C97       1.0  0.69117  0.87274  0.88257  1.0000 -0.0339785208
C   C98       1.0  0.62274  0.24017  0.68157  1.0000 -0.0339785208
C   C99       1.0  0.55860  0.94117  0.31843  1.0000 -0.0339785208
C   C100      1.0  0.19140  0.00983  0.88257  1.0000 -0.0339785208
C   C101      1.0  0.99017  0.80860  0.11743  1.0000 -0.0339785208
C   C102      1.0  0.75983  0.37726  0.31843  1.0000 -0.0339785208
C   C103      1.0  0.05883  0.44140  0.68157  1.0000 -0.0339785208
C   C104      1.0  0.12726  0.30883  0.11743  1.0000 -0.0339785208
C   C105      1.0  0.05883  0.37726  0.61743  1.0000 -0.0339785208
C   C106      1.0  0.12726  0.00983  0.81843  1.0000 -0.0339785208
C   C107      1.0  0.19140  0.30883  0.18157  1.0000 -0.0339785208
C   C108      1.0  0.55860  0.24017  0.61743  1.0000 -0.0339785208
C   C109      1.0  0.75983  0.44140  0.38257  1.0000 -0.0339785208
C   C110      1.0  0.99017  0.87274  0.18157  1.0000 -0.0339785208
C   C111      1.0  0.69117  0.80860  0.81843  1.0000 -0.0339785208
C   C112      1.0  0.62274  0.94117  0.38257  1.0000 -0.0339785208
C   C113      1.0  0.72463  0.94513  0.91350  1.0000 0.1099003268
C   C114      1.0  0.69513  0.28163  0.72050  1.0000 0.1099003268
C   C115      1.0  0.56113  0.97463  0.27950  1.0000 0.1099003268
C   C116      1.0  0.18887  0.96837  0.91350  1.0000 0.1099003268
C   C117      1.0  0.03163  0.81113  0.08650  1.0000 0.1099003268
C   C118      1.0  0.71837  0.30487  0.27950  1.0000 0.1099003268
C   C119      1.0  0.02537  0.43887  0.72050  1.0000 0.1099003268
C   C120      1.0  0.05487  0.27537  0.08650  1.0000 0.1099003268
C   C121      1.0  0.02537  0.30487  0.58650  1.0000 0.1099003268
C   C122      1.0  0.05487  0.96837  0.77950  1.0000 0.1099003268
C   C123      1.0  0.18887  0.27537  0.22050  1.0000 0.1099003268
C   C124      1.0  0.56113  0.28163  0.58650  1.0000 0.1099003268
C   C125      1.0  0.71837  0.43887  0.41350  1.0000 0.1099003268
C   C126      1.0  0.03163  0.94513  0.22050  1.0000 0.1099003268
C   C127      1.0  0.72463  0.81113  0.77950  1.0000 0.1099003268
C   C128      1.0  0.69513  0.97463  0.41350  1.0000 0.1099003268
C   C129      1.0  0.68407  0.98097  0.88490  1.0000 -0.2007023474
C   C130      1.0  0.73097  0.34607  0.79690  1.0000 -0.2007023474
C   C131      1.0  0.54917  0.93407  0.20310  1.0000 -0.2007023474
C   C132      1.0  0.20083  0.90393  0.88490  1.0000 -0.2007023474
C   C133      1.0  0.09607  0.79917  0.11510  1.0000 -0.2007023474
C   C134      1.0  0.65393  0.26903  0.20310  1.0000 -0.2007023474
C   C135      1.0  0.06593  0.45083  0.79690  1.0000 -0.2007023474
C   C136      1.0  0.01903  0.31593  0.11510  1.0000 -0.2007023474
C   C137      1.0  0.06593  0.26903  0.61510  1.0000 -0.2007023474
C   C138      1.0  0.01903  0.90393  0.70310  1.0000 -0.2007023474
C   C139      1.0  0.20083  0.31593  0.29690  1.0000 -0.2007023474
C   C140      1.0  0.54917  0.34607  0.61510  1.0000 -0.2007023474
C   C141      1.0  0.65393  0.45083  0.38490  1.0000 -0.2007023474
C   C142      1.0  0.09607  0.98097  0.29690  1.0000 -0.2007023474
C   C143      1.0  0.68407  0.79917  0.70310  1.0000 -0.2007023474
C   C144      1.0  0.73097  0.93407  0.38490  1.0000 -0.2007023474
C   C145      1.0  0.71691  0.04681  0.91070  1.0000 0.0579732684
C   C146      1.0  0.79681  0.38611  0.82990  1.0000 0.0579732684
C   C147      1.0  0.55621  0.96691  0.17010  1.0000 0.0579732684
C   C148      1.0  0.19379  0.86389  0.91070  1.0000 0.0579732684
C   C149      1.0  0.13611  0.80621  0.08930  1.0000 0.0579732684
C   C150      1.0  0.61389  0.20319  0.17010  1.0000 0.0579732684
C   C151      1.0  0.03309  0.44379  0.82990  1.0000 0.0579732684
C   C152      1.0  0.95319  0.28309  0.08930  1.0000 0.0579732684
C   C153      1.0  0.03309  0.20319  0.58930  1.0000 0.0579732684
C   C154      1.0  0.95319  0.86389  0.67010  1.0000 0.0579732684
C   C155      1.0  0.19379  0.28309  0.32990  1.0000 0.0579732684
C   C156      1.0  0.55621  0.38611  0.58930  1.0000 0.0579732684
C   C157      1.0  0.61389  0.44379  0.41070  1.0000 0.0579732684
C   C158      1.0  0.13611  0.04681  0.32990  1.0000 0.0579732684
C   C159      1.0  0.71691  0.80621  0.67010  1.0000 0.0579732684
C   C160      1.0  0.79681  0.96691  0.41070  1.0000 0.0579732684
C   C161      1.0  0.82587  0.04307  0.99100  1.0000 0.0204006175
C   C162      1.0  0.79307  0.30207  0.71720  1.0000 0.0204006175
C   C163      1.0  0.58487  0.07587  0.28280  1.0000 0.0204006175
C   C164      1.0  0.16513  0.94793  0.99100  1.0000 0.0204006175
C   C165      1.0  0.05207  0.83487  0.00900  1.0000 0.0204006175
C   C166      1.0  0.69793  0.20693  0.28280  1.0000 0.0204006175
C   C167      1.0  0.92413  0.41513  0.71720  1.0000 0.0204006175
C   C168      1.0  0.95693  0.17413  0.00900  1.0000 0.0204006175
C   C169      1.0  0.92413  0.20693  0.50900  1.0000 0.0204006175
C   C170      1.0  0.95693  0.94793  0.78280  1.0000 0.0204006175
C   C171      1.0  0.16513  0.17413  0.21720  1.0000 0.0204006175
C   C172      1.0  0.58487  0.30207  0.50900  1.0000 0.0204006175
C   C173      1.0  0.69793  0.41513  0.49100  1.0000 0.0204006175
C   C174      1.0  0.05207  0.04307  0.21720  1.0000 0.0204006175
C   C175      1.0  0.82587  0.83487  0.78280  1.0000 0.0204006175
C   C176      1.0  0.79307  0.07587  0.49100  1.0000 0.0204006175
C   C177      1.0  0.79685  0.97715  0.96850  1.0000 -0.2163800994
C   C178      1.0  0.72715  0.25865  0.68030  1.0000 -0.2163800994
C   C179      1.0  0.57835  0.04685  0.31970  1.0000 -0.2163800994
C   C180      1.0  0.17165  0.99135  0.96850  1.0000 -0.2163800994
C   C181      1.0  0.00865  0.82835  0.03150  1.0000 -0.2163800994
C   C182      1.0  0.74135  0.27285  0.31970  1.0000 -0.2163800994
C   C183      1.0  0.95315  0.42165  0.68030  1.0000 -0.2163800994
C   C184      1.0  0.02285  0.20315  0.03150  1.0000 -0.2163800994
C   C185      1.0  0.95315  0.27285  0.53150  1.0000 -0.2163800994
C   C186      1.0  0.02285  0.99135  0.81970  1.0000 -0.2163800994
C   C187      1.0  0.17165  0.20315  0.18030  1.0000 -0.2163800994
C   C188      1.0  0.57835  0.25865  0.53150  1.0000 -0.2163800994
C   C189      1.0  0.74135  0.42165  0.46850  1.0000 -0.2163800994
C   C190      1.0  0.00865  0.97715  0.18030  1.0000 -0.2163800994
C   C191      1.0  0.79685  0.82835  0.81970  1.0000 -0.2163800994
C   C192      1.0  0.72715  0.04685  0.46850  1.0000 -0.2163800994
S   S1        1.0  0.61096  0.76775  0.84321  1.0000 0.0204006175
S   S2        1.0  0.51775  0.17454  0.65679  1.0000 0.0204006175
S   S3        1.0  0.51775  0.86096  0.34321  1.0000 0.0204006175
S   S4        1.0  0.23225  0.07546  0.84321  1.0000 0.0204006175
S   S5        1.0  0.92454  0.76775  0.15679  1.0000 0.0204006175
S   S6        1.0  0.82546  0.48225  0.34321  1.0000 0.0204006175
S   S7        1.0  0.13904  0.48225  0.65679  1.0000 0.0204006175
S   S8        1.0  0.23225  0.38904  0.15679  1.0000 0.0204006175
N   N1        1.0  0.59878  0.00431  0.06823  1.0000 -0.2256120951
N   N2        1.0  0.75431  0.18608  0.90553  1.0000 -0.2256120951
N   N3        1.0  0.28055  0.84878  0.09447  1.0000 -0.2256120951
N   N4        1.0  0.46945  0.06392  0.06823  1.0000 -0.2256120951
N   N5        1.0  0.93608  0.53055  0.93177  1.0000 -0.2256120951
N   N6        1.0  0.81392  0.24569  0.09447  1.0000 -0.2256120951
N   N7        1.0  0.15122  0.71945  0.90553  1.0000 -0.2256120951
N   N8        1.0  0.99569  0.40122  0.93177  1.0000 -0.2256120951
N   N9        1.0  0.15122  0.24569  0.43177  1.0000 -0.2256120951
N   N10       1.0  0.99569  0.06392  0.59447  1.0000 -0.2256120951
N   N11       1.0  0.46945  0.40122  0.40553  1.0000 -0.2256120951
N   N12       1.0  0.28055  0.18608  0.43177  1.0000 -0.2256120951
N   N13       1.0  0.81392  0.71945  0.56823  1.0000 -0.2256120951
N   N14       1.0  0.93608  0.00431  0.40553  1.0000 -0.2256120951
N   N15       1.0  0.59878  0.53055  0.59447  1.0000 -0.2256120951
N   N16       1.0  0.75431  0.84878  0.56823  1.0000 -0.2256120951
N   N17       1.0  0.78598  0.07844  0.96360  1.0000 -0.2074605902
N   N18       1.0  0.82844  0.36484  0.79246  1.0000 -0.2074605902
N   N19       1.0  0.57238  0.03598  0.20754  1.0000 -0.2074605902
N   N20       1.0  0.17762  0.88516  0.96360  1.0000 -0.2074605902
N   N21       1.0  0.11484  0.82238  0.03640  1.0000 -0.2074605902
N   N22       1.0  0.63516  0.17156  0.20754  1.0000 -0.2074605902
N   N23       1.0  0.96402  0.42762  0.79246  1.0000 -0.2074605902
N   N24       1.0  0.92156  0.21402  0.03640  1.0000 -0.2074605902
N   N25       1.0  0.96402  0.17156  0.53640  1.0000 -0.2074605902
N   N26       1.0  0.92156  0.88516  0.70754  1.0000 -0.2074605902
N   N27       1.0  0.17762  0.21402  0.29246  1.0000 -0.2074605902
N   N28       1.0  0.57238  0.36484  0.53640  1.0000 -0.2074605902
N   N29       1.0  0.63516  0.42762  0.46360  1.0000 -0.2074605902
N   N30       1.0  0.11484  0.07844  0.29246  1.0000 -0.2074605902
N   N31       1.0  0.78598  0.82238  0.70754  1.0000 -0.2074605902
N   N32       1.0  0.82844  0.03598  0.46360  1.0000 -0.2074605902
