# DDEC6 charges by PACMAN v1.1 (https://github.com/mtap-research/PACMAN-charge/)
data_2004[Zn][ths]3[FSR]1
_chemical_formula_sum              "Zn12 H96 C144 I24 N48"
_cell_length_a       18.6528
_cell_length_b       18.6528
_cell_length_c       30.2397
_cell_angle_alpha    79.8451
_cell_angle_beta     100.155
_cell_angle_gamma    132.244

_symmetry_space_group_name_H-M    "P 1"
_symmetry_Int_Tables_number       1

loop_
  _symmetry_equiv_pos_as_xyz
  'x, y, z'

loop_
  _atom_site_type_symbol
  _atom_site_label
  _atom_site_symmetry_multiplicity
  _atom_site_fract_x
  _atom_site_fract_y
  _atom_site_fract_z
  _atom_site_occupancy
  _atom_site_charge
Zn  Zn1       1.0  0.73093  0.47033  0.05200  1.0000 0.4581122961
Zn  Zn2       1.0  0.52967  0.26907  0.55200  1.0000 0.4581122961
Zn  Zn3       1.0  0.80177  0.95265  0.90052  1.0000 0.4581122961
Zn  Zn4       1.0  0.04735  0.19823  0.40052  1.0000 0.4581122961
Zn  Zn5       1.0  0.17632  0.53578  0.21808  1.0000 0.4446151558
Zn  Zn6       1.0  0.46422  0.82368  0.71808  1.0000 0.4456862811
Zn  Zn7       1.0  0.47033  0.73093  0.44800  1.0000 0.4581122961
Zn  Zn8       1.0  0.26907  0.52967  0.94800  1.0000 0.4581122961
Zn  Zn9       1.0  0.95265  0.80177  0.59948  1.0000 0.4581122961
Zn  Zn10      1.0  0.19823  0.04735  0.09948  1.0000 0.4581122961
Zn  Zn11      1.0  0.53578  0.17632  0.28192  1.0000 0.4446151558
Zn  Zn12      1.0  0.82368  0.46422  0.78192  1.0000 0.4456862811
H   H1        1.0  0.00920  0.02920  0.92630  1.0000 0.1084633692
H   H2        1.0  0.97080  0.99080  0.42630  1.0000 0.1084633692
H   H3        1.0  0.14800  0.14860  0.96890  1.0000 0.1382390045
H   H4        1.0  0.85140  0.85200  0.46890  1.0000 0.1382390045
H   H5        1.0  0.98190  0.16970  0.02610  1.0000 0.1382390045
H   H6        1.0  0.83030  0.01810  0.52610  1.0000 0.1382390045
H   H7        1.0  0.84940  0.05300  0.98000  1.0000 0.1084633692
H   H8        1.0  0.94700  0.15060  0.48000  1.0000 0.1084633692
H   H9        1.0  0.48020  0.44720  0.10840  1.0000 0.1382390045
H   H10       1.0  0.55280  0.51980  0.60840  1.0000 0.1382390045
H   H11       1.0  0.08790  0.36030  0.08230  1.0000 0.1317331906
H   H12       1.0  0.63970  0.91210  0.58230  1.0000 0.1317331906
H   H13       1.0  0.07590  0.43630  0.13130  1.0000 0.1084633692
H   H14       1.0  0.56370  0.92410  0.63130  1.0000 0.1084633692
H   H15       1.0  0.33630  0.45190  0.15380  1.0000 0.1382390045
H   H16       1.0  0.54810  0.66370  0.65380  1.0000 0.1382390045
H   H17       1.0  0.98760  0.29760  0.33790  1.0000 0.1084633692
H   H18       1.0  0.70240  0.01240  0.83790  1.0000 0.1084633692
H   H19       1.0  0.87320  0.26560  0.28030  1.0000 0.1317331906
H   H20       1.0  0.73440  0.12680  0.78030  1.0000 0.1317331906
H   H21       1.0  0.72710  0.97910  0.31080  1.0000 0.1317331906
H   H22       1.0  0.02090  0.27290  0.81080  1.0000 0.1317331906
H   H23       1.0  0.84680  0.02140  0.36720  1.0000 0.1014693513
H   H24       1.0  0.97860  0.15320  0.86720  1.0000 0.1014693513
H   H25       1.0  0.79530  0.32710  0.19300  1.0000 0.1317331906
H   H26       1.0  0.67290  0.20470  0.69300  1.0000 0.1317331906
H   H27       1.0  0.81970  0.44750  0.14100  1.0000 0.1014693513
H   H28       1.0  0.55250  0.18030  0.64100  1.0000 0.1014693513
H   H29       1.0  0.57460  0.25500  0.07080  1.0000 0.1084633692
H   H30       1.0  0.74500  0.42540  0.57080  1.0000 0.1084633692
H   H31       1.0  0.54300  0.12960  0.12080  1.0000 0.1382390045
H   H32       1.0  0.87040  0.45700  0.62080  1.0000 0.1382390045
H   H33       1.0  0.39660  0.89260  0.16540  1.0000 0.1382390045
H   H34       1.0  0.10740  0.60340  0.66540  1.0000 0.1382390045
H   H35       1.0  0.25680  0.72960  0.16430  1.0000 0.1084633692
H   H36       1.0  0.27040  0.74320  0.66430  1.0000 0.1084633692
H   H37       1.0  0.37490  0.66070  0.26290  1.0000 0.1084633692
H   H38       1.0  0.33930  0.62510  0.76290  1.0000 0.1084633692
H   H39       1.0  0.51910  0.81910  0.26450  1.0000 0.1382390045
H   H40       1.0  0.18090  0.48090  0.76450  1.0000 0.1382390045
H   H41       1.0  0.54800  0.38560  0.98600  1.0000 0.1084633692
H   H42       1.0  0.61440  0.45200  0.48600  1.0000 0.1084633692
H   H43       1.0  0.39470  0.33490  0.98880  1.0000 0.1382390045
H   H44       1.0  0.66510  0.60530  0.48880  1.0000 0.1382390045
H   H45       1.0  0.62840  0.48740  0.10610  1.0000 0.1084633692
H   H46       1.0  0.51260  0.37160  0.60610  1.0000 0.1084633692
H   H47       1.0  0.31310  0.51650  0.20270  1.0000 0.1014693513
H   H48       1.0  0.48350  0.68690  0.70270  1.0000 0.1014693513
H   H49       1.0  0.02920  0.00920  0.57370  1.0000 0.1084633692
H   H50       1.0  0.99080  0.97080  0.07370  1.0000 0.1084633692
H   H51       1.0  0.14860  0.14800  0.53110  1.0000 0.1382390045
H   H52       1.0  0.85200  0.85140  0.03110  1.0000 0.1382390045
H   H53       1.0  0.16970  0.98190  0.47390  1.0000 0.1382390045
H   H54       1.0  0.01810  0.83030  0.97390  1.0000 0.1382390045
H   H55       1.0  0.05300  0.84940  0.52000  1.0000 0.1084633692
H   H56       1.0  0.15060  0.94700  0.02000  1.0000 0.1084633692
H   H57       1.0  0.44720  0.48020  0.39160  1.0000 0.1382390045
H   H58       1.0  0.51980  0.55280  0.89160  1.0000 0.1382390045
H   H59       1.0  0.36030  0.08790  0.41770  1.0000 0.1317331906
H   H60       1.0  0.91210  0.63970  0.91770  1.0000 0.1317331906
H   H61       1.0  0.43630  0.07590  0.36870  1.0000 0.1084633692
H   H62       1.0  0.92410  0.56370  0.86870  1.0000 0.1084633692
H   H63       1.0  0.45190  0.33630  0.34620  1.0000 0.1382390045
H   H64       1.0  0.66370  0.54810  0.84620  1.0000 0.1382390045
H   H65       1.0  0.29760  0.98760  0.16210  1.0000 0.1084633692
H   H66       1.0  0.01240  0.70240  0.66210  1.0000 0.1084633692
H   H67       1.0  0.26560  0.87320  0.21970  1.0000 0.1317331906
H   H68       1.0  0.12680  0.73440  0.71970  1.0000 0.1317331906
H   H69       1.0  0.97910  0.72710  0.18920  1.0000 0.1317331906
H   H70       1.0  0.27290  0.02090  0.68920  1.0000 0.1317331906
H   H71       1.0  0.02140  0.84680  0.13280  1.0000 0.1014693513
H   H72       1.0  0.15320  0.97860  0.63280  1.0000 0.1014693513
H   H73       1.0  0.32710  0.79530  0.30700  1.0000 0.1317331906
H   H74       1.0  0.20470  0.67290  0.80700  1.0000 0.1317331906
H   H75       1.0  0.44750  0.81970  0.35900  1.0000 0.1014693513
H   H76       1.0  0.18030  0.55250  0.85900  1.0000 0.1014693513
H   H77       1.0  0.25500  0.57460  0.42920  1.0000 0.1084633692
H   H78       1.0  0.42540  0.74500  0.92920  1.0000 0.1084633692
H   H79       1.0  0.12960  0.54300  0.37920  1.0000 0.1382390045
H   H80       1.0  0.45700  0.87040  0.87920  1.0000 0.1382390045
H   H81       1.0  0.89260  0.39660  0.33460  1.0000 0.1382390045
H   H82       1.0  0.60340  0.10740  0.83460  1.0000 0.1382390045
H   H83       1.0  0.72960  0.25680  0.33570  1.0000 0.1084633692
H   H84       1.0  0.74320  0.27040  0.83570  1.0000 0.1084633692
H   H85       1.0  0.66070  0.37490  0.23710  1.0000 0.1084633692
H   H86       1.0  0.62510  0.33930  0.73710  1.0000 0.1084633692
H   H87       1.0  0.81910  0.51910  0.23550  1.0000 0.1382390045
H   H88       1.0  0.48090  0.18090  0.73550  1.0000 0.1382390045
H   H89       1.0  0.38560  0.54800  0.51400  1.0000 0.1084633692
H   H90       1.0  0.45200  0.61440  0.01400  1.0000 0.1084633692
H   H91       1.0  0.33490  0.39470  0.51120  1.0000 0.1382390045
H   H92       1.0  0.60530  0.66510  0.01120  1.0000 0.1382390045
H   H93       1.0  0.48740  0.62840  0.39390  1.0000 0.1084633692
H   H94       1.0  0.37160  0.51260  0.89390  1.0000 0.1084633692
H   H95       1.0  0.51650  0.31310  0.29730  1.0000 0.1014693513
H   H96       1.0  0.68690  0.48350  0.79730  1.0000 0.1014693513
C   C1        1.0  0.00490  0.06030  0.94610  1.0000 0.0520127358
C   C2        1.0  0.93970  0.99510  0.44610  1.0000 0.0520127358
C   C3        1.0  0.08740  0.13040  0.97130  1.0000 -0.1484035595
C   C4        1.0  0.86960  0.91260  0.47130  1.0000 -0.1484035595
C   C5        1.0  0.07860  0.17420  0.00080  1.0000 0.059018281
C   C6        1.0  0.82580  0.92140  0.50080  1.0000 0.059018281
C   C7        1.0  0.98960  0.14360  0.00500  1.0000 -0.1401253902
C   C8        1.0  0.85640  0.01040  0.50500  1.0000 -0.1401253902
C   C9        1.0  0.91100  0.07340  0.97760  1.0000 0.0868496004
C   C10       1.0  0.92660  0.08900  0.47760  1.0000 0.0868496004
C   C11       1.0  0.16570  0.25390  0.02840  1.0000 0.3762713589
C   C12       1.0  0.74610  0.83430  0.52840  1.0000 0.3762713589
C   C13       1.0  0.32510  0.35090  0.05040  1.0000 0.3695627735
C   C14       1.0  0.64910  0.67490  0.55040  1.0000 0.3695627735
C   C15       1.0  0.22780  0.35720  0.08120  1.0000 0.3695627735
C   C16       1.0  0.64280  0.77220  0.58120  1.0000 0.3695627735
C   C17       1.0  0.42260  0.38580  0.04720  1.0000 0.0520127358
C   C18       1.0  0.61420  0.57740  0.54720  1.0000 0.0520127358
C   C19       1.0  0.49250  0.43290  0.08360  1.0000 -0.1401253902
C   C20       1.0  0.56710  0.50750  0.58360  1.0000 -0.1401253902
C   C21       1.0  0.21640  0.39920  0.11310  1.0000 0.059018281
C   C22       1.0  0.60080  0.78360  0.61310  1.0000 0.059018281
C   C23       1.0  0.13600  0.39340  0.10640  1.0000 -0.1192977872
C   C24       1.0  0.60660  0.86400  0.60640  1.0000 -0.1192977872
C   C25       1.0  0.12850  0.43770  0.13610  1.0000 0.0868496004
C   C26       1.0  0.56230  0.87150  0.63610  1.0000 0.0868496004
C   C27       1.0  0.28080  0.44600  0.14850  1.0000 -0.1401253902
C   C28       1.0  0.55400  0.71920  0.64850  1.0000 -0.1401253902
C   C29       1.0  0.93460  0.23200  0.33140  1.0000 0.0715724029
C   C30       1.0  0.76800  0.06540  0.83140  1.0000 0.0715724029
C   C31       1.0  0.86660  0.21380  0.29740  1.0000 -0.1484035595
C   C32       1.0  0.78620  0.13340  0.79740  1.0000 -0.1484035595
C   C33       1.0  0.78620  0.11640  0.28820  1.0000 0.0520127358
C   C34       1.0  0.88360  0.21380  0.78820  1.0000 0.0520127358
C   C35       1.0  0.78070  0.04570  0.31510  1.0000 -0.1401253902
C   C36       1.0  0.95430  0.21930  0.81510  1.0000 -0.1401253902
C   C37       1.0  0.85320  0.07180  0.34850  1.0000 0.0868496004
C   C38       1.0  0.92820  0.14680  0.84850  1.0000 0.0868496004
C   C39       1.0  0.71100  0.09100  0.25190  1.0000 0.3695627735
C   C40       1.0  0.90900  0.28900  0.75190  1.0000 0.3695627735
C   C41       1.0  0.65150  0.13610  0.19350  1.0000 0.3695627735
C   C42       1.0  0.86390  0.34850  0.69350  1.0000 0.3695627735
C   C43       1.0  0.56450  0.97710  0.21600  1.0000 0.3695627735
C   C44       1.0  0.02290  0.43550  0.71600  1.0000 0.3695627735
C   C45       1.0  0.66750  0.21530  0.16210  1.0000 0.0520127358
C   C46       1.0  0.78470  0.33250  0.66210  1.0000 0.0520127358
C   C47       1.0  0.74920  0.31060  0.16800  1.0000 -0.1484035595
C   C48       1.0  0.68940  0.25080  0.66800  1.0000 -0.1401253902
C   C49       1.0  0.76280  0.38180  0.13690  1.0000 0.0868496004
C   C50       1.0  0.61820  0.23720  0.63690  1.0000 0.0868496004
C   C51       1.0  0.61970  0.26950  0.09600  1.0000 0.0776859749
C   C52       1.0  0.73050  0.38030  0.59600  1.0000 0.0776859749
C   C53       1.0  0.60080  0.19480  0.12530  1.0000 -0.1401253902
C   C54       1.0  0.80520  0.39920  0.62530  1.0000 -0.1336757197
C   C55       1.0  0.47470  0.87390  0.21380  1.0000 0.059018281
C   C56       1.0  0.12610  0.52530  0.71380  1.0000 0.059018281
C   C57       1.0  0.39410  0.84550  0.18520  1.0000 -0.1484035595
C   C58       1.0  0.15450  0.60590  0.68520  1.0000 -0.1484035595
C   C59       1.0  0.31000  0.74880  0.18560  1.0000 0.0715724029
C   C60       1.0  0.25120  0.69000  0.68560  1.0000 0.0715724029
C   C61       1.0  0.37970  0.70890  0.24290  1.0000 0.0715724029
C   C62       1.0  0.29110  0.62030  0.74290  1.0000 0.0715724029
C   C63       1.0  0.46630  0.80270  0.24390  1.0000 -0.1484035595
C   C64       1.0  0.19730  0.53370  0.74390  1.0000 -0.1484035595
C   C65       1.0  0.53400  0.39680  0.01140  1.0000 0.0868496004
C   C66       1.0  0.60320  0.46600  0.51140  1.0000 0.0868496004
C   C67       1.0  0.44300  0.36800  0.01290  1.0000 -0.1336757197
C   C68       1.0  0.63200  0.55700  0.51290  1.0000 -0.1336757197
C   C69       1.0  0.58060  0.45740  0.08150  1.0000 0.0776859749
C   C70       1.0  0.54260  0.41940  0.58150  1.0000 0.0776859749
C   C71       1.0  0.26760  0.48560  0.17750  1.0000 0.0868496004
C   C72       1.0  0.51440  0.73240  0.67750  1.0000 0.0868496004
C   C73       1.0  0.06030  0.00490  0.55390  1.0000 0.0520127358
C   C74       1.0  0.99510  0.93970  0.05390  1.0000 0.0520127358
C   C75       1.0  0.13040  0.08740  0.52870  1.0000 -0.1484035595
C   C76       1.0  0.91260  0.86960  0.02870  1.0000 -0.1484035595
C   C77       1.0  0.17420  0.07860  0.49920  1.0000 0.059018281
C   C78       1.0  0.92140  0.82580  0.99920  1.0000 0.059018281
C   C79       1.0  0.14360  0.98960  0.49500  1.0000 -0.1401253902
C   C80       1.0  0.01040  0.85640  0.99500  1.0000 -0.1401253902
C   C81       1.0  0.07340  0.91100  0.52240  1.0000 0.0868496004
C   C82       1.0  0.08900  0.92660  0.02240  1.0000 0.0868496004
C   C83       1.0  0.25390  0.16570  0.47160  1.0000 0.3762713589
C   C84       1.0  0.83430  0.74610  0.97160  1.0000 0.3762713589
C   C85       1.0  0.35090  0.32510  0.44960  1.0000 0.3695627735
C   C86       1.0  0.67490  0.64910  0.94960  1.0000 0.3762713589
C   C87       1.0  0.35720  0.22780  0.41880  1.0000 0.3695627735
C   C88       1.0  0.77220  0.64280  0.91880  1.0000 0.3695627735
C   C89       1.0  0.38580  0.42260  0.45280  1.0000 0.0520127358
C   C90       1.0  0.57740  0.61420  0.95280  1.0000 0.0520127358
C   C91       1.0  0.43290  0.49250  0.41640  1.0000 -0.1401253902
C   C92       1.0  0.50750  0.56710  0.91640  1.0000 -0.1401253902
C   C93       1.0  0.39920  0.21640  0.38690  1.0000 0.059018281
C   C94       1.0  0.78360  0.60080  0.88690  1.0000 0.059018281
C   C95       1.0  0.39340  0.13600  0.39360  1.0000 -0.1192977872
C   C96       1.0  0.86400  0.60660  0.89360  1.0000 -0.1192977872
C   C97       1.0  0.43770  0.12850  0.36390  1.0000 0.0868496004
C   C98       1.0  0.87150  0.56230  0.86390  1.0000 0.0868496004
C   C99       1.0  0.44600  0.28080  0.35150  1.0000 -0.1401253902
C   C100      1.0  0.71920  0.55400  0.85150  1.0000 -0.1401253902
C   C101      1.0  0.23200  0.93460  0.16860  1.0000 0.0715724029
C   C102      1.0  0.06540  0.76800  0.66860  1.0000 0.0715724029
C   C103      1.0  0.21380  0.86660  0.20260  1.0000 -0.1484035595
C   C104      1.0  0.13340  0.78620  0.70260  1.0000 -0.1484035595
C   C105      1.0  0.11640  0.78620  0.21180  1.0000 0.0520127358
C   C106      1.0  0.21380  0.88360  0.71180  1.0000 0.0520127358
C   C107      1.0  0.04570  0.78070  0.18490  1.0000 -0.1401253902
C   C108      1.0  0.21930  0.95430  0.68490  1.0000 -0.1401253902
C   C109      1.0  0.07180  0.85320  0.15150  1.0000 0.0868496004
C   C110      1.0  0.14680  0.92820  0.65150  1.0000 0.0868496004
C   C111      1.0  0.09100  0.71100  0.24810  1.0000 0.3695627735
C   C112      1.0  0.28900  0.90900  0.74810  1.0000 0.3695627735
C   C113      1.0  0.13610  0.65150  0.30650  1.0000 0.3762713589
C   C114      1.0  0.34850  0.86390  0.80650  1.0000 0.3762713589
C   C115      1.0  0.97710  0.56450  0.28400  1.0000 0.3695627735
C   C116      1.0  0.43550  0.02290  0.78400  1.0000 0.3695627735
C   C117      1.0  0.21530  0.66750  0.33790  1.0000 0.0520127358
C   C118      1.0  0.33250  0.78470  0.83790  1.0000 0.0520127358
C   C119      1.0  0.31060  0.74920  0.33200  1.0000 -0.1484035595
C   C120      1.0  0.25080  0.68940  0.83200  1.0000 -0.1484035595
C   C121      1.0  0.38180  0.76280  0.36310  1.0000 0.0868496004
C   C122      1.0  0.23720  0.61820  0.86310  1.0000 0.0868496004
C   C123      1.0  0.26950  0.61970  0.40400  1.0000 0.0776859749
C   C124      1.0  0.38030  0.73050  0.90400  1.0000 0.0776859749
C   C125      1.0  0.19480  0.60080  0.37470  1.0000 -0.1336757197
C   C126      1.0  0.39920  0.80520  0.87470  1.0000 -0.1336757197
C   C127      1.0  0.87390  0.47470  0.28620  1.0000 0.059018281
C   C128      1.0  0.52530  0.12610  0.78620  1.0000 0.059018281
C   C129      1.0  0.84550  0.39410  0.31480  1.0000 -0.1484035595
C   C130      1.0  0.60590  0.15450  0.81480  1.0000 -0.1484035595
C   C131      1.0  0.74880  0.31000  0.31440  1.0000 0.0715724029
C   C132      1.0  0.69000  0.25120  0.81440  1.0000 0.0715724029
C   C133      1.0  0.70890  0.37970  0.25710  1.0000 0.0715724029
C   C134      1.0  0.62030  0.29110  0.75710  1.0000 0.0715724029
C   C135      1.0  0.80270  0.46630  0.25610  1.0000 -0.1484035595
C   C136      1.0  0.53370  0.19730  0.75610  1.0000 -0.1484035595
C   C137      1.0  0.39680  0.53400  0.48860  1.0000 0.0868496004
C   C138      1.0  0.46600  0.60320  0.98860  1.0000 0.0868496004
C   C139      1.0  0.36800  0.44300  0.48710  1.0000 -0.1336757197
C   C140      1.0  0.55700  0.63200  0.98710  1.0000 -0.1336757197
C   C141      1.0  0.45740  0.58060  0.41850  1.0000 0.0776859749
C   C142      1.0  0.41940  0.54260  0.91850  1.0000 0.0776859749
C   C143      1.0  0.48560  0.26760  0.32250  1.0000 0.0868496004
C   C144      1.0  0.73240  0.51440  0.82250  1.0000 0.0868496004
I   I1        1.0  0.82913  0.86723  0.85877  1.0000 -0.4393926328
I   I2        1.0  0.13277  0.17087  0.35877  1.0000 -0.4393926328
I   I3        1.0  0.64953  0.87811  0.93686  1.0000 -0.4393926328
I   I4        1.0  0.12189  0.35047  0.43686  1.0000 -0.4393926328
I   I5        1.0  0.18795  0.45887  0.29491  1.0000 -0.4322956797
I   I6        1.0  0.54113  0.81205  0.79491  1.0000 -0.4322956797
I   I7        1.0  0.03090  0.51958  0.18777  1.0000 -0.4322956797
I   I8        1.0  0.48042  0.96910  0.68777  1.0000 -0.4322956797
I   I9        1.0  0.86039  0.63175  0.08646  1.0000 -0.4653382298
I   I10       1.0  0.36825  0.13961  0.58646  1.0000 -0.4634417391
I   I11       1.0  0.73886  0.42116  0.98207  1.0000 -0.4393926328
I   I12       1.0  0.57884  0.26114  0.48207  1.0000 -0.4393926328
I   I13       1.0  0.86723  0.82913  0.64123  1.0000 -0.4393926328
I   I14       1.0  0.17087  0.13277  0.14123  1.0000 -0.4393926328
I   I15       1.0  0.87811  0.64953  0.56314  1.0000 -0.4393926328
I   I16       1.0  0.35047  0.12189  0.06314  1.0000 -0.4393926328
I   I17       1.0  0.45887  0.18795  0.20509  1.0000 -0.4393926328
I   I18       1.0  0.81205  0.54113  0.70509  1.0000 -0.4322956797
I   I19       1.0  0.51958  0.03090  0.31223  1.0000 -0.4322956797
I   I20       1.0  0.96910  0.48042  0.81223  1.0000 -0.4322956797
I   I21       1.0  0.63175  0.86039  0.41354  1.0000 -0.4634417391
I   I22       1.0  0.13961  0.36825  0.91354  1.0000 -0.4634417391
I   I23       1.0  0.42116  0.73886  0.51793  1.0000 -0.4393926328
I   I24       1.0  0.26114  0.57884  0.01793  1.0000 -0.4393926328
N   N1        1.0  0.91770  0.03350  0.94820  1.0000 -0.1954780516
N   N2        1.0  0.96650  0.08230  0.44820  1.0000 -0.1875808534
N   N3        1.0  0.25200  0.28340  0.02330  1.0000 -0.3898442273
N   N4        1.0  0.71660  0.74800  0.52330  1.0000 -0.3898442273
N   N5        1.0  0.31660  0.38880  0.07990  1.0000 -0.3971135017
N   N6        1.0  0.61120  0.68340  0.57990  1.0000 -0.3971135017
N   N7        1.0  0.15080  0.29000  0.05630  1.0000 -0.3898442273
N   N8        1.0  0.71000  0.84920  0.55630  1.0000 -0.3898442273
N   N9        1.0  0.93090  0.16230  0.35620  1.0000 -0.1808011862
N   N10       1.0  0.83770  0.06910  0.85620  1.0000 -0.1808011862
N   N11       1.0  0.63380  0.99660  0.24760  1.0000 -0.3898442273
N   N12       1.0  0.00340  0.36620  0.74760  1.0000 -0.3898442273
N   N13       1.0  0.56970  0.04350  0.18760  1.0000 -0.3898442273
N   N14       1.0  0.95650  0.43030  0.68760  1.0000 -0.3898442273
N   N15       1.0  0.72160  0.16300  0.22670  1.0000 -0.3839520362
N   N16       1.0  0.83700  0.27840  0.72670  1.0000 -0.3839520362
N   N17       1.0  0.70040  0.36320  0.10160  1.0000 -0.1808011862
N   N18       1.0  0.63680  0.29960  0.60160  1.0000 -0.1808011862
N   N19       1.0  0.30150  0.68050  0.21560  1.0000 -0.1808011862
N   N20       1.0  0.31950  0.69850  0.71560  1.0000 -0.1808011862
N   N21       1.0  0.19320  0.48120  0.17070  1.0000 -0.1808011862
N   N22       1.0  0.51880  0.80680  0.67070  1.0000 -0.1808011862
N   N23       1.0  0.60090  0.44050  0.04610  1.0000 -0.1808011862
N   N24       1.0  0.55950  0.39910  0.54610  1.0000 -0.1875808534
N   N25       1.0  0.03350  0.91770  0.55180  1.0000 -0.1954780516
N   N26       1.0  0.08230  0.96650  0.05180  1.0000 -0.1954780516
N   N27       1.0  0.28340  0.25200  0.47670  1.0000 -0.3898442273
N   N28       1.0  0.74800  0.71660  0.97670  1.0000 -0.3898442273
N   N29       1.0  0.38880  0.31660  0.42010  1.0000 -0.3971135017
N   N30       1.0  0.68340  0.61120  0.92010  1.0000 -0.3971135017
N   N31       1.0  0.29000  0.15080  0.44370  1.0000 -0.3898442273
N   N32       1.0  0.84920  0.71000  0.94370  1.0000 -0.3898442273
N   N33       1.0  0.16230  0.93090  0.14380  1.0000 -0.1808011862
N   N34       1.0  0.06910  0.83770  0.64380  1.0000 -0.1808011862
N   N35       1.0  0.99660  0.63380  0.25240  1.0000 -0.3898442273
N   N36       1.0  0.36620  0.00340  0.75240  1.0000 -0.3898442273
N   N37       1.0  0.04350  0.56970  0.31240  1.0000 -0.3898442273
N   N38       1.0  0.43030  0.95650  0.81240  1.0000 -0.3898442273
N   N39       1.0  0.16300  0.72160  0.27330  1.0000 -0.3839520362
N   N40       1.0  0.27840  0.83700  0.77330  1.0000 -0.3839520362
N   N41       1.0  0.36320  0.70040  0.39840  1.0000 -0.1808011862
N   N42       1.0  0.29960  0.63680  0.89840  1.0000 -0.1808011862
N   N43       1.0  0.68050  0.30150  0.28440  1.0000 -0.1808011862
N   N44       1.0  0.69850  0.31950  0.78440  1.0000 -0.1808011862
N   N45       1.0  0.48120  0.19320  0.32930  1.0000 -0.1808011862
N   N46       1.0  0.80680  0.51880  0.82930  1.0000 -0.1808011862
N   N47       1.0  0.44050  0.60090  0.45390  1.0000 -0.1875808534
N   N48       1.0  0.39910  0.55950  0.95390  1.0000 -0.1875808534
