# DDEC6 charges by PACMAN v1.1 (https://github.com/mtap-research/PACMAN-charge/)
data_2004[Ag][pts]3[FSR]3
_chemical_formula_sum              "Ag8 H128 C192 S8 N32"
_cell_length_a       23.9453
_cell_length_b       23.9453
_cell_length_c       23.9453
_cell_angle_alpha    122.142
_cell_angle_beta     122.142
_cell_angle_gamma    86.329

_symmetry_space_group_name_H-M    "P 1"
_symmetry_Int_Tables_number       1

loop_
  _symmetry_equiv_pos_as_xyz
  'x, y, z'

loop_
  _atom_site_type_symbol
  _atom_site_label
  _atom_site_symmetry_multiplicity
  _atom_site_fract_x
  _atom_site_fract_y
  _atom_site_fract_z
  _atom_site_occupancy
  _atom_site_charge
Ag  Ag1       1.0  0.58050  0.08050  0.16100  1.0000 0.198092654
Ag  Ag2       1.0  0.16950  0.83050  0.00000  1.0000 0.198092654
Ag  Ag3       1.0  0.83050  0.16950  0.00000  1.0000 0.198092654
Ag  Ag4       1.0  0.91950  0.41950  0.83900  1.0000 0.198092654
Ag  Ag5       1.0  0.16950  0.16950  0.33900  1.0000 0.198092654
Ag  Ag6       1.0  0.58050  0.41950  0.50000  1.0000 0.198092654
Ag  Ag7       1.0  0.91950  0.08050  0.50000  1.0000 0.198092654
Ag  Ag8       1.0  0.83050  0.83050  0.66100  1.0000 0.198092654
H   H1        1.0  0.69740  0.04740  0.13220  1.0000 0.0932914842
H   H2        1.0  0.43480  0.08480  0.13220  1.0000 0.0932914842
H   H3        1.0  0.31520  0.94740  0.15000  1.0000 0.0932914842
H   H4        1.0  0.79740  0.16520  0.85000  1.0000 0.0932914842
H   H5        1.0  0.91520  0.56520  0.86780  1.0000 0.0932914842
H   H6        1.0  0.05260  0.68480  0.85000  1.0000 0.0932914842
H   H7        1.0  0.83480  0.20260  0.15000  1.0000 0.0932914842
H   H8        1.0  0.95260  0.30260  0.86780  1.0000 0.0932914842
H   H9        1.0  0.05260  0.20260  0.36780  1.0000 0.0932914842
H   H10       1.0  0.31520  0.16520  0.36780  1.0000 0.0932914842
H   H11       1.0  0.43480  0.30260  0.35000  1.0000 0.0932914842
H   H12       1.0  0.95260  0.08480  0.65000  1.0000 0.0932914842
H   H13       1.0  0.83480  0.68480  0.63220  1.0000 0.0932914842
H   H14       1.0  0.69740  0.56520  0.65000  1.0000 0.0932914842
H   H15       1.0  0.91520  0.04740  0.35000  1.0000 0.0932914842
H   H16       1.0  0.79740  0.94740  0.63220  1.0000 0.0932914842
H   H17       1.0  0.72360  0.97240  0.04480  1.0000 0.1214162916
H   H18       1.0  0.32120  0.07240  0.04480  1.0000 0.1214162916
H   H19       1.0  0.42880  0.97360  0.25120  1.0000 0.1214162916
H   H20       1.0  0.72240  0.17760  0.74880  1.0000 0.1214162916
H   H21       1.0  0.92760  0.67880  0.95520  1.0000 0.1214162916
H   H22       1.0  0.02640  0.57120  0.74880  1.0000 0.1214162916
H   H23       1.0  0.82240  0.27760  0.25120  1.0000 0.1214162916
H   H24       1.0  0.02760  0.27640  0.95520  1.0000 0.1214162916
H   H25       1.0  0.02640  0.27760  0.45520  1.0000 0.1214162916
H   H26       1.0  0.42880  0.17760  0.45520  1.0000 0.1214162916
H   H27       1.0  0.32120  0.27640  0.24880  1.0000 0.1214162916
H   H28       1.0  0.02760  0.07240  0.75120  1.0000 0.1214162916
H   H29       1.0  0.82240  0.57120  0.54480  1.0000 0.1214162916
H   H30       1.0  0.72360  0.67880  0.75120  1.0000 0.1214162916
H   H31       1.0  0.92760  0.97240  0.24880  1.0000 0.1214162916
H   H32       1.0  0.72240  0.97360  0.54480  1.0000 0.1214162916
H   H33       1.0  0.52750  0.85150  0.88920  1.0000 0.1255445048
H   H34       1.0  0.36170  0.03770  0.88920  1.0000 0.1255445048
H   H35       1.0  0.38830  0.77750  0.17600  1.0000 0.1255445048
H   H36       1.0  0.60150  0.21230  0.82400  1.0000 0.1255445048
H   H37       1.0  0.96230  0.63830  0.11080  1.0000 0.1255445048
H   H38       1.0  0.22250  0.61170  0.82400  1.0000 0.1255445048
H   H39       1.0  0.78770  0.39850  0.17600  1.0000 0.1255445048
H   H40       1.0  0.14850  0.47250  0.11080  1.0000 0.1255445048
H   H41       1.0  0.22250  0.39850  0.61080  1.0000 0.1255445048
H   H42       1.0  0.38830  0.21230  0.61080  1.0000 0.1255445048
H   H43       1.0  0.36170  0.47250  0.32400  1.0000 0.1255445048
H   H44       1.0  0.14850  0.03770  0.67600  1.0000 0.1255445048
H   H45       1.0  0.78770  0.61170  0.38920  1.0000 0.1255445048
H   H46       1.0  0.52750  0.63830  0.67600  1.0000 0.1255445048
H   H47       1.0  0.96230  0.85150  0.32400  1.0000 0.1255445048
H   H48       1.0  0.60150  0.77750  0.38920  1.0000 0.1255445048
H   H49       1.0  0.50940  0.92780  0.98400  1.0000 0.0932914842
H   H50       1.0  0.47460  0.05620  0.98400  1.0000 0.0932914842
H   H51       1.0  0.27540  0.75940  0.08160  1.0000 0.0932914842
H   H52       1.0  0.67780  0.19380  0.91840  1.0000 0.0932914842
H   H53       1.0  0.94380  0.52540  0.01600  1.0000 0.0932914842
H   H54       1.0  0.24060  0.72460  0.91840  1.0000 0.0932914842
H   H55       1.0  0.80620  0.32220  0.08160  1.0000 0.0932914842
H   H56       1.0  0.07220  0.49060  0.01600  1.0000 0.0932914842
H   H57       1.0  0.24060  0.32220  0.51600  1.0000 0.0932914842
H   H58       1.0  0.27540  0.19380  0.51600  1.0000 0.0932914842
H   H59       1.0  0.47460  0.49060  0.41840  1.0000 0.0932914842
H   H60       1.0  0.07220  0.05620  0.58160  1.0000 0.0932914842
H   H61       1.0  0.80620  0.72460  0.48400  1.0000 0.0932914842
H   H62       1.0  0.50940  0.52540  0.58160  1.0000 0.0932914842
H   H63       1.0  0.94380  0.92780  0.41840  1.0000 0.0932914842
H   H64       1.0  0.67780  0.75940  0.48400  1.0000 0.0932914842
H   H65       1.0  0.63380  0.95240  0.83900  1.0000 0.137651932
H   H66       1.0  0.20520  0.88660  0.83900  1.0000 0.137651932
H   H67       1.0  0.54480  0.88380  0.18140  1.0000 0.137651932
H   H68       1.0  0.70240  0.36340  0.81860  1.0000 0.137651932
H   H69       1.0  0.11340  0.79480  0.16100  1.0000 0.137651932
H   H70       1.0  0.11620  0.45520  0.81860  1.0000 0.137651932
H   H71       1.0  0.63660  0.29760  0.18140  1.0000 0.137651932
H   H72       1.0  0.04760  0.36620  0.16100  1.0000 0.137651932
H   H73       1.0  0.11620  0.29760  0.66100  1.0000 0.137651932
H   H74       1.0  0.54480  0.36340  0.66100  1.0000 0.137651932
H   H75       1.0  0.20520  0.36620  0.31860  1.0000 0.137651932
H   H76       1.0  0.04760  0.88660  0.68140  1.0000 0.137651932
H   H77       1.0  0.63660  0.45520  0.33900  1.0000 0.137651932
H   H78       1.0  0.63380  0.79480  0.68140  1.0000 0.137651932
H   H79       1.0  0.11340  0.95240  0.31860  1.0000 0.137651932
H   H80       1.0  0.70240  0.88380  0.33900  1.0000 0.137651932
H   H81       1.0  0.68940  0.06100  0.89120  1.0000 0.0932914842
H   H82       1.0  0.20180  0.83020  0.89120  1.0000 0.0932914842
H   H83       1.0  0.54820  0.93940  0.12840  1.0000 0.0932914842
H   H84       1.0  0.81100  0.41980  0.87160  1.0000 0.0932914842
H   H85       1.0  0.16980  0.79820  0.10880  1.0000 0.0932914842
H   H86       1.0  0.06060  0.45180  0.87160  1.0000 0.0932914842
H   H87       1.0  0.58020  0.18900  0.12840  1.0000 0.0932914842
H   H88       1.0  0.93900  0.31060  0.10880  1.0000 0.0932914842
H   H89       1.0  0.06060  0.18900  0.60880  1.0000 0.0932914842
H   H90       1.0  0.54820  0.41980  0.60880  1.0000 0.0932914842
H   H91       1.0  0.20180  0.31060  0.37160  1.0000 0.0932914842
H   H92       1.0  0.93900  0.83020  0.62840  1.0000 0.0932914842
H   H93       1.0  0.58020  0.45180  0.39120  1.0000 0.0932914842
H   H94       1.0  0.68940  0.79820  0.62840  1.0000 0.0932914842
H   H95       1.0  0.16980  0.06100  0.37160  1.0000 0.0932914842
H   H96       1.0  0.81100  0.93940  0.39120  1.0000 0.0932914842
H   H97       1.0  0.86490  0.05240  0.03030  1.0000 0.0820569383
H   H98       1.0  0.16540  0.97790  0.03030  1.0000 0.0820569383
H   H99       1.0  0.58460  0.11490  0.31250  1.0000 0.0820569383
H   H100      1.0  0.80240  0.27210  0.68750  1.0000 0.0820569383
H   H101      1.0  0.02210  0.83460  0.96970  1.0000 0.0820569383
H   H102      1.0  0.88510  0.41540  0.68750  1.0000 0.0820569383
H   H103      1.0  0.72790  0.19760  0.31250  1.0000 0.0820569383
H   H104      1.0  0.94760  0.13510  0.96970  1.0000 0.0820569383
H   H105      1.0  0.88510  0.19760  0.46970  1.0000 0.0820569383
H   H106      1.0  0.58460  0.27210  0.46970  1.0000 0.0820569383
H   H107      1.0  0.16540  0.13510  0.18750  1.0000 0.0820569383
H   H108      1.0  0.94760  0.97790  0.81250  1.0000 0.0820569383
H   H109      1.0  0.72790  0.41540  0.53030  1.0000 0.0820569383
H   H110      1.0  0.86490  0.83460  0.81250  1.0000 0.0820569383
H   H111      1.0  0.02210  0.05240  0.18750  1.0000 0.0820569383
H   H112      1.0  0.80240  0.11490  0.53030  1.0000 0.0820569383
H   H113      1.0  0.81500  0.94700  0.98920  1.0000 0.1214162916
H   H114      1.0  0.17420  0.04220  0.98920  1.0000 0.1214162916
H   H115      1.0  0.57580  0.06500  0.36800  1.0000 0.1214162916
H   H116      1.0  0.69700  0.20780  0.63200  1.0000 0.1214162916
H   H117      1.0  0.95780  0.82580  0.01080  1.0000 0.1214162916
H   H118      1.0  0.93500  0.42420  0.63200  1.0000 0.1214162916
H   H119      1.0  0.79220  0.30300  0.36800  1.0000 0.1214162916
H   H120      1.0  0.05300  0.18500  0.01080  1.0000 0.1214162916
H   H121      1.0  0.93500  0.30300  0.51080  1.0000 0.1214162916
H   H122      1.0  0.57580  0.20780  0.51080  1.0000 0.1214162916
H   H123      1.0  0.17420  0.18500  0.13200  1.0000 0.1214162916
H   H124      1.0  0.05300  0.04220  0.86800  1.0000 0.1214162916
H   H125      1.0  0.79220  0.42420  0.48920  1.0000 0.1214162916
H   H126      1.0  0.81500  0.82580  0.86800  1.0000 0.1214162916
H   H127      1.0  0.95780  0.94700  0.13200  1.0000 0.1214162916
H   H128      1.0  0.69700  0.06500  0.48920  1.0000 0.1214162916
C   C1        1.0  0.66276  0.00696  0.08260  1.0000 0.040573075
C   C2        1.0  0.41984  0.07564  0.08260  1.0000 0.040573075
C   C3        1.0  0.33016  0.91276  0.15580  1.0000 0.040573075
C   C4        1.0  0.75696  0.17436  0.84420  1.0000 0.040573075
C   C5        1.0  0.92436  0.58016  0.91740  1.0000 0.040573075
C   C6        1.0  0.08724  0.66984  0.84420  1.0000 0.040573075
C   C7        1.0  0.82564  0.24304  0.15580  1.0000 0.040573075
C   C8        1.0  0.99304  0.33724  0.91740  1.0000 0.040573075
C   C9        1.0  0.08724  0.24304  0.41740  1.0000 0.040573075
C   C10       1.0  0.33016  0.17436  0.41740  1.0000 0.040573075
C   C11       1.0  0.41984  0.33724  0.34420  1.0000 0.040573075
C   C12       1.0  0.99304  0.07564  0.65580  1.0000 0.040573075
C   C13       1.0  0.82564  0.66984  0.58260  1.0000 0.040573075
C   C14       1.0  0.66276  0.58016  0.65580  1.0000 0.040573075
C   C15       1.0  0.92436  0.00696  0.34420  1.0000 0.040573075
C   C16       1.0  0.75696  0.91276  0.58260  1.0000 0.040573075
C   C17       1.0  0.67889  0.96239  0.02990  1.0000 -0.2034733234
C   C18       1.0  0.35101  0.06751  0.02990  1.0000 -0.2034733234
C   C19       1.0  0.39899  0.92889  0.21650  1.0000 -0.2034733234
C   C20       1.0  0.71239  0.18249  0.78350  1.0000 -0.2034733234
C   C21       1.0  0.93249  0.64899  0.97010  1.0000 -0.2034733234
C   C22       1.0  0.07111  0.60101  0.78350  1.0000 -0.2034733234
C   C23       1.0  0.81751  0.28761  0.21650  1.0000 -0.2034733234
C   C24       1.0  0.03761  0.32111  0.97010  1.0000 -0.2034733234
C   C25       1.0  0.07111  0.28761  0.47010  1.0000 -0.2034733234
C   C26       1.0  0.39899  0.18249  0.47010  1.0000 -0.2034733234
C   C27       1.0  0.35101  0.32111  0.28350  1.0000 -0.2034733234
C   C28       1.0  0.03761  0.06751  0.71650  1.0000 -0.2034733234
C   C29       1.0  0.81751  0.60101  0.52990  1.0000 -0.2034733234
C   C30       1.0  0.67889  0.64899  0.71650  1.0000 -0.2034733234
C   C31       1.0  0.93249  0.96239  0.28350  1.0000 -0.2034733234
C   C32       1.0  0.71239  0.92889  0.52990  1.0000 -0.2034733234
C   C33       1.0  0.62819  0.90300  0.95493  1.0000 0.1214162916
C   C34       1.0  0.32674  0.05193  0.95493  1.0000 0.1214162916
C   C35       1.0  0.42326  0.87819  0.22519  1.0000 0.1214162916
C   C36       1.0  0.65300  0.19807  0.77481  1.0000 0.1214162916
C   C37       1.0  0.94807  0.67326  0.04507  1.0000 0.1214162916
C   C38       1.0  0.12181  0.57674  0.77481  1.0000 0.1214162916
C   C39       1.0  0.80193  0.34700  0.22519  1.0000 0.1214162916
C   C40       1.0  0.09700  0.37181  0.04507  1.0000 0.1214162916
C   C41       1.0  0.12181  0.34700  0.54507  1.0000 0.1214162916
C   C42       1.0  0.42326  0.19807  0.54507  1.0000 0.1214162916
C   C43       1.0  0.32674  0.37181  0.27481  1.0000 0.1214162916
C   C44       1.0  0.09700  0.05193  0.72519  1.0000 0.1214162916
C   C45       1.0  0.80193  0.57674  0.45493  1.0000 0.1214162916
C   C46       1.0  0.62819  0.67326  0.72519  1.0000 0.1214162916
C   C47       1.0  0.94807  0.90300  0.27481  1.0000 0.1214162916
C   C48       1.0  0.65300  0.87819  0.45493  1.0000 0.1214162916
C   C49       1.0  0.56355  0.89097  0.93862  1.0000 -0.2034733234
C   C50       1.0  0.37507  0.04765  0.93862  1.0000 -0.2034733234
C   C51       1.0  0.37493  0.81355  0.17258  1.0000 -0.2034733234
C   C52       1.0  0.64097  0.20235  0.82742  1.0000 -0.2034733234
C   C53       1.0  0.95235  0.62493  0.06138  1.0000 -0.2034733234
C   C54       1.0  0.18645  0.62507  0.82742  1.0000 -0.2034733234
C   C55       1.0  0.79765  0.35903  0.17258  1.0000 -0.2034733234
C   C56       1.0  0.10903  0.43645  0.06138  1.0000 -0.2034733234
C   C57       1.0  0.18645  0.35903  0.56138  1.0000 -0.2034733234
C   C58       1.0  0.37493  0.20235  0.56138  1.0000 -0.2034733234
C   C59       1.0  0.37507  0.43645  0.32742  1.0000 -0.2034733234
C   C60       1.0  0.10903  0.04765  0.67258  1.0000 -0.2034733234
C   C61       1.0  0.79765  0.62507  0.43862  1.0000 -0.2034733234
C   C62       1.0  0.56355  0.62493  0.67258  1.0000 -0.2034733234
C   C63       1.0  0.95235  0.89097  0.32742  1.0000 -0.2034733234
C   C64       1.0  0.64097  0.81355  0.43862  1.0000 -0.2034733234
C   C65       1.0  0.55291  0.93761  0.99590  1.0000 0.040573075
C   C66       1.0  0.44299  0.05829  0.99590  1.0000 0.040573075
C   C67       1.0  0.30701  0.80291  0.11530  1.0000 0.040573075
C   C68       1.0  0.68761  0.19171  0.88470  1.0000 0.040573075
C   C69       1.0  0.94171  0.55701  0.00410  1.0000 0.0503191309
C   C70       1.0  0.19709  0.69299  0.88470  1.0000 0.040573075
C   C71       1.0  0.80829  0.31239  0.11530  1.0000 0.040573075
C   C72       1.0  0.06239  0.44709  0.00410  1.0000 0.040573075
C   C73       1.0  0.19709  0.31239  0.50410  1.0000 0.040573075
C   C74       1.0  0.30701  0.19171  0.50410  1.0000 0.040573075
C   C75       1.0  0.44299  0.44709  0.38470  1.0000 0.040573075
C   C76       1.0  0.06239  0.05829  0.61530  1.0000 0.040573075
C   C77       1.0  0.80829  0.69299  0.49590  1.0000 0.040573075
C   C78       1.0  0.55291  0.55701  0.61530  1.0000 0.040573075
C   C79       1.0  0.94171  0.93761  0.38470  1.0000 0.0503191309
C   C80       1.0  0.68761  0.80291  0.49590  1.0000 0.0503191309
C   C81       1.0  0.64198  0.85417  0.89533  1.0000 -0.0662030532
C   C82       1.0  0.25335  0.04116  0.89533  1.0000 -0.0662030532
C   C83       1.0  0.49665  0.89198  0.28781  1.0000 -0.0662030532
C   C84       1.0  0.60417  0.20884  0.71219  1.0000 -0.0662030532
C   C85       1.0  0.95884  0.74665  0.10467  1.0000 -0.0662030532
C   C86       1.0  0.10802  0.50335  0.71219  1.0000 -0.0662030532
C   C87       1.0  0.79116  0.39583  0.28781  1.0000 -0.0662030532
C   C88       1.0  0.14583  0.35802  0.10467  1.0000 -0.0662030532
C   C89       1.0  0.10802  0.39583  0.60467  1.0000 -0.0662030532
C   C90       1.0  0.49665  0.20884  0.60467  1.0000 -0.0662030532
C   C91       1.0  0.25335  0.35802  0.21219  1.0000 -0.0662030532
C   C92       1.0  0.14583  0.04116  0.78781  1.0000 -0.0662030532
C   C93       1.0  0.79116  0.50335  0.39533  1.0000 -0.0662030532
C   C94       1.0  0.64198  0.74665  0.78781  1.0000 -0.0662030532
C   C95       1.0  0.95884  0.85417  0.21219  1.0000 -0.0662030532
C   C96       1.0  0.60417  0.89198  0.39533  1.0000 -0.0662030532
C   C97       1.0  0.68291  0.86726  0.87731  1.0000 -0.0408878069
C   C98       1.0  0.19440  0.01005  0.87731  1.0000 -0.0408878069
C   C99       1.0  0.55560  0.93291  0.31565  1.0000 -0.0408878069
C   C100      1.0  0.61726  0.23995  0.68435  1.0000 -0.0408878069
C   C101      1.0  0.98995  0.80560  0.12269  1.0000 -0.0408878069
C   C102      1.0  0.06709  0.44440  0.68435  1.0000 -0.0408878069
C   C103      1.0  0.76005  0.38274  0.31565  1.0000 -0.0408878069
C   C104      1.0  0.13274  0.31709  0.12269  1.0000 -0.0408878069
C   C105      1.0  0.06709  0.38274  0.62269  1.0000 -0.0408878069
C   C106      1.0  0.55560  0.23995  0.62269  1.0000 -0.0408878069
C   C107      1.0  0.19440  0.31709  0.18435  1.0000 -0.0408878069
C   C108      1.0  0.13274  0.01005  0.81565  1.0000 -0.0408878069
C   C109      1.0  0.76005  0.44440  0.37731  1.0000 -0.0408878069
C   C110      1.0  0.68291  0.80560  0.81565  1.0000 -0.0408878069
C   C111      1.0  0.98995  0.86726  0.18435  1.0000 -0.0408878069
C   C112      1.0  0.61726  0.93291  0.37731  1.0000 -0.0408878069
C   C113      1.0  0.71739  0.93722  0.90897  1.0000 0.1102473132
C   C114      1.0  0.19158  0.97175  0.90897  1.0000 0.1102473132
C   C115      1.0  0.55842  0.96739  0.28017  1.0000 0.1102473132
C   C116      1.0  0.68722  0.27825  0.71983  1.0000 0.1102473132
C   C117      1.0  0.02825  0.80842  0.09103  1.0000 0.1102473132
C   C118      1.0  0.03261  0.44158  0.71983  1.0000 0.1102473132
C   C119      1.0  0.72175  0.31278  0.28017  1.0000 0.1102473132
C   C120      1.0  0.06278  0.28261  0.09103  1.0000 0.1102473132
C   C121      1.0  0.03261  0.31278  0.59103  1.0000 0.1102473132
C   C122      1.0  0.55842  0.27825  0.59103  1.0000 0.1102473132
C   C123      1.0  0.19158  0.28261  0.21983  1.0000 0.1102473132
C   C124      1.0  0.06278  0.97175  0.78017  1.0000 0.1102473132
C   C125      1.0  0.72175  0.44158  0.40897  1.0000 0.1102473132
C   C126      1.0  0.71739  0.80842  0.78017  1.0000 0.1102473132
C   C127      1.0  0.02825  0.93722  0.21983  1.0000 0.1102473132
C   C128      1.0  0.68722  0.96739  0.40897  1.0000 0.1102473132
C   C129      1.0  0.68124  0.97174  0.87950  1.0000 -0.206170671
C   C130      1.0  0.19826  0.90776  0.87950  1.0000 -0.206170671
C   C131      1.0  0.55174  0.93124  0.20950  1.0000 -0.206170671
C   C132      1.0  0.72174  0.34224  0.79050  1.0000 -0.206170671
C   C133      1.0  0.09224  0.80174  0.12050  1.0000 -0.206170671
C   C134      1.0  0.06876  0.44826  0.79050  1.0000 -0.206170671
C   C135      1.0  0.65776  0.27826  0.20950  1.0000 -0.206170671
C   C136      1.0  0.02826  0.31876  0.12050  1.0000 -0.206170671
C   C137      1.0  0.06876  0.27826  0.62050  1.0000 -0.206170671
C   C138      1.0  0.55174  0.34224  0.62050  1.0000 -0.206170671
C   C139      1.0  0.19826  0.31876  0.29050  1.0000 -0.206170671
C   C140      1.0  0.02826  0.90776  0.70950  1.0000 -0.206170671
C   C141      1.0  0.65776  0.44826  0.37950  1.0000 -0.206170671
C   C142      1.0  0.68124  0.80174  0.70950  1.0000 -0.206170671
C   C143      1.0  0.09224  0.97174  0.29050  1.0000 -0.206170671
C   C144      1.0  0.72174  0.93124  0.37950  1.0000 -0.206170671
C   C145      1.0  0.71588  0.03718  0.91050  1.0000 0.0503191309
C   C146      1.0  0.19462  0.87332  0.91050  1.0000 0.0503191309
C   C147      1.0  0.55538  0.96588  0.17870  1.0000 0.0503191309
C   C148      1.0  0.78718  0.37668  0.82130  1.0000 0.0503191309
C   C149      1.0  0.12668  0.80538  0.08950  1.0000 0.0503191309
C   C150      1.0  0.03412  0.44462  0.82130  1.0000 0.0503191309
C   C151      1.0  0.62332  0.21282  0.17870  1.0000 0.0503191309
C   C152      1.0  0.96282  0.28412  0.08950  1.0000 0.0503191309
C   C153      1.0  0.03412  0.21282  0.58950  1.0000 0.0503191309
C   C154      1.0  0.55538  0.37668  0.58950  1.0000 0.0503191309
C   C155      1.0  0.19462  0.28412  0.32130  1.0000 0.0503191309
C   C156      1.0  0.96282  0.87332  0.67870  1.0000 0.0503191309
C   C157      1.0  0.62332  0.44462  0.41050  1.0000 0.0503191309
C   C158      1.0  0.71588  0.80538  0.67870  1.0000 0.0503191309
C   C159      1.0  0.12668  0.03718  0.32130  1.0000 0.0503191309
C   C160      1.0  0.78718  0.96588  0.41050  1.0000 0.0503191309
C   C161      1.0  0.81723  0.03283  0.99160  1.0000 0.0503191309
C   C162      1.0  0.17437  0.95877  0.99160  1.0000 0.0503191309
C   C163      1.0  0.57563  0.06723  0.28440  1.0000 0.0503191309
C   C164      1.0  0.78283  0.29123  0.71560  1.0000 0.0503191309
C   C165      1.0  0.04123  0.82563  0.00840  1.0000 0.0503191309
C   C166      1.0  0.93277  0.42437  0.71560  1.0000 0.0503191309
C   C167      1.0  0.70877  0.21717  0.28440  1.0000 0.0503191309
C   C168      1.0  0.96717  0.18277  0.00840  1.0000 0.0503191309
C   C169      1.0  0.93277  0.21717  0.50840  1.0000 0.0503191309
C   C170      1.0  0.57563  0.29123  0.50840  1.0000 0.0503191309
C   C171      1.0  0.17437  0.18277  0.21560  1.0000 0.0503191309
C   C172      1.0  0.96717  0.95877  0.78440  1.0000 0.0503191309
C   C173      1.0  0.70877  0.42437  0.49160  1.0000 0.0503191309
C   C174      1.0  0.81723  0.82563  0.78440  1.0000 0.0503191309
C   C175      1.0  0.04123  0.03283  0.21560  1.0000 0.0503191309
C   C176      1.0  0.78283  0.06723  0.49160  1.0000 0.0503191309
C   C177      1.0  0.78739  0.96849  0.96670  1.0000 -0.2327422457
C   C178      1.0  0.17931  0.99821  0.96670  1.0000 -0.2327422457
C   C179      1.0  0.57069  0.03739  0.31890  1.0000 -0.2327422457
C   C180      1.0  0.71849  0.25179  0.68110  1.0000 -0.2327422457
C   C181      1.0  0.00179  0.82069  0.03330  1.0000 -0.2327422457
C   C182      1.0  0.96261  0.42931  0.68110  1.0000 -0.2327422457
C   C183      1.0  0.74821  0.28151  0.31890  1.0000 -0.2327422457
C   C184      1.0  0.03151  0.21261  0.03330  1.0000 -0.2327422457
C   C185      1.0  0.96261  0.28151  0.53330  1.0000 -0.2327422457
C   C186      1.0  0.57069  0.25179  0.53330  1.0000 -0.2327422457
C   C187      1.0  0.17931  0.21261  0.18110  1.0000 -0.2327422457
C   C188      1.0  0.03151  0.99821  0.81890  1.0000 -0.2327422457
C   C189      1.0  0.74821  0.42931  0.46670  1.0000 -0.2327422457
C   C190      1.0  0.78739  0.82069  0.81890  1.0000 -0.2327422457
C   C191      1.0  0.00179  0.96849  0.18110  1.0000 -0.2327422457
C   C192      1.0  0.71849  0.03739  0.46670  1.0000 -0.2327422457
S   S1        1.0  0.60372  0.76576  0.83796  1.0000 -0.0161018627
S   S2        1.0  0.23424  0.07220  0.83796  1.0000 -0.0161018627
S   S3        1.0  0.51576  0.85372  0.33796  1.0000 -0.0161018627
S   S4        1.0  0.51576  0.17780  0.66204  1.0000 -0.0161018627
S   S5        1.0  0.92780  0.76576  0.16204  1.0000 -0.0161018627
S   S6        1.0  0.14628  0.48424  0.66204  1.0000 -0.0161018627
S   S7        1.0  0.82220  0.48424  0.33796  1.0000 -0.0161018627
S   S8        1.0  0.23424  0.39628  0.16204  1.0000 -0.0161018627
N   N1        1.0  0.60071  0.99520  0.06643  1.0000 -0.2178074619
N   N2        1.0  0.46572  0.07123  0.06643  1.0000 -0.2178074619
N   N3        1.0  0.28428  0.85071  0.10551  1.0000 -0.2178074619
N   N4        1.0  0.74520  0.17877  0.89449  1.0000 -0.2178074619
N   N5        1.0  0.92877  0.53428  0.93357  1.0000 -0.2178074619
N   N6        1.0  0.14929  0.71572  0.89449  1.0000 -0.2178074619
N   N7        1.0  0.82123  0.25480  0.10551  1.0000 -0.2178074619
N   N8        1.0  0.00480  0.39929  0.93357  1.0000 -0.2178074619
N   N9        1.0  0.14929  0.25480  0.43357  1.0000 -0.2178074619
N   N10       1.0  0.28428  0.17877  0.43357  1.0000 -0.2178074619
N   N11       1.0  0.46572  0.39929  0.39449  1.0000 -0.2178074619
N   N12       1.0  0.00480  0.07123  0.60551  1.0000 -0.2178074619
N   N13       1.0  0.82123  0.71572  0.56643  1.0000 -0.2178074619
N   N14       1.0  0.60071  0.53428  0.60551  1.0000 -0.2178074619
N   N15       1.0  0.92877  0.99520  0.39449  1.0000 -0.2178074619
N   N16       1.0  0.74520  0.85071  0.56643  1.0000 -0.2178074619
N   N17       1.0  0.78324  0.06721  0.96483  1.0000 -0.2034733234
N   N18       1.0  0.18159  0.89762  0.96483  1.0000 -0.2034733234
N   N19       1.0  0.56841  0.03324  0.21603  1.0000 -0.2034733234
N   N20       1.0  0.81721  0.35238  0.78397  1.0000 -0.2034733234
N   N21       1.0  0.10238  0.81841  0.03517  1.0000 -0.2034733234
N   N22       1.0  0.96676  0.43159  0.78397  1.0000 -0.2034733234
N   N23       1.0  0.64762  0.18279  0.21603  1.0000 -0.2034733234
N   N24       1.0  0.93279  0.21676  0.03517  1.0000 -0.2034733234
N   N25       1.0  0.96676  0.18279  0.53517  1.0000 -0.2034733234
N   N26       1.0  0.56841  0.35238  0.53517  1.0000 -0.2034733234
N   N27       1.0  0.18159  0.21676  0.28397  1.0000 -0.2034733234
N   N28       1.0  0.93279  0.89762  0.71603  1.0000 -0.2034733234
N   N29       1.0  0.64762  0.43159  0.46483  1.0000 -0.2034733234
N   N30       1.0  0.78324  0.81841  0.71603  1.0000 -0.2034733234
N   N31       1.0  0.10238  0.06721  0.28397  1.0000 -0.2034733234
N   N32       1.0  0.81721  0.03324  0.46483  1.0000 -0.2034733234
