# DDEC6 charges by PACMAN v1.1 (https://github.com/mtap-research/PACMAN-charge/)
data_2004[Ag][gis]3[FSR]1
_chemical_formula_sum              "Ag4 H40 C48 N24"
_cell_length_a       10.7898
_cell_length_b       10.7898
_cell_length_c       15.9983
_cell_angle_alpha    73.9195
_cell_angle_beta     106.08
_cell_angle_gamma    82.1213

_symmetry_space_group_name_H-M    "P 1"
_symmetry_Int_Tables_number       1

loop_
  _symmetry_equiv_pos_as_xyz
  'x, y, z'

loop_
  _atom_site_type_symbol
  _atom_site_label
  _atom_site_symmetry_multiplicity
  _atom_site_fract_x
  _atom_site_fract_y
  _atom_site_fract_z
  _atom_site_occupancy
  _atom_site_charge
Ag  Ag1       1.0  0.60350  0.74306  0.60804  1.0000 0.2542394397
Ag  Ag2       1.0  0.74306  0.60350  0.89196  1.0000 0.2542394397
Ag  Ag3       1.0  0.39650  0.25694  0.39196  1.0000 0.2542394397
Ag  Ag4       1.0  0.25694  0.39650  0.10804  1.0000 0.2542394397
H   H1        1.0  0.39970  0.72250  0.40400  1.0000 0.091253828
H   H2        1.0  0.72250  0.39970  0.09600  1.0000 0.091253828
H   H3        1.0  0.60030  0.27750  0.59600  1.0000 0.091253828
H   H4        1.0  0.27750  0.60030  0.90400  1.0000 0.091253828
H   H5        1.0  0.21470  0.42630  0.47070  1.0000 0.1185086051
H   H6        1.0  0.42630  0.21470  0.02930  1.0000 0.1185086051
H   H7        1.0  0.78530  0.57370  0.52930  1.0000 0.1185086051
H   H8        1.0  0.57370  0.78530  0.97070  1.0000 0.1185086051
H   H9        1.0  0.29410  0.41870  0.62520  1.0000 0.1252779288
H   H10       1.0  0.41870  0.29410  0.87480  1.0000 0.1252779288
H   H11       1.0  0.70590  0.58130  0.37480  1.0000 0.1252779288
H   H12       1.0  0.58130  0.70590  0.12520  1.0000 0.1252779288
H   H13       1.0  0.42290  0.56310  0.66240  1.0000 0.0966464726
H   H14       1.0  0.56310  0.42290  0.83760  1.0000 0.0966464726
H   H15       1.0  0.57710  0.43690  0.33760  1.0000 0.0966464726
H   H16       1.0  0.43690  0.57710  0.16240  1.0000 0.0966464726
H   H17       1.0  0.96660  0.56480  0.07850  1.0000 0.1061920558
H   H18       1.0  0.56480  0.96660  0.42150  1.0000 0.1061920558
H   H19       1.0  0.03340  0.43520  0.92150  1.0000 0.1061920558
H   H20       1.0  0.43520  0.03340  0.57850  1.0000 0.1061920558
H   H21       1.0  0.15360  0.86680  0.05510  1.0000 0.1185086051
H   H22       1.0  0.86680  0.15360  0.44490  1.0000 0.1185086051
H   H23       1.0  0.84640  0.13320  0.94490  1.0000 0.1185086051
H   H24       1.0  0.13320  0.84640  0.55510  1.0000 0.1185086051
H   H25       1.0  0.01470  0.96050  0.90020  1.0000 0.1061920558
H   H26       1.0  0.96050  0.01470  0.59980  1.0000 0.1061920558
H   H27       1.0  0.98530  0.03950  0.09980  1.0000 0.1061920558
H   H28       1.0  0.03950  0.98530  0.40020  1.0000 0.1061920558
H   H29       1.0  0.85430  0.85590  0.84160  1.0000 0.091253828
H   H30       1.0  0.85590  0.85430  0.65840  1.0000 0.091253828
H   H31       1.0  0.14570  0.14410  0.15840  1.0000 0.091253828
H   H32       1.0  0.14410  0.14570  0.34160  1.0000 0.091253828
H   H33       1.0  0.08910  0.81110  0.27500  1.0000 0.1885929142
H   H34       1.0  0.81110  0.08910  0.22500  1.0000 0.1885929142
H   H35       1.0  0.91090  0.18890  0.72500  1.0000 0.1885929142
H   H36       1.0  0.18890  0.91090  0.77500  1.0000 0.1885929142
H   H37       1.0  0.19800  0.84800  0.25650  1.0000 0.1885929142
H   H38       1.0  0.84800  0.19800  0.24350  1.0000 0.1885929142
H   H39       1.0  0.80200  0.15200  0.74350  1.0000 0.1885929142
H   H40       1.0  0.15200  0.80200  0.75650  1.0000 0.1885929142
C   C1        1.0  0.37806  0.65970  0.44923  1.0000 -0.0024990762
C   C2        1.0  0.65970  0.37806  0.05077  1.0000 -0.0024990762
C   C3        1.0  0.62194  0.34030  0.55077  1.0000 -0.0024990762
C   C4        1.0  0.34030  0.62194  0.94923  1.0000 -0.0024990762
C   C5        1.0  0.29940  0.57652  0.42163  1.0000 -0.0262202809
C   C6        1.0  0.57652  0.29940  0.07837  1.0000 -0.0262202809
C   C7        1.0  0.70060  0.42348  0.57837  1.0000 -0.0262202809
C   C8        1.0  0.42348  0.70060  0.92163  1.0000 -0.0262202809
C   C9        1.0  0.26758  0.48472  0.48760  1.0000 -0.1202148425
C   C10       1.0  0.48472  0.26758  0.01240  1.0000 -0.1202148425
C   C11       1.0  0.73242  0.51528  0.51240  1.0000 -0.1202148425
C   C12       1.0  0.51528  0.73242  0.98760  1.0000 -0.1202148425
C   C13       1.0  0.31452  0.48010  0.57852  1.0000 -0.1551103892
C   C14       1.0  0.48010  0.31452  0.92148  1.0000 -0.1551103892
C   C15       1.0  0.68548  0.51990  0.42148  1.0000 -0.1546894612
C   C16       1.0  0.51990  0.68548  0.07852  1.0000 -0.1551103892
C   C17       1.0  0.39157  0.56641  0.60001  1.0000 0.0348684823
C   C18       1.0  0.56641  0.39157  0.89999  1.0000 0.0348684823
C   C19       1.0  0.60843  0.43359  0.39999  1.0000 0.0348684823
C   C20       1.0  0.43359  0.60843  0.10001  1.0000 0.0348684823
C   C21       1.0  0.25474  0.57658  0.32587  1.0000 0.1612569427
C   C22       1.0  0.57658  0.25474  0.17413  1.0000 0.1612569427
C   C23       1.0  0.74526  0.42342  0.67413  1.0000 0.1612569427
C   C24       1.0  0.42342  0.74526  0.82587  1.0000 0.1612569427
C   C25       1.0  0.15601  0.63377  0.17816  1.0000 0.1668507417
C   C26       1.0  0.63377  0.15601  0.32184  1.0000 0.1668507417
C   C27       1.0  0.84399  0.36623  0.82184  1.0000 0.1668507417
C   C28       1.0  0.36623  0.84399  0.67816  1.0000 0.1668507417
C   C29       1.0  0.97608  0.64674  0.04223  1.0000 -0.0024990762
C   C30       1.0  0.64674  0.97608  0.45777  1.0000 -0.0108407199
C   C31       1.0  0.02392  0.35326  0.95777  1.0000 -0.0024990762
C   C32       1.0  0.35326  0.02392  0.54223  1.0000 -0.0024990762
C   C33       1.0  0.07239  0.70569  0.08262  1.0000 -0.0108407199
C   C34       1.0  0.70569  0.07239  0.41738  1.0000 -0.0108407199
C   C35       1.0  0.92761  0.29431  0.91738  1.0000 -0.0108407199
C   C36       1.0  0.29431  0.92761  0.58262  1.0000 -0.0108407199
C   C37       1.0  0.08831  0.82457  0.02970  1.0000 -0.1005825515
C   C38       1.0  0.82457  0.08831  0.47030  1.0000 -0.1005825515
C   C39       1.0  0.91169  0.17543  0.97030  1.0000 -0.1005825515
C   C40       1.0  0.17543  0.91169  0.52970  1.0000 -0.1005825515
C   C41       1.0  0.00592  0.87970  0.93852  1.0000 -0.1707308444
C   C42       1.0  0.87970  0.00592  0.56148  1.0000 -0.1707308444
C   C43       1.0  0.99408  0.12030  0.06148  1.0000 -0.1707308444
C   C44       1.0  0.12030  0.99408  0.43852  1.0000 -0.1707308444
C   C45       1.0  0.91114  0.81618  0.90380  1.0000 0.0199597438
C   C46       1.0  0.81618  0.91114  0.59620  1.0000 0.0199597438
C   C47       1.0  0.08886  0.18382  0.09620  1.0000 0.0199597438
C   C48       1.0  0.18382  0.08886  0.40380  1.0000 0.0199597438
N   N1        1.0  0.42442  0.65446  0.53751  1.0000 -0.2124008371
N   N2        1.0  0.65446  0.42442  0.96249  1.0000 -0.2124008371
N   N3        1.0  0.57558  0.34554  0.46249  1.0000 -0.2124008371
N   N4        1.0  0.34554  0.57558  0.03751  1.0000 -0.2124008371
N   N5        1.0  0.27482  0.47058  0.30235  1.0000 -0.2124008371
N   N6        1.0  0.47058  0.27482  0.19765  1.0000 -0.2124008371
N   N7        1.0  0.72518  0.52942  0.69765  1.0000 -0.2124008371
N   N8        1.0  0.52942  0.72518  0.80235  1.0000 -0.2124008371
N   N9        1.0  0.21217  0.50689  0.20819  1.0000 -0.2176384928
N   N10       1.0  0.50689  0.21217  0.29181  1.0000 -0.2176384928
N   N11       1.0  0.78783  0.49311  0.79181  1.0000 -0.2176384928
N   N12       1.0  0.49311  0.78783  0.70819  1.0000 -0.2176384928
N   N13       1.0  0.18197  0.68223  0.24955  1.0000 0.0433223348
N   N14       1.0  0.68223  0.18197  0.25045  1.0000 0.0433223348
N   N15       1.0  0.81803  0.31777  0.75045  1.0000 0.0433223348
N   N16       1.0  0.31777  0.81803  0.74955  1.0000 0.0433223348
N   N17       1.0  0.13344  0.81376  0.24210  1.0000 -0.4891552406
N   N18       1.0  0.81376  0.13344  0.25790  1.0000 -0.4891552406
N   N19       1.0  0.86656  0.18624  0.75790  1.0000 -0.4891552406
N   N20       1.0  0.18624  0.86656  0.74210  1.0000 -0.4891552406
N   N21       1.0  0.89617  0.70081  0.95436  1.0000 -0.1892435255
N   N22       1.0  0.70081  0.89617  0.54564  1.0000 -0.1892435255
N   N23       1.0  0.10383  0.29919  0.04564  1.0000 -0.1892435255
N   N24       1.0  0.29919  0.10383  0.45436  1.0000 -0.1892435255
