# DDEC6 charges by PACMAN v1.1 (https://github.com/mtap-research/PACMAN-charge/)
data_2006[Co][sod]3[FSR]1
_chemical_formula_sum              "Co6 H60 C84 N24"
_cell_length_a       14.2486
_cell_length_b       14.2486
_cell_length_c       14.2486
_cell_angle_alpha    107.244
_cell_angle_beta     107.244
_cell_angle_gamma    107.244

_symmetry_space_group_name_H-M    "P 1"
_symmetry_Int_Tables_number       1

loop_
  _symmetry_equiv_pos_as_xyz
  'x, y, z'

loop_
  _atom_site_type_symbol
  _atom_site_label
  _atom_site_symmetry_multiplicity
  _atom_site_fract_x
  _atom_site_fract_y
  _atom_site_fract_z
  _atom_site_occupancy
  _atom_site_charge
Co  Co1       1.0  0.01196  0.73960  0.27069  1.0000 0.6580641078
Co  Co2       1.0  0.73960  0.27069  0.01196  1.0000 0.6580641078
Co  Co3       1.0  0.27069  0.01196  0.73960  1.0000 0.6580641078
Co  Co4       1.0  0.98804  0.26040  0.72931  1.0000 0.6580641078
Co  Co5       1.0  0.26040  0.72931  0.98804  1.0000 0.6580641078
Co  Co6       1.0  0.72931  0.98804  0.26040  1.0000 0.6580641078
H   H1        1.0  0.90908  0.50472  0.10040  1.0000 0.0978954119
H   H2        1.0  0.50472  0.10040  0.90908  1.0000 0.0978954119
H   H3        1.0  0.10040  0.90908  0.50472  1.0000 0.0978954119
H   H4        1.0  0.09092  0.49528  0.89960  1.0000 0.0978954119
H   H5        1.0  0.49528  0.89960  0.09092  1.0000 0.0978954119
H   H6        1.0  0.89960  0.09092  0.49528  1.0000 0.0978954119
H   H7        1.0  0.86910  0.69240  0.41320  1.0000 0.1265158918
H   H8        1.0  0.69240  0.41320  0.86910  1.0000 0.1265158918
H   H9        1.0  0.41320  0.86910  0.69240  1.0000 0.1265158918
H   H10       1.0  0.13090  0.30760  0.58680  1.0000 0.1265158918
H   H11       1.0  0.30760  0.58680  0.13090  1.0000 0.1265158918
H   H12       1.0  0.58680  0.13090  0.30760  1.0000 0.1265158918
H   H13       1.0  0.73740  0.59810  0.45500  1.0000 0.108949708
H   H14       1.0  0.59810  0.45500  0.73740  1.0000 0.108949708
H   H15       1.0  0.45500  0.73740  0.59810  1.0000 0.108949708
H   H16       1.0  0.26260  0.40190  0.54500  1.0000 0.108949708
H   H17       1.0  0.40190  0.54500  0.26260  1.0000 0.108949708
H   H18       1.0  0.54500  0.26260  0.40190  1.0000 0.108949708
H   H19       1.0  0.21100  0.75370  0.19870  1.0000 0.0978954119
H   H20       1.0  0.75370  0.19870  0.21100  1.0000 0.0978954119
H   H21       1.0  0.19870  0.21100  0.75370  1.0000 0.0978954119
H   H22       1.0  0.78900  0.24630  0.80130  1.0000 0.0978954119
H   H23       1.0  0.24630  0.80130  0.78900  1.0000 0.0978954119
H   H24       1.0  0.80130  0.78900  0.24630  1.0000 0.0978954119
H   H25       1.0  0.83510  0.66920  0.04440  1.0000 0.1265158918
H   H26       1.0  0.66920  0.04440  0.83510  1.0000 0.1265158918
H   H27       1.0  0.04440  0.83510  0.66920  1.0000 0.1265158918
H   H28       1.0  0.16490  0.33080  0.95560  1.0000 0.1265158918
H   H29       1.0  0.33080  0.95560  0.16490  1.0000 0.1265158918
H   H30       1.0  0.95560  0.16490  0.33080  1.0000 0.1265158918
H   H31       1.0  0.74800  0.62650  0.86220  1.0000 0.108949708
H   H32       1.0  0.62650  0.86220  0.74800  1.0000 0.108949708
H   H33       1.0  0.86220  0.74800  0.62650  1.0000 0.108949708
H   H34       1.0  0.25200  0.37350  0.13780  1.0000 0.108949708
H   H35       1.0  0.37350  0.13780  0.25200  1.0000 0.108949708
H   H36       1.0  0.13780  0.25200  0.37350  1.0000 0.108949708
H   H37       1.0  0.02210  0.65710  0.82240  1.0000 0.1265158918
H   H38       1.0  0.65710  0.82240  0.02210  1.0000 0.1265158918
H   H39       1.0  0.82240  0.02210  0.65710  1.0000 0.1265158918
H   H40       1.0  0.97790  0.34290  0.17760  1.0000 0.1265158918
H   H41       1.0  0.34290  0.17760  0.97790  1.0000 0.1265158918
H   H42       1.0  0.17760  0.97790  0.34290  1.0000 0.1265158918
H   H43       1.0  0.83910  0.61550  0.75300  1.0000 0.108949708
H   H44       1.0  0.61550  0.75300  0.83910  1.0000 0.108949708
H   H45       1.0  0.75300  0.83910  0.61550  1.0000 0.108949708
H   H46       1.0  0.16090  0.38450  0.24700  1.0000 0.108949708
H   H47       1.0  0.38450  0.24700  0.16090  1.0000 0.108949708
H   H48       1.0  0.24700  0.16090  0.38450  1.0000 0.108949708
H   H49       1.0  0.64830  0.32060  0.20450  1.0000 0.1265158918
H   H50       1.0  0.32060  0.20450  0.64830  1.0000 0.1265158918
H   H51       1.0  0.20450  0.64830  0.32060  1.0000 0.1265158918
H   H52       1.0  0.35170  0.67940  0.79550  1.0000 0.1265158918
H   H53       1.0  0.67940  0.79550  0.35170  1.0000 0.1265158918
H   H54       1.0  0.79550  0.35170  0.67940  1.0000 0.1265158918
H   H55       1.0  0.63150  0.41640  0.35650  1.0000 0.108949708
H   H56       1.0  0.41640  0.35650  0.63150  1.0000 0.108949708
H   H57       1.0  0.35650  0.63150  0.41640  1.0000 0.108949708
H   H58       1.0  0.36850  0.58360  0.64350  1.0000 0.108949708
H   H59       1.0  0.58360  0.64350  0.36850  1.0000 0.108949708
H   H60       1.0  0.64350  0.36850  0.58360  1.0000 0.108949708
C   C1        1.0  0.87500  0.50500  0.14680  1.0000 0.1706576367
C   C2        1.0  0.50500  0.14680  0.87500  1.0000 0.1706576367
C   C3        1.0  0.14680  0.87500  0.50500  1.0000 0.1706576367
C   C4        1.0  0.12500  0.49500  0.85320  1.0000 0.1706576367
C   C5        1.0  0.49500  0.85320  0.12500  1.0000 0.1706576367
C   C6        1.0  0.85320  0.12500  0.49500  1.0000 0.1706576367
C   C7        1.0  0.83230  0.56010  0.27780  1.0000 0.1383371386
C   C8        1.0  0.56010  0.27780  0.83230  1.0000 0.1383371386
C   C9        1.0  0.27780  0.83230  0.56010  1.0000 0.1383371386
C   C10       1.0  0.16770  0.43990  0.72220  1.0000 0.1383371386
C   C11       1.0  0.43990  0.72220  0.16770  1.0000 0.1383371386
C   C12       1.0  0.72220  0.16770  0.43990  1.0000 0.1383371386
C   C13       1.0  0.82440  0.61900  0.37080  1.0000 -0.1817208082
C   C14       1.0  0.61900  0.37080  0.82440  1.0000 -0.1817208082
C   C15       1.0  0.37080  0.82440  0.61900  1.0000 -0.1817208082
C   C16       1.0  0.17560  0.38100  0.62920  1.0000 -0.1817208082
C   C17       1.0  0.38100  0.62920  0.17560  1.0000 -0.1817208082
C   C18       1.0  0.62920  0.17560  0.38100  1.0000 -0.1817208082
C   C19       1.0  0.74690  0.56150  0.39510  1.0000 -0.1200777322
C   C20       1.0  0.56150  0.39510  0.74690  1.0000 -0.1200777322
C   C21       1.0  0.39510  0.74690  0.56150  1.0000 -0.1200777322
C   C22       1.0  0.25310  0.43850  0.60490  1.0000 -0.1200777322
C   C23       1.0  0.43850  0.60490  0.25310  1.0000 -0.1200777322
C   C24       1.0  0.60490  0.25310  0.43850  1.0000 -0.1200777322
C   C25       1.0  0.14740  0.73200  0.13880  1.0000 0.1706576367
C   C26       1.0  0.73200  0.13880  0.14740  1.0000 0.1706576367
C   C27       1.0  0.13880  0.14740  0.73200  1.0000 0.1706576367
C   C28       1.0  0.85260  0.26800  0.86120  1.0000 0.1706576367
C   C29       1.0  0.26800  0.86120  0.85260  1.0000 0.1706576367
C   C30       1.0  0.86120  0.85260  0.26800  1.0000 0.1706576367
C   C31       1.0  0.98120  0.68990  0.04200  1.0000 0.1265158918
C   C32       1.0  0.68990  0.04200  0.98120  1.0000 0.1265158918
C   C33       1.0  0.04200  0.98120  0.68990  1.0000 0.1265158918
C   C34       1.0  0.01880  0.31010  0.95800  1.0000 0.1265158918
C   C35       1.0  0.31010  0.95800  0.01880  1.0000 0.1265158918
C   C36       1.0  0.95800  0.01880  0.31010  1.0000 0.1265158918
C   C37       1.0  0.87240  0.66700  0.00060  1.0000 -0.1817208082
C   C38       1.0  0.66700  0.00060  0.87240  1.0000 -0.1817208082
C   C39       1.0  0.00060  0.87240  0.66700  1.0000 -0.1817208082
C   C40       1.0  0.12760  0.33300  0.99940  1.0000 -0.1817208082
C   C41       1.0  0.33300  0.99940  0.12760  1.0000 -0.1817208082
C   C42       1.0  0.99940  0.12760  0.33300  1.0000 -0.1817208082
C   C43       1.0  0.82110  0.64090  0.89230  1.0000 -0.1200777322
C   C44       1.0  0.64090  0.89230  0.82110  1.0000 -0.1200777322
C   C45       1.0  0.89230  0.82110  0.64090  1.0000 -0.1200777322
C   C46       1.0  0.17890  0.35910  0.10770  1.0000 -0.1200777322
C   C47       1.0  0.35910  0.10770  0.17890  1.0000 -0.1200777322
C   C48       1.0  0.10770  0.17890  0.35910  1.0000 -0.1200777322
C   C49       1.0  0.03710  0.68520  0.97610  1.0000 0.1265158918
C   C50       1.0  0.68520  0.97610  0.03710  1.0000 0.1265158918
C   C51       1.0  0.97610  0.03710  0.68520  1.0000 0.1265158918
C   C52       1.0  0.96290  0.31480  0.02390  1.0000 0.1265158918
C   C53       1.0  0.31480  0.02390  0.96290  1.0000 0.1265158918
C   C54       1.0  0.02390  0.96290  0.31480  1.0000 0.1265158918
C   C55       1.0  0.98530  0.65890  0.86640  1.0000 -0.1817208082
C   C56       1.0  0.65890  0.86640  0.98530  1.0000 -0.1817208082
C   C57       1.0  0.86640  0.98530  0.65890  1.0000 -0.1817208082
C   C58       1.0  0.01470  0.34110  0.13360  1.0000 -0.1817208082
C   C59       1.0  0.34110  0.13360  0.01470  1.0000 -0.1817208082
C   C60       1.0  0.13360  0.01470  0.34110  1.0000 -0.1817208082
C   C61       1.0  0.87670  0.63550  0.82650  1.0000 -0.1200777322
C   C62       1.0  0.63550  0.82650  0.87670  1.0000 -0.1200777322
C   C63       1.0  0.82650  0.87670  0.63550  1.0000 -0.1200777322
C   C64       1.0  0.12330  0.36450  0.17350  1.0000 -0.1200777322
C   C65       1.0  0.36450  0.17350  0.12330  1.0000 -0.1200777322
C   C66       1.0  0.17350  0.12330  0.36450  1.0000 -0.1200777322
C   C67       1.0  0.76910  0.44940  0.21770  1.0000 0.1383371386
C   C68       1.0  0.44940  0.21770  0.76910  1.0000 0.1383371386
C   C69       1.0  0.21770  0.76910  0.44940  1.0000 0.1383371386
C   C70       1.0  0.23090  0.55060  0.78230  1.0000 0.1383371386
C   C71       1.0  0.55060  0.78230  0.23090  1.0000 0.1383371386
C   C72       1.0  0.78230  0.23090  0.55060  1.0000 0.1383371386
C   C73       1.0  0.69210  0.39430  0.24540  1.0000 -0.1888794842
C   C74       1.0  0.39430  0.24540  0.69210  1.0000 -0.1888794842
C   C75       1.0  0.24540  0.69210  0.39430  1.0000 -0.1888794842
C   C76       1.0  0.30790  0.60570  0.75460  1.0000 -0.1888794842
C   C77       1.0  0.60570  0.75460  0.30790  1.0000 -0.1888794842
C   C78       1.0  0.75460  0.30790  0.60570  1.0000 -0.1888794842
C   C79       1.0  0.68210  0.45160  0.33550  1.0000 -0.1131612117
C   C80       1.0  0.45160  0.33550  0.68210  1.0000 -0.1131612117
C   C81       1.0  0.33550  0.68210  0.45160  1.0000 -0.1131612117
C   C82       1.0  0.31790  0.54840  0.66450  1.0000 -0.1131612117
C   C83       1.0  0.54840  0.66450  0.31790  1.0000 -0.1131612117
C   C84       1.0  0.66450  0.31790  0.54840  1.0000 -0.1131612117
N   N1        1.0  0.90130  0.59530  0.23150  1.0000 -0.3675369447
N   N2        1.0  0.59530  0.23150  0.90130  1.0000 -0.3675369447
N   N3        1.0  0.23150  0.90130  0.59530  1.0000 -0.3675369447
N   N4        1.0  0.09870  0.40470  0.76850  1.0000 -0.3675369447
N   N5        1.0  0.40470  0.76850  0.09870  1.0000 -0.3675369447
N   N6        1.0  0.76850  0.09870  0.40470  1.0000 -0.3675369447
N   N7        1.0  0.05360  0.71870  0.14660  1.0000 -0.3631987723
N   N8        1.0  0.71870  0.14660  0.05360  1.0000 -0.3631987723
N   N9        1.0  0.14660  0.05360  0.71870  1.0000 -0.3631987723
N   N10       1.0  0.94640  0.28130  0.85340  1.0000 -0.3631987723
N   N11       1.0  0.28130  0.85340  0.94640  1.0000 -0.3631987723
N   N12       1.0  0.85340  0.94640  0.28130  1.0000 -0.3631987723
N   N13       1.0  0.14530  0.71280  0.04160  1.0000 -0.3631987723
N   N14       1.0  0.71280  0.04160  0.14530  1.0000 -0.3631987723
N   N15       1.0  0.04160  0.14530  0.71280  1.0000 -0.3631987723
N   N16       1.0  0.85470  0.28720  0.95840  1.0000 -0.3631987723
N   N17       1.0  0.28720  0.95840  0.85470  1.0000 -0.3631987723
N   N18       1.0  0.95840  0.85470  0.28720  1.0000 -0.3631987723
N   N19       1.0  0.79700  0.41530  0.13240  1.0000 -0.3631987723
N   N20       1.0  0.41530  0.13240  0.79700  1.0000 -0.3675369447
N   N21       1.0  0.13240  0.79700  0.41530  1.0000 -0.3631987723
N   N22       1.0  0.20300  0.58470  0.86760  1.0000 -0.3675369447
N   N23       1.0  0.58470  0.86760  0.20300  1.0000 -0.3631987723
N   N24       1.0  0.86760  0.20300  0.58470  1.0000 -0.3675369447
