# DDEC6 charges by PACMAN v1.1 (https://github.com/mtap-research/PACMAN-charge/)
data_2007[Zn][ths]3[FSR]3
_chemical_formula_sum              "Zn12 H96 C144 I24 N48"
_cell_length_a       19.4518
_cell_length_b       19.4518
_cell_length_c       30.8
_cell_angle_alpha    78.0542
_cell_angle_beta     101.946
_cell_angle_gamma    135.136

_symmetry_space_group_name_H-M    "P 1"
_symmetry_Int_Tables_number       1

loop_
  _symmetry_equiv_pos_as_xyz
  'x, y, z'

loop_
  _atom_site_type_symbol
  _atom_site_label
  _atom_site_symmetry_multiplicity
  _atom_site_fract_x
  _atom_site_fract_y
  _atom_site_fract_z
  _atom_site_occupancy
  _atom_site_charge
Zn  Zn1       1.0  0.03907  0.20963  0.90708  1.0000 0.4621701071
Zn  Zn2       1.0  0.79037  0.96093  0.40708  1.0000 0.4621701071
Zn  Zn3       1.0  0.18539  0.53169  0.72638  1.0000 0.4427985528
Zn  Zn4       1.0  0.46831  0.81461  0.22638  1.0000 0.4427985528
Zn  Zn5       1.0  0.71187  0.47189  0.56572  1.0000 0.4621701071
Zn  Zn6       1.0  0.52811  0.28813  0.06572  1.0000 0.4621701071
Zn  Zn7       1.0  0.20963  0.03907  0.59292  1.0000 0.4621701071
Zn  Zn8       1.0  0.96093  0.79037  0.09292  1.0000 0.4621701071
Zn  Zn9       1.0  0.53169  0.18539  0.77362  1.0000 0.4427985528
Zn  Zn10      1.0  0.81461  0.46831  0.27362  1.0000 0.4427985528
Zn  Zn11      1.0  0.47189  0.71187  0.93428  1.0000 0.4621701071
Zn  Zn12      1.0  0.28813  0.52811  0.43428  1.0000 0.4621701071
H   H1        1.0  0.56010  0.25650  0.58400  1.0000 0.1083527867
H   H2        1.0  0.74350  0.43990  0.08400  1.0000 0.1083527867
H   H3        1.0  0.53490  0.12970  0.62800  1.0000 0.1393225781
H   H4        1.0  0.87030  0.46510  0.12800  1.0000 0.1393225781
H   H5        1.0  0.80000  0.33180  0.69250  1.0000 0.1293914956
H   H6        1.0  0.66820  0.20000  0.19250  1.0000 0.1293914956
H   H7        1.0  0.81670  0.45250  0.64650  1.0000 0.10308253
H   H8        1.0  0.54750  0.18330  0.14650  1.0000 0.10308253
H   H9        1.0  0.53200  0.83220  0.76520  1.0000 0.1393225781
H   H10       1.0  0.16780  0.46800  0.26520  1.0000 0.1393225781
H   H11       1.0  0.38750  0.66770  0.76710  1.0000 0.10308253
H   H12       1.0  0.33230  0.61250  0.26710  1.0000 0.10308253
H   H13       1.0  0.25270  0.72230  0.67790  1.0000 0.1083527867
H   H14       1.0  0.27770  0.74730  0.17790  1.0000 0.1083527867
H   H15       1.0  0.39280  0.88780  0.67240  1.0000 0.1393225781
H   H16       1.0  0.11220  0.60720  0.17240  1.0000 0.1393225781
H   H17       1.0  0.88380  0.27880  0.77690  1.0000 0.1293914956
H   H18       1.0  0.72120  0.11620  0.27690  1.0000 0.1293914956
H   H19       1.0  0.00070  0.31710  0.83540  1.0000 0.1083527867
H   H20       1.0  0.68290  0.99930  0.33540  1.0000 0.1083527867
H   H21       1.0  0.85260  0.03920  0.86700  1.0000 0.10308253
H   H22       1.0  0.96080  0.14740  0.36700  1.0000 0.10308253
H   H23       1.0  0.73030  0.99350  0.81240  1.0000 0.1293914956
H   H24       1.0  0.00650  0.26970  0.31240  1.0000 0.1293914956
H   H25       1.0  0.96930  0.01090  0.94220  1.0000 0.10308253
H   H26       1.0  0.98910  0.03070  0.44220  1.0000 0.10308253
H   H27       1.0  0.85000  0.87100  0.98540  1.0000 0.1393225781
H   H28       1.0  0.12900  0.15000  0.48540  1.0000 0.1393225781
H   H29       1.0  0.77920  0.00960  0.01140  1.0000 0.1393225781
H   H30       1.0  0.99040  0.22080  0.51140  1.0000 0.1393225781
H   H31       1.0  0.89590  0.14250  0.96560  1.0000 0.1083527867
H   H32       1.0  0.85750  0.10410  0.46560  1.0000 0.1083527867
H   H33       1.0  0.66060  0.61720  0.99880  1.0000 0.1393225781
H   H34       1.0  0.38280  0.33940  0.49880  1.0000 0.1393225781
H   H35       1.0  0.62120  0.47280  0.00370  1.0000 0.1083527867
H   H36       1.0  0.52720  0.37880  0.50370  1.0000 0.1083527867
H   H37       1.0  0.51400  0.38680  0.11760  1.0000 0.10308253
H   H38       1.0  0.61320  0.48600  0.61760  1.0000 0.10308253
H   H39       1.0  0.55440  0.53120  0.11760  1.0000 0.1393225781
H   H40       1.0  0.46880  0.44560  0.61760  1.0000 0.1393225781
H   H41       1.0  0.65640  0.92120  0.09940  1.0000 0.1393225781
H   H42       1.0  0.07880  0.34360  0.59940  1.0000 0.1393225781
H   H43       1.0  0.59090  0.93190  0.14740  1.0000 0.1083527867
H   H44       1.0  0.06810  0.40910  0.64740  1.0000 0.1083527867
H   H45       1.0  0.44220  0.66260  0.19360  1.0000 0.10308253
H   H46       1.0  0.33740  0.55780  0.69360  1.0000 0.10308253
H   H47       1.0  0.50810  0.64550  0.14830  1.0000 0.1393225781
H   H48       1.0  0.35450  0.49190  0.64830  1.0000 0.1393225781
H   H49       1.0  0.25650  0.56010  0.91600  1.0000 0.1083527867
H   H50       1.0  0.43990  0.74350  0.41600  1.0000 0.1083527867
H   H51       1.0  0.12970  0.53490  0.87200  1.0000 0.1393225781
H   H52       1.0  0.46510  0.87030  0.37200  1.0000 0.1393225781
H   H53       1.0  0.33180  0.80000  0.80750  1.0000 0.1293914956
H   H54       1.0  0.20000  0.66820  0.30750  1.0000 0.1293914956
H   H55       1.0  0.45250  0.81670  0.85350  1.0000 0.10308253
H   H56       1.0  0.18330  0.54750  0.35350  1.0000 0.10308253
H   H57       1.0  0.83220  0.53200  0.73480  1.0000 0.1393225781
H   H58       1.0  0.46800  0.16780  0.23480  1.0000 0.1393225781
H   H59       1.0  0.66770  0.38750  0.73290  1.0000 0.10308253
H   H60       1.0  0.61250  0.33230  0.23290  1.0000 0.10308253
H   H61       1.0  0.72230  0.25270  0.82210  1.0000 0.1083527867
H   H62       1.0  0.74730  0.27770  0.32210  1.0000 0.1083527867
H   H63       1.0  0.88780  0.39280  0.82760  1.0000 0.1393225781
H   H64       1.0  0.60720  0.11220  0.32760  1.0000 0.1393225781
H   H65       1.0  0.27880  0.88380  0.72310  1.0000 0.1293914956
H   H66       1.0  0.11620  0.72120  0.22310  1.0000 0.1293914956
H   H67       1.0  0.31710  0.00070  0.66460  1.0000 0.1083527867
H   H68       1.0  0.99930  0.68290  0.16460  1.0000 0.1083527867
H   H69       1.0  0.03920  0.85260  0.63300  1.0000 0.10308253
H   H70       1.0  0.14740  0.96080  0.13300  1.0000 0.10308253
H   H71       1.0  0.99350  0.73030  0.68760  1.0000 0.1293914956
H   H72       1.0  0.26970  0.00650  0.18760  1.0000 0.1293914956
H   H73       1.0  0.01090  0.96930  0.55780  1.0000 0.10308253
H   H74       1.0  0.03070  0.98910  0.05780  1.0000 0.10308253
H   H75       1.0  0.87100  0.85000  0.51460  1.0000 0.1393225781
H   H76       1.0  0.15000  0.12900  0.01460  1.0000 0.1393225781
H   H77       1.0  0.00960  0.77920  0.48860  1.0000 0.1393225781
H   H78       1.0  0.22080  0.99040  0.98860  1.0000 0.1393225781
H   H79       1.0  0.14250  0.89590  0.53440  1.0000 0.1083527867
H   H80       1.0  0.10410  0.85750  0.03440  1.0000 0.1083527867
H   H81       1.0  0.61720  0.66060  0.50120  1.0000 0.1393225781
H   H82       1.0  0.33940  0.38280  0.00120  1.0000 0.1393225781
H   H83       1.0  0.47280  0.62120  0.49630  1.0000 0.1083527867
H   H84       1.0  0.37880  0.52720  0.99630  1.0000 0.1083527867
H   H85       1.0  0.38680  0.51400  0.38240  1.0000 0.10308253
H   H86       1.0  0.48600  0.61320  0.88240  1.0000 0.10308253
H   H87       1.0  0.53120  0.55440  0.38240  1.0000 0.1393225781
H   H88       1.0  0.44560  0.46880  0.88240  1.0000 0.1393225781
H   H89       1.0  0.92120  0.65640  0.40060  1.0000 0.1393225781
H   H90       1.0  0.34360  0.07880  0.90060  1.0000 0.1393225781
H   H91       1.0  0.93190  0.59090  0.35260  1.0000 0.1083527867
H   H92       1.0  0.40910  0.06810  0.85260  1.0000 0.1083527867
H   H93       1.0  0.66260  0.44220  0.30640  1.0000 0.10308253
H   H94       1.0  0.55780  0.33740  0.80640  1.0000 0.10308253
H   H95       1.0  0.64550  0.50810  0.35170  1.0000 0.1393225781
H   H96       1.0  0.49190  0.35450  0.85170  1.0000 0.1393225781
C   C1        1.0  0.61011  0.27189  0.60620  1.0000 0.0924658457
C   C2        1.0  0.72811  0.38989  0.10620  1.0000 0.0924658457
C   C3        1.0  0.59398  0.19562  0.63240  1.0000 -0.1394319577
C   C4        1.0  0.80438  0.40602  0.13240  1.0000 -0.1394319577
C   C5        1.0  0.66529  0.21731  0.66495  1.0000 0.0546799505
C   C6        1.0  0.78269  0.33471  0.16495  1.0000 0.0546799505
C   C7        1.0  0.74941  0.31439  0.67010  1.0000 -0.1493354901
C   C8        1.0  0.68561  0.25059  0.17010  1.0000 -0.1493354901
C   C9        1.0  0.75912  0.38588  0.64240  1.0000 0.0801154298
C   C10       1.0  0.61412  0.24088  0.14240  1.0000 0.0801154298
C   C11       1.0  0.65318  0.14062  0.69556  1.0000 0.3615426997
C   C12       1.0  0.85938  0.34682  0.19556  1.0000 0.3615426997
C   C13       1.0  0.56832  0.98408  0.71909  1.0000 0.3536221066
C   C14       1.0  0.01592  0.43168  0.21909  1.0000 0.3536221066
C   C15       1.0  0.71528  0.10172  0.75285  1.0000 0.3689017275
C   C16       1.0  0.89828  0.28472  0.25285  1.0000 0.3689017275
C   C17       1.0  0.47793  0.87847  0.71850  1.0000 0.0720827748
C   C18       1.0  0.12153  0.52207  0.21850  1.0000 0.0720827748
C   C19       1.0  0.47541  0.81139  0.74670  1.0000 -0.1493354901
C   C20       1.0  0.18861  0.52459  0.24670  1.0000 -0.1493354901
C   C21       1.0  0.38889  0.71331  0.74750  1.0000 0.0801154298
C   C22       1.0  0.28669  0.61111  0.24750  1.0000 0.0801154298
C   C23       1.0  0.31074  0.74526  0.69560  1.0000 0.0720827748
C   C24       1.0  0.25474  0.68926  0.19560  1.0000 0.0720827748
C   C25       1.0  0.39362  0.84398  0.69230  1.0000 -0.1572557522
C   C26       1.0  0.15602  0.60638  0.19230  1.0000 -0.1572557522
C   C27       1.0  0.79380  0.13140  0.78910  1.0000 0.0597335681
C   C28       1.0  0.86860  0.20620  0.28910  1.0000 0.0597335681
C   C29       1.0  0.87531  0.22829  0.79570  1.0000 -0.1493354901
C   C30       1.0  0.77171  0.12469  0.29570  1.0000 -0.1493354901
C   C31       1.0  0.94476  0.25044  0.83040  1.0000 0.0801154298
C   C32       1.0  0.74956  0.05524  0.33040  1.0000 0.0801154298
C   C33       1.0  0.85787  0.08853  0.84890  1.0000 0.0801154298
C   C34       1.0  0.91147  0.14213  0.34890  1.0000 0.0801154298
C   C35       1.0  0.78580  0.06080  0.81630  1.0000 -0.1394319577
C   C36       1.0  0.93920  0.21420  0.31630  1.0000 -0.1394319577
C   C37       1.0  0.92910  0.00970  0.95600  1.0000 0.0720827748
C   C38       1.0  0.99030  0.07090  0.45600  1.0000 0.0720827748
C   C39       1.0  0.85901  0.92659  0.98216  1.0000 -0.1493354901
C   C40       1.0  0.07341  0.14099  0.48216  1.0000 -0.1493354901
C   C41       1.0  0.80222  0.92558  0.00365  1.0000 0.0720827748
C   C42       1.0  0.07442  0.19778  0.50365  1.0000 0.0720827748
C   C43       1.0  0.81689  0.00791  0.99720  1.0000 -0.1394319577
C   C44       1.0  0.99209  0.18311  0.49720  1.0000 -0.1394319577
C   C45       1.0  0.88664  0.08676  0.97010  1.0000 0.0720827748
C   C46       1.0  0.91324  0.11336  0.47010  1.0000 0.0720827748
C   C47       1.0  0.72832  0.83948  0.03260  1.0000 0.3615426997
C   C48       1.0  0.16052  0.27168  0.53260  1.0000 0.3615426997
C   C49       1.0  0.63799  0.68221  0.05753  1.0000 0.3615426997
C   C50       1.0  0.31779  0.36201  0.55753  1.0000 0.3615426997
C   C51       1.0  0.63322  0.77378  0.08790  1.0000 0.3762088099
C   C52       1.0  0.22622  0.36678  0.58790  1.0000 0.3762088099
C   C53       1.0  0.61168  0.58992  0.05788  1.0000 0.0546799505
C   C54       1.0  0.41008  0.38832  0.55788  1.0000 0.0597335681
C   C55       1.0  0.63101  0.57119  0.02400  1.0000 -0.1394319577
C   C56       1.0  0.42881  0.36899  0.52400  1.0000 -0.1394319577
C   C57       1.0  0.60686  0.48474  0.02730  1.0000 0.0720827748
C   C58       1.0  0.51526  0.39314  0.52730  1.0000 0.0720827748
C   C59       1.0  0.54550  0.43510  0.09320  1.0000 0.0801154298
C   C60       1.0  0.56490  0.45450  0.59320  1.0000 0.0801154298
C   C61       1.0  0.56840  0.52060  0.09330  1.0000 -0.1394319577
C   C62       1.0  0.47940  0.43160  0.59330  1.0000 -0.1394319577
C   C63       1.0  0.59231  0.78329  0.11950  1.0000 0.0720827748
C   C64       1.0  0.21671  0.40769  0.61950  1.0000 0.0801154298
C   C65       1.0  0.61350  0.86650  0.11970  1.0000 -0.1493354901
C   C66       1.0  0.13350  0.38650  0.61970  1.0000 -0.1493354901
C   C67       1.0  0.57440  0.87260  0.14830  1.0000 0.0720827748
C   C68       1.0  0.12740  0.42560  0.64830  1.0000 0.0720827748
C   C69       1.0  0.48990  0.71810  0.17490  1.0000 0.0720827748
C   C70       1.0  0.28190  0.51010  0.67490  1.0000 0.0720827748
C   C71       1.0  0.52730  0.70630  0.14760  1.0000 -0.1493354901
C   C72       1.0  0.29370  0.47270  0.64760  1.0000 -0.1493354901
C   C73       1.0  0.27189  0.61011  0.89380  1.0000 0.0924658457
C   C74       1.0  0.38989  0.72811  0.39380  1.0000 0.0924658457
C   C75       1.0  0.19562  0.59398  0.86760  1.0000 -0.1394319577
C   C76       1.0  0.40602  0.80438  0.36760  1.0000 -0.1394319577
C   C77       1.0  0.21731  0.66529  0.83505  1.0000 0.0597335681
C   C78       1.0  0.33471  0.78269  0.33505  1.0000 0.0597335681
C   C79       1.0  0.31439  0.74941  0.82990  1.0000 -0.1493354901
C   C80       1.0  0.25059  0.68561  0.32990  1.0000 -0.1493354901
C   C81       1.0  0.38588  0.75912  0.85760  1.0000 0.0801154298
C   C82       1.0  0.24088  0.61412  0.35760  1.0000 0.0801154298
C   C83       1.0  0.14062  0.65318  0.80444  1.0000 0.3615426997
C   C84       1.0  0.34682  0.85938  0.30444  1.0000 0.3615426997
C   C85       1.0  0.98408  0.56832  0.78091  1.0000 0.3536221066
C   C86       1.0  0.43168  0.01592  0.28091  1.0000 0.3536221066
C   C87       1.0  0.10172  0.71528  0.74715  1.0000 0.3689017275
C   C88       1.0  0.28472  0.89828  0.24715  1.0000 0.3689017275
C   C89       1.0  0.87847  0.47793  0.78150  1.0000 0.0720827748
C   C90       1.0  0.52207  0.12153  0.28150  1.0000 0.0720827748
C   C91       1.0  0.81139  0.47541  0.75330  1.0000 -0.1493354901
C   C92       1.0  0.52459  0.18861  0.25330  1.0000 -0.1493354901
C   C93       1.0  0.71331  0.38889  0.75250  1.0000 0.0801154298
C   C94       1.0  0.61111  0.28669  0.25250  1.0000 0.0801154298
C   C95       1.0  0.74526  0.31074  0.80440  1.0000 0.0720827748
C   C96       1.0  0.68926  0.25474  0.30440  1.0000 0.0720827748
C   C97       1.0  0.84398  0.39362  0.80770  1.0000 -0.1572557522
C   C98       1.0  0.60638  0.15602  0.30770  1.0000 -0.1572557522
C   C99       1.0  0.13140  0.79380  0.71090  1.0000 0.0597335681
C   C100      1.0  0.20620  0.86860  0.21090  1.0000 0.0597335681
C   C101      1.0  0.22829  0.87531  0.70430  1.0000 -0.1493354901
C   C102      1.0  0.12469  0.77171  0.20430  1.0000 -0.1493354901
C   C103      1.0  0.25044  0.94476  0.66960  1.0000 0.0801154298
C   C104      1.0  0.05524  0.74956  0.16960  1.0000 0.0801154298
C   C105      1.0  0.08853  0.85787  0.65110  1.0000 0.0801154298
C   C106      1.0  0.14213  0.91147  0.15110  1.0000 0.0801154298
C   C107      1.0  0.06080  0.78580  0.68370  1.0000 -0.1394319577
C   C108      1.0  0.21420  0.93920  0.18370  1.0000 -0.1394319577
C   C109      1.0  0.00970  0.92910  0.54400  1.0000 0.0720827748
C   C110      1.0  0.07090  0.99030  0.04400  1.0000 0.0720827748
C   C111      1.0  0.92659  0.85901  0.51784  1.0000 -0.1493354901
C   C112      1.0  0.14099  0.07341  0.01784  1.0000 -0.1493354901
C   C113      1.0  0.92558  0.80222  0.49635  1.0000 0.0720827748
C   C114      1.0  0.19778  0.07442  0.99635  1.0000 0.0720827748
C   C115      1.0  0.00791  0.81689  0.50280  1.0000 -0.1394319577
C   C116      1.0  0.18311  0.99209  0.00280  1.0000 -0.1394319577
C   C117      1.0  0.08676  0.88664  0.52990  1.0000 0.0720827748
C   C118      1.0  0.11336  0.91324  0.02990  1.0000 0.0720827748
C   C119      1.0  0.83948  0.72832  0.46740  1.0000 0.3615426997
C   C120      1.0  0.27168  0.16052  0.96740  1.0000 0.3615426997
C   C121      1.0  0.68221  0.63799  0.44247  1.0000 0.3615426997
C   C122      1.0  0.36201  0.31779  0.94247  1.0000 0.3615426997
C   C123      1.0  0.77378  0.63322  0.41210  1.0000 0.3762088099
C   C124      1.0  0.36678  0.22622  0.91210  1.0000 0.3762088099
C   C125      1.0  0.58992  0.61168  0.44212  1.0000 0.0546799505
C   C126      1.0  0.38832  0.41008  0.94212  1.0000 0.0546799505
C   C127      1.0  0.57119  0.63101  0.47600  1.0000 -0.1394319577
C   C128      1.0  0.36899  0.42881  0.97600  1.0000 -0.1394319577
C   C129      1.0  0.48474  0.60686  0.47270  1.0000 0.0720827748
C   C130      1.0  0.39314  0.51526  0.97270  1.0000 0.0720827748
C   C131      1.0  0.43510  0.54550  0.40680  1.0000 0.0801154298
C   C132      1.0  0.45450  0.56490  0.90680  1.0000 0.0801154298
C   C133      1.0  0.52060  0.56840  0.40670  1.0000 -0.1394319577
C   C134      1.0  0.43160  0.47940  0.90670  1.0000 -0.1394319577
C   C135      1.0  0.78329  0.59231  0.38050  1.0000 0.0720827748
C   C136      1.0  0.40769  0.21671  0.88050  1.0000 0.0720827748
C   C137      1.0  0.86650  0.61350  0.38030  1.0000 -0.1493354901
C   C138      1.0  0.38650  0.13350  0.88030  1.0000 -0.1493354901
C   C139      1.0  0.87260  0.57440  0.35170  1.0000 0.0720827748
C   C140      1.0  0.42560  0.12740  0.85170  1.0000 0.0720827748
C   C141      1.0  0.71810  0.48990  0.32510  1.0000 0.0720827748
C   C142      1.0  0.51010  0.28190  0.82510  1.0000 0.0720827748
C   C143      1.0  0.70630  0.52730  0.35240  1.0000 -0.1493354901
C   C144      1.0  0.47270  0.29370  0.85240  1.0000 -0.1493354901
I   I1        1.0  0.84173  0.63021  0.60282  1.0000 -0.4522336928
I   I2        1.0  0.36979  0.15827  0.10282  1.0000 -0.4522336928
I   I3        1.0  0.03236  0.49900  0.70236  1.0000 -0.4311223311
I   I4        1.0  0.50100  0.96764  0.20236  1.0000 -0.4311223311
I   I5        1.0  0.20995  0.45945  0.79955  1.0000 -0.4311223311
I   I6        1.0  0.54055  0.79005  0.29955  1.0000 -0.4311223311
I   I7        1.0  0.72693  0.44631  0.49213  1.0000 -0.4311223311
I   I8        1.0  0.55369  0.27307  0.99213  1.0000 -0.4311223311
I   I9        1.0  0.11148  0.35302  0.94709  1.0000 -0.4522336928
I   I10       1.0  0.64698  0.88852  0.44709  1.0000 -0.4522336928
I   I11       1.0  0.13191  0.18711  0.87590  1.0000 -0.4311223311
I   I12       1.0  0.81289  0.86809  0.37590  1.0000 -0.4311223311
I   I13       1.0  0.63021  0.84173  0.89718  1.0000 -0.4522336928
I   I14       1.0  0.15827  0.36979  0.39718  1.0000 -0.4522336928
I   I15       1.0  0.49900  0.03236  0.79764  1.0000 -0.4311223311
I   I16       1.0  0.96764  0.50100  0.29764  1.0000 -0.4311223311
I   I17       1.0  0.45945  0.20995  0.70045  1.0000 -0.4311223311
I   I18       1.0  0.79005  0.54055  0.20045  1.0000 -0.4311223311
I   I19       1.0  0.44631  0.72693  0.00787  1.0000 -0.4311223311
I   I20       1.0  0.27307  0.55369  0.50787  1.0000 -0.4311223311
I   I21       1.0  0.35302  0.11148  0.55291  1.0000 -0.4522336928
I   I22       1.0  0.88852  0.64698  0.05291  1.0000 -0.4522336928
I   I23       1.0  0.18711  0.13191  0.62410  1.0000 -0.4311223311
I   I24       1.0  0.86809  0.81289  0.12410  1.0000 -0.4311223311
N   N1        1.0  0.69082  0.36498  0.61018  1.0000 -0.1806214931
N   N2        1.0  0.63502  0.30918  0.11018  1.0000 -0.1806214931
N   N3        1.0  0.72571  0.17169  0.72743  1.0000 -0.3822736373
N   N4        1.0  0.82831  0.27429  0.22743  1.0000 -0.3822736373
N   N5        1.0  0.63884  0.00736  0.75028  1.0000 -0.3822736373
N   N6        1.0  0.99264  0.36116  0.25028  1.0000 -0.3870266399
N   N7        1.0  0.57187  0.04693  0.68973  1.0000 -0.3870266399
N   N8        1.0  0.95307  0.42813  0.18973  1.0000 -0.3870266399
N   N9        1.0  0.93551  0.18129  0.85694  1.0000 -0.1742599664
N   N10       1.0  0.81871  0.06449  0.35694  1.0000 -0.1742599664
N   N11       1.0  0.30835  0.68025  0.72254  1.0000 -0.1806214931
N   N12       1.0  0.31975  0.69165  0.22254  1.0000 -0.1806214931
N   N13       1.0  0.51433  0.79967  0.17750  1.0000 -0.1806214931
N   N14       1.0  0.20033  0.48567  0.67750  1.0000 -0.1806214931
N   N15       1.0  0.69786  0.75434  0.02768  1.0000 -0.3822736373
N   N16       1.0  0.24566  0.30214  0.52768  1.0000 -0.3822736373
N   N17       1.0  0.60220  0.68740  0.08808  1.0000 -0.3870266399
N   N18       1.0  0.31260  0.39780  0.58808  1.0000 -0.3870266399
N   N19       1.0  0.69792  0.85308  0.06217  1.0000 -0.3870266399
N   N20       1.0  0.14692  0.30208  0.56217  1.0000 -0.3870266399
N   N21       1.0  0.94239  0.08841  0.94945  1.0000 -0.186815183
N   N22       1.0  0.91159  0.05761  0.44945  1.0000 -0.186815183
N   N23       1.0  0.56499  0.41721  0.06098  1.0000 -0.1806214931
N   N24       1.0  0.58279  0.43501  0.56098  1.0000 -0.186815183
N   N25       1.0  0.36498  0.69082  0.88982  1.0000 -0.1806214931
N   N26       1.0  0.30918  0.63502  0.38982  1.0000 -0.1806214931
N   N27       1.0  0.17169  0.72571  0.77257  1.0000 -0.3822736373
N   N28       1.0  0.27429  0.82831  0.27257  1.0000 -0.3822736373
N   N29       1.0  0.00736  0.63884  0.74972  1.0000 -0.3870266399
N   N30       1.0  0.36116  0.99264  0.24972  1.0000 -0.3870266399
N   N31       1.0  0.04693  0.57187  0.81027  1.0000 -0.3870266399
N   N32       1.0  0.42813  0.95307  0.31027  1.0000 -0.3870266399
N   N33       1.0  0.18129  0.93551  0.64306  1.0000 -0.1742599664
N   N34       1.0  0.06449  0.81871  0.14306  1.0000 -0.1742599664
N   N35       1.0  0.68025  0.30835  0.77746  1.0000 -0.1806214931
N   N36       1.0  0.69165  0.31975  0.27746  1.0000 -0.1806214931
N   N37       1.0  0.79967  0.51433  0.32250  1.0000 -0.1806214931
N   N38       1.0  0.48567  0.20033  0.82250  1.0000 -0.1806214931
N   N39       1.0  0.75434  0.69786  0.47232  1.0000 -0.3822736373
N   N40       1.0  0.30214  0.24566  0.97232  1.0000 -0.3822736373
N   N41       1.0  0.68740  0.60220  0.41192  1.0000 -0.3870266399
N   N42       1.0  0.39780  0.31260  0.91192  1.0000 -0.3870266399
N   N43       1.0  0.85308  0.69792  0.43783  1.0000 -0.3822736373
N   N44       1.0  0.30208  0.14692  0.93783  1.0000 -0.3870266399
N   N45       1.0  0.08841  0.94239  0.55055  1.0000 -0.186815183
N   N46       1.0  0.05761  0.91159  0.05055  1.0000 -0.186815183
N   N47       1.0  0.41721  0.56499  0.43902  1.0000 -0.186815183
N   N48       1.0  0.43501  0.58279  0.93902  1.0000 -0.186815183
