# DDEC6 charges by PACMAN v1.1 (https://github.com/mtap-research/PACMAN-charge/)
data_2007[Cu][dia]3[FSR]1
_chemical_formula_sum              "Cu4 H64 C80 N16"
_cell_length_a       11.5557
_cell_length_b       25.6278
_cell_length_c       14.0999
_cell_angle_alpha    90
_cell_angle_beta     94.144
_cell_angle_gamma    90

_symmetry_space_group_name_H-M    "P 1"
_symmetry_Int_Tables_number       1

loop_
  _symmetry_equiv_pos_as_xyz
  'x, y, z'

loop_
  _atom_site_type_symbol
  _atom_site_label
  _atom_site_symmetry_multiplicity
  _atom_site_fract_x
  _atom_site_fract_y
  _atom_site_fract_z
  _atom_site_occupancy
  _atom_site_charge
Cu  Cu1       1.0  0.02666  0.64530  0.01257  1.0000 0.1929699642
Cu  Cu2       1.0  0.97334  0.14530  0.98743  1.0000 0.1929699642
Cu  Cu3       1.0  0.48184  0.87786  0.48229  1.0000 0.1654173744
Cu  Cu4       1.0  0.51816  0.37786  0.51771  1.0000 0.1654173744
H   H1        1.0  0.25200  0.82270  0.49840  1.0000 0.0991184258
H   H2        1.0  0.74800  0.32270  0.50160  1.0000 0.0991184258
H   H3        1.0  0.52870  0.82660  0.66440  1.0000 0.0991184258
H   H4        1.0  0.47130  0.32660  0.33560  1.0000 0.0991184258
H   H5        1.0  0.97880  0.71610  0.85200  1.0000 0.0991184258
H   H6        1.0  0.02120  0.21610  0.14800  1.0000 0.0991184258
H   H7        1.0  0.37140  0.71480  0.85270  1.0000 0.1209653102
H   H8        1.0  0.62860  0.21480  0.14730  1.0000 0.1209653102
H   H9        1.0  0.27940  0.67090  0.96850  1.0000 0.0919474843
H   H10       1.0  0.72060  0.17090  0.03150  1.0000 0.0919474843
H   H11       1.0  0.89440  0.80380  0.16580  1.0000 0.1209653102
H   H12       1.0  0.10560  0.30380  0.83420  1.0000 0.1209653102
H   H13       1.0  0.49220  0.77280  0.39840  1.0000 0.0991184258
H   H14       1.0  0.50780  0.27280  0.60160  1.0000 0.0991184258
H   H15       1.0  0.56810  0.44780  0.35640  1.0000 0.0919474843
H   H16       1.0  0.43190  0.94780  0.64360  1.0000 0.0919474843
H   H17       1.0  0.60050  0.72030  0.30460  1.0000 0.1209653102
H   H18       1.0  0.39950  0.22030  0.69540  1.0000 0.1209653102
H   H19       1.0  0.98590  0.75830  0.06310  1.0000 0.0991184258
H   H20       1.0  0.01410  0.25830  0.93690  1.0000 0.1053928298
H   H21       1.0  0.06680  0.57650  0.84700  1.0000 0.0991184258
H   H22       1.0  0.93320  0.07650  0.15300  1.0000 0.0991184258
H   H23       1.0  0.06460  0.76260  0.74020  1.0000 0.1209653102
H   H24       1.0  0.93540  0.26260  0.25980  1.0000 0.1209653102
H   H25       1.0  0.44270  0.78680  0.78410  1.0000 0.1209653102
H   H26       1.0  0.55730  0.28680  0.21590  1.0000 0.1209653102
H   H27       1.0  0.23060  0.57480  0.01140  1.0000 0.0919474843
H   H28       1.0  0.76940  0.07480  0.98860  1.0000 0.0919474843
H   H29       1.0  0.04750  0.62030  0.21740  1.0000 0.0991184258
H   H30       1.0  0.95250  0.12030  0.78260  1.0000 0.0919474843
H   H31       1.0  0.53380  0.41550  0.72050  1.0000 0.0991184258
H   H32       1.0  0.46620  0.91550  0.27950  1.0000 0.0991184258
H   H33       1.0  0.47670  0.50570  0.25010  1.0000 0.1209653102
H   H34       1.0  0.52330  0.00570  0.74990  1.0000 0.1209653102
H   H35       1.0  0.73880  0.43990  0.51730  1.0000 0.0919474843
H   H36       1.0  0.26120  0.93990  0.48270  1.0000 0.0919474843
H   H37       1.0  0.97430  0.51900  0.74570  1.0000 0.1209653102
H   H38       1.0  0.02570  0.01900  0.25430  1.0000 0.1209653102
H   H39       1.0  0.77800  0.61420  0.95470  1.0000 0.0919474843
H   H40       1.0  0.22200  0.11420  0.04530  1.0000 0.0919474843
H   H41       1.0  0.14700  0.56150  0.32320  1.0000 0.1209653102
H   H42       1.0  0.85300  0.06150  0.67680  1.0000 0.1209653102
H   H43       1.0  0.63480  0.46740  0.81680  1.0000 0.1209653102
H   H44       1.0  0.36520  0.96740  0.18320  1.0000 0.1209653102
H   H45       1.0  0.27540  0.41150  0.45590  1.0000 0.0919474843
H   H46       1.0  0.72460  0.91150  0.54410  1.0000 0.0919474843
H   H47       1.0  0.34900  0.52320  0.11220  1.0000 0.1209653102
H   H48       1.0  0.65100  0.02320  0.88780  1.0000 0.1209653102
H   H49       1.0  0.17500  0.46780  0.35610  1.0000 0.1209653102
H   H50       1.0  0.82500  0.96780  0.64390  1.0000 0.1209653102
H   H51       1.0  0.69220  0.89190  0.37050  1.0000 0.0919474843
H   H52       1.0  0.30780  0.39190  0.62950  1.0000 0.0919474843
H   H53       1.0  0.83750  0.50120  0.61030  1.0000 0.1209653102
H   H54       1.0  0.16250  0.00120  0.38970  1.0000 0.1209653102
H   H55       1.0  0.82370  0.63210  0.12900  1.0000 0.0919474843
H   H56       1.0  0.17630  0.13210  0.87100  1.0000 0.0919474843
H   H57       1.0  0.67730  0.55680  0.85530  1.0000 0.1209653102
H   H58       1.0  0.32270  0.05680  0.14470  1.0000 0.1209653102
H   H59       1.0  0.80440  0.84690  0.27120  1.0000 0.1209653102
H   H60       1.0  0.19560  0.34690  0.72880  1.0000 0.1209653102
H   H61       1.0  0.71360  0.67670  0.22640  1.0000 0.1209653102
H   H62       1.0  0.28640  0.17670  0.77360  1.0000 0.1209653102
H   H63       1.0  0.15930  0.77210  0.60240  1.0000 0.1209653102
H   H64       1.0  0.84070  0.27210  0.39760  1.0000 0.1209653102
C   C1        1.0  0.29130  0.81380  0.55600  1.0000 0.0391298601
C   C2        1.0  0.70870  0.31380  0.44400  1.0000 0.0391298601
C   C3        1.0  0.45100  0.81730  0.65430  1.0000 0.0191400062
C   C4        1.0  0.54900  0.31730  0.34570  1.0000 0.0191400062
C   C5        1.0  0.05940  0.71660  0.85460  1.0000 0.0191400062
C   C6        1.0  0.94060  0.21660  0.14540  1.0000 0.0191400062
C   C7        1.0  0.29100  0.71610  0.85280  1.0000 -0.18936606
C   C8        1.0  0.70900  0.21610  0.14720  1.0000 -0.18936606
C   C9        1.0  0.23490  0.68960  0.92270  1.0000 0.0191400062
C   C10       1.0  0.76510  0.18960  0.07730  1.0000 0.0191400062
C   C11       1.0  0.87600  0.76870  0.15770  1.0000 -0.1794092687
C   C12       1.0  0.12400  0.26870  0.84230  1.0000 -0.1794092687
C   C13       1.0  0.55850  0.78700  0.37500  1.0000 0.0391298601
C   C14       1.0  0.44150  0.28700  0.62500  1.0000 0.0391298601
C   C15       1.0  0.48820  0.45230  0.35660  1.0000 0.0191400062
C   C16       1.0  0.51180  0.95230  0.64340  1.0000 0.0191400062
C   C17       1.0  0.62150  0.75490  0.31570  1.0000 -0.1794092687
C   C18       1.0  0.37850  0.25490  0.68430  1.0000 -0.1794092687
C   C19       1.0  0.93450  0.74100  0.10000  1.0000 0.0004127653
C   C20       1.0  0.06550  0.24100  0.90000  1.0000 0.0004127653
C   C21       1.0  0.98700  0.57260  0.84920  1.0000 0.0191400062
C   C22       1.0  0.01300  0.07260  0.15080  1.0000 0.0191400062
C   C23       1.0  0.22620  0.74450  0.78280  1.0000 0.0721952928
C   C24       1.0  0.77380  0.24450  0.21720  1.0000 0.0721952928
C   C25       1.0  0.11050  0.74410  0.78550  1.0000 -0.1794092687
C   C26       1.0  0.88950  0.24410  0.21450  1.0000 -0.1794092687
C   C27       1.0  0.40160  0.79200  0.72570  1.0000 -0.2009333568
C   C28       1.0  0.59840  0.29200  0.27430  1.0000 -0.2009333568
C   C29       1.0  0.28650  0.77390  0.70940  1.0000 0.0991184258
C   C30       1.0  0.71350  0.27390  0.29060  1.0000 0.0991184258
C   C31       1.0  0.21570  0.57290  0.07530  1.0000 0.0272329611
C   C32       1.0  0.78430  0.07290  0.92470  1.0000 0.0272329611
C   C33       1.0  0.10510  0.59900  0.19570  1.0000 0.0569865008
C   C34       1.0  0.89490  0.09900  0.80430  1.0000 0.0569865008
C   C35       1.0  0.78210  0.74660  0.21040  1.0000 0.0802126241
C   C36       1.0  0.21790  0.24660  0.78960  1.0000 0.0802126241
C   C37       1.0  0.59760  0.43200  0.69720  1.0000 -0.0028901768
C   C38       1.0  0.40240  0.93200  0.30280  1.0000 -0.0028901768
C   C39       1.0  0.43320  0.48760  0.29230  1.0000 -0.18936606
C   C40       1.0  0.56680  0.98760  0.70770  1.0000 -0.18936606
C   C41       1.0  0.71480  0.44670  0.57760  1.0000 0.0191400062
C   C42       1.0  0.28520  0.94670  0.42240  1.0000 0.0191400062
C   C43       1.0  0.93250  0.53790  0.78790  1.0000 -0.18936606
C   C44       1.0  0.06750  0.03790  0.21210  1.0000 -0.18936606
C   C45       1.0  0.81840  0.59470  0.91240  1.0000 0.0191400062
C   C46       1.0  0.18160  0.09470  0.08760  1.0000 0.0191400062
C   C47       1.0  0.16630  0.56420  0.26050  1.0000 -0.2009333568
C   C48       1.0  0.83370  0.06420  0.73950  1.0000 -0.2009333568
C   C49       1.0  0.65590  0.46400  0.75470  1.0000 -0.1794092687
C   C50       1.0  0.34410  0.96400  0.24530  1.0000 -0.1794092687
C   C51       1.0  0.31680  0.43130  0.41470  1.0000 0.0272329611
C   C52       1.0  0.68320  0.93130  0.58530  1.0000 0.0272329611
C   C53       1.0  0.28530  0.54040  0.13420  1.0000 -0.18936606
C   C54       1.0  0.71470  0.04040  0.86580  1.0000 -0.18936606
C   C55       1.0  0.25520  0.46500  0.35490  1.0000 -0.2009333568
C   C56       1.0  0.74480  0.96500  0.64510  1.0000 -0.2009333568
C   C57       1.0  0.67490  0.85710  0.35790  1.0000 0.0088234659
C   C58       1.0  0.32510  0.35710  0.64210  1.0000 0.0088234659
C   C59       1.0  0.77640  0.48320  0.63470  1.0000 -0.18936606
C   C60       1.0  0.22360  0.98320  0.36530  1.0000 -0.18936606
C   C61       1.0  0.83850  0.66760  0.13700  1.0000 0.0088234659
C   C62       1.0  0.16150  0.16760  0.86300  1.0000 0.0088234659
C   C63       1.0  0.25540  0.53480  0.22730  1.0000 0.0919474843
C   C64       1.0  0.74460  0.03480  0.77270  1.0000 0.0919474843
C   C65       1.0  0.75710  0.56020  0.85240  1.0000 -0.1794092687
C   C66       1.0  0.24290  0.06020  0.14760  1.0000 -0.1794092687
C   C67       1.0  0.31670  0.49580  0.29080  1.0000 0.0802126241
C   C68       1.0  0.68330  0.99580  0.70920  1.0000 0.0802126241
C   C69       1.0  0.74870  0.49320  0.72590  1.0000 0.0802126241
C   C70       1.0  0.25130  0.99320  0.27410  1.0000 0.0802126241
C   C71       1.0  0.81280  0.53140  0.78950  1.0000 0.0802126241
C   C72       1.0  0.18720  0.03140  0.21050  1.0000 0.0802126241
C   C73       1.0  0.74220  0.83070  0.29760  1.0000 -0.2009333568
C   C74       1.0  0.25780  0.33070  0.70240  1.0000 -0.2009333568
C   C75       1.0  0.77000  0.69460  0.19580  1.0000 -0.18936606
C   C76       1.0  0.23000  0.19460  0.80420  1.0000 -0.18936606
C   C77       1.0  0.23350  0.78470  0.61940  1.0000 -0.2096109105
C   C78       1.0  0.76650  0.28470  0.38060  1.0000 -0.2096109105
C   C79       1.0  0.71270  0.77590  0.27600  1.0000 0.0802126241
C   C80       1.0  0.28730  0.27590  0.72400  1.0000 0.0802126241
N   N1        1.0  0.58510  0.83570  0.40020  1.0000 -0.2184938627
N   N2        1.0  0.41490  0.33570  0.59980  1.0000 -0.2184938627
N   N3        1.0  0.39750  0.82970  0.57190  1.0000 -0.2009333568
N   N4        1.0  0.60250  0.32970  0.42810  1.0000 -0.2009333568
N   N5        1.0  0.62150  0.42050  0.60630  1.0000 -0.2404558
N   N6        1.0  0.37850  0.92050  0.39370  1.0000 -0.2404558
N   N7        1.0  0.11740  0.69000  0.92640  1.0000 -0.2404558
N   N8        1.0  0.88260  0.19000  0.07360  1.0000 -0.2404558
N   N9        1.0  0.12880  0.60160  0.10500  1.0000 -0.2096109105
N   N10       1.0  0.87120  0.10160  0.89500  1.0000 -0.2096109105
N   N11       1.0  0.92480  0.68800  0.09040  1.0000 -0.2404558
N   N12       1.0  0.07520  0.18800  0.90960  1.0000 -0.2404558
N   N13       1.0  0.93440  0.60120  0.91210  1.0000 -0.2184938627
N   N14       1.0  0.06560  0.10120  0.08790  1.0000 -0.2184938627
N   N15       1.0  0.43010  0.42470  0.41840  1.0000 -0.2096109105
N   N16       1.0  0.56990  0.92470  0.58160  1.0000 -0.2096109105
