# DDEC6 charges by PACMAN v1.1 (https://github.com/mtap-research/PACMAN-charge/)
data_2007[Cd][dia]3[FSR]3
_chemical_formula_sum              "Cd2 H48 C72 N12 O12 F16"
_cell_length_a       13.4588
_cell_length_b       13.4588
_cell_length_c       17.1188
_cell_angle_alpha    68.6647
_cell_angle_beta     111.335
_cell_angle_gamma    89.5033

_symmetry_space_group_name_H-M    "P 1"
_symmetry_Int_Tables_number       1

loop_
  _symmetry_equiv_pos_as_xyz
  'x, y, z'

loop_
  _atom_site_type_symbol
  _atom_site_label
  _atom_site_symmetry_multiplicity
  _atom_site_fract_x
  _atom_site_fract_y
  _atom_site_fract_z
  _atom_site_occupancy
  _atom_site_charge
Cd  Cd1       1.0  0.37462  0.37462  0.25000  1.0000 0.7071037159
Cd  Cd2       1.0  0.62538  0.62538  0.75000  1.0000 0.7071037159
H   H1        1.0  0.15420  0.48360  0.05640  1.0000 0.0772577372
H   H2        1.0  0.48360  0.15420  0.44360  1.0000 0.0772577372
H   H3        1.0  0.84580  0.51640  0.94360  1.0000 0.0772577372
H   H4        1.0  0.51640  0.84580  0.55640  1.0000 0.0772577372
H   H5        1.0  0.32230  0.17850  0.18680  1.0000 0.1005769279
H   H6        1.0  0.17850  0.32230  0.31320  1.0000 0.1005769279
H   H7        1.0  0.67770  0.82150  0.81320  1.0000 0.1005769279
H   H8        1.0  0.82150  0.67770  0.68680  1.0000 0.1005769279
H   H9        1.0  0.01620  0.42360  0.95390  1.0000 0.1377571477
H   H10       1.0  0.42360  0.01620  0.54610  1.0000 0.1377571477
H   H11       1.0  0.98380  0.57640  0.04610  1.0000 0.1313412702
H   H12       1.0  0.57640  0.98380  0.45390  1.0000 0.1377571477
H   H13       1.0  0.19380  0.11940  0.08740  1.0000 0.1377571477
H   H14       1.0  0.11940  0.19380  0.41260  1.0000 0.1377571477
H   H15       1.0  0.80620  0.88060  0.91260  1.0000 0.1377571477
H   H16       1.0  0.88060  0.80620  0.58740  1.0000 0.1377571477
H   H17       1.0  0.93800  0.27040  0.93200  1.0000 0.1202549741
H   H18       1.0  0.27040  0.93800  0.56800  1.0000 0.1202549741
H   H19       1.0  0.06200  0.72960  0.06800  1.0000 0.1202549741
H   H20       1.0  0.72960  0.06200  0.43200  1.0000 0.1202549741
H   H21       1.0  0.00340  0.26760  0.88700  1.0000 0.1313412702
H   H22       1.0  0.26760  0.00340  0.61300  1.0000 0.1313412702
H   H23       1.0  0.99660  0.73240  0.11300  1.0000 0.1313412702
H   H24       1.0  0.73240  0.99660  0.38700  1.0000 0.1313412702
H   H25       1.0  0.48890  0.37310  0.45230  1.0000 0.109658646
H   H26       1.0  0.37310  0.48890  0.04770  1.0000 0.109658646
H   H27       1.0  0.51110  0.62690  0.54770  1.0000 0.109658646
H   H28       1.0  0.62690  0.51110  0.95230  1.0000 0.109658646
H   H29       1.0  0.61110  0.41150  0.27520  1.0000 0.109658646
H   H30       1.0  0.41150  0.61110  0.22480  1.0000 0.109658646
H   H31       1.0  0.38890  0.58850  0.72480  1.0000 0.109658646
H   H32       1.0  0.58850  0.38890  0.77520  1.0000 0.109658646
H   H33       1.0  0.66280  0.35980  0.56290  1.0000 0.1458015905
H   H34       1.0  0.35980  0.66280  0.93710  1.0000 0.1458015905
H   H35       1.0  0.33720  0.64020  0.43710  1.0000 0.1458015905
H   H36       1.0  0.64020  0.33720  0.06290  1.0000 0.1458015905
H   H37       1.0  0.78320  0.39360  0.38100  1.0000 0.1377571477
H   H38       1.0  0.39360  0.78320  0.11900  1.0000 0.1377571477
H   H39       1.0  0.21680  0.60640  0.61900  1.0000 0.1377571477
H   H40       1.0  0.60640  0.21680  0.88100  1.0000 0.1377571477
H   H41       1.0  0.84640  0.37260  0.60680  1.0000 0.1313412702
H   H42       1.0  0.37260  0.84640  0.89320  1.0000 0.1313412702
H   H43       1.0  0.15360  0.62740  0.39320  1.0000 0.1313412702
H   H44       1.0  0.62740  0.15360  0.10680  1.0000 0.1313412702
H   H45       1.0  0.88940  0.28700  0.58020  1.0000 0.1377571477
H   H46       1.0  0.28700  0.88940  0.91980  1.0000 0.1313412702
H   H47       1.0  0.11060  0.71300  0.41980  1.0000 0.1313412702
H   H48       1.0  0.71300  0.11060  0.08020  1.0000 0.1313412702
C   C1        1.0  0.16221  0.39875  0.06583  1.0000 0.1005769279
C   C2        1.0  0.39875  0.16221  0.43417  1.0000 0.1005769279
C   C3        1.0  0.83779  0.60125  0.93417  1.0000 0.1005769279
C   C4        1.0  0.60125  0.83779  0.56583  1.0000 0.1005769279
C   C5        1.0  0.25865  0.23001  0.13673  1.0000 0.0772577372
C   C6        1.0  0.23001  0.25865  0.36327  1.0000 0.0772577372
C   C7        1.0  0.74135  0.76999  0.86327  1.0000 0.0772577372
C   C8        1.0  0.76999  0.74135  0.63673  1.0000 0.0772577372
C   C9        1.0  0.08204  0.36992  0.00407  1.0000 -0.2267353072
C   C10       1.0  0.36992  0.08204  0.49593  1.0000 -0.2267353072
C   C11       1.0  0.91796  0.63008  0.99593  1.0000 -0.2267353072
C   C12       1.0  0.63008  0.91796  0.50407  1.0000 -0.2267353072
C   C13       1.0  0.18178  0.19456  0.07788  1.0000 -0.1904027595
C   C14       1.0  0.19456  0.18178  0.42212  1.0000 -0.1904027595
C   C15       1.0  0.81822  0.80544  0.92212  1.0000 -0.1904027595
C   C16       1.0  0.80544  0.81822  0.57788  1.0000 -0.1904027595
C   C17       1.0  0.08966  0.26518  0.01063  1.0000 0.1800330576
C   C18       1.0  0.26518  0.08966  0.48937  1.0000 0.1800330576
C   C19       1.0  0.91034  0.73482  0.98937  1.0000 0.1800330576
C   C20       1.0  0.73482  0.91034  0.51063  1.0000 0.1800330576
C   C21       1.0  0.00009  0.23369  0.94363  1.0000 -0.2235994882
C   C22       1.0  0.23369  0.00009  0.55637  1.0000 -0.2235994882
C   C23       1.0  0.99991  0.76631  0.05637  1.0000 -0.2235994882
C   C24       1.0  0.76631  0.99991  0.44363  1.0000 -0.2235994882
C   C25       1.0  0.00081  0.11315  0.97255  1.0000 -0.0710848331
C   C26       1.0  0.11315  0.00081  0.52745  1.0000 -0.0710848331
C   C27       1.0  0.99919  0.88685  0.02745  1.0000 -0.0710848331
C   C28       1.0  0.88685  0.99919  0.47255  1.0000 -0.0710848331
C   C29       1.0  0.95482  0.05726  0.03262  1.0000 0.109658646
C   C30       1.0  0.05726  0.95482  0.46738  1.0000 0.109658646
C   C31       1.0  0.04518  0.94274  0.96738  1.0000 0.109658646
C   C32       1.0  0.94274  0.04518  0.53262  1.0000 0.109658646
C   C33       1.0  0.95426  0.94768  0.05887  1.0000 0.109658646
C   C34       1.0  0.94768  0.95426  0.44113  1.0000 0.109658646
C   C35       1.0  0.04574  0.05232  0.94113  1.0000 0.109658646
C   C36       1.0  0.05232  0.04574  0.55887  1.0000 0.1005769279
C   C37       1.0  0.55274  0.37870  0.43983  1.0000 0.0772577372
C   C38       1.0  0.37870  0.55274  0.06017  1.0000 0.0772577372
C   C39       1.0  0.44726  0.62130  0.56017  1.0000 0.0772577372
C   C40       1.0  0.62130  0.44726  0.93983  1.0000 0.0772577372
C   C41       1.0  0.62525  0.39953  0.33516  1.0000 0.0680853106
C   C42       1.0  0.39953  0.62525  0.16484  1.0000 0.0680853106
C   C43       1.0  0.37475  0.60047  0.66484  1.0000 0.0680853106
C   C44       1.0  0.60047  0.37475  0.83516  1.0000 0.0680853106
C   C45       1.0  0.65272  0.37140  0.50549  1.0000 -0.195922619
C   C46       1.0  0.37140  0.65272  0.99451  1.0000 -0.195922619
C   C47       1.0  0.34728  0.62860  0.49451  1.0000 -0.195922619
C   C48       1.0  0.62860  0.34728  0.00549  1.0000 -0.195922619
C   C49       1.0  0.72709  0.39227  0.39701  1.0000 -0.195922619
C   C50       1.0  0.39227  0.72709  0.10299  1.0000 -0.195922619
C   C51       1.0  0.27291  0.60773  0.60299  1.0000 -0.195922619
C   C52       1.0  0.60773  0.27291  0.89701  1.0000 -0.195922619
C   C53       1.0  0.74340  0.37480  0.48573  1.0000 0.1800330576
C   C54       1.0  0.37480  0.74340  0.01427  1.0000 0.1800330576
C   C55       1.0  0.25660  0.62520  0.51427  1.0000 0.1800330576
C   C56       1.0  0.62520  0.25660  0.98573  1.0000 0.1800330576
C   C57       1.0  0.85417  0.35893  0.55932  1.0000 -0.2640438512
C   C58       1.0  0.35893  0.85417  0.94068  1.0000 -0.2640438512
C   C59       1.0  0.14583  0.64107  0.44068  1.0000 -0.2640438512
C   C60       1.0  0.64107  0.14583  0.05932  1.0000 -0.2640438512
C   C61       1.0  0.92849  0.43151  0.52766  1.0000 -0.0710848331
C   C62       1.0  0.43151  0.92849  0.97234  1.0000 -0.0710848331
C   C63       1.0  0.07151  0.56849  0.47234  1.0000 -0.0643077552
C   C64       1.0  0.56849  0.07151  0.02766  1.0000 -0.0643077552
C   C65       1.0  0.93107  0.53289  0.53067  1.0000 0.109658646
C   C66       1.0  0.53289  0.93107  0.96933  1.0000 0.1202549741
C   C67       1.0  0.06893  0.46711  0.46933  1.0000 0.109658646
C   C68       1.0  0.46711  0.06893  0.03067  1.0000 0.109658646
C   C69       1.0  0.00116  0.59826  0.50471  1.0000 0.1005769279
C   C70       1.0  0.59826  0.00116  0.99529  1.0000 0.1005769279
C   C71       1.0  0.99884  0.40174  0.49529  1.0000 0.1005769279
C   C72       1.0  0.40174  0.99884  0.00471  1.0000 0.1005769279
N   N1        1.0  0.24880  0.33054  0.13252  1.0000 -0.2267353072
N   N2        1.0  0.33054  0.24880  0.36748  1.0000 -0.2267353072
N   N3        1.0  0.75120  0.66946  0.86748  1.0000 -0.2267353072
N   N4        1.0  0.66946  0.75120  0.63252  1.0000 -0.2267353072
N   N5        1.0  0.53766  0.39086  0.35542  1.0000 -0.2267353072
N   N6        1.0  0.39086  0.53766  0.14458  1.0000 -0.2267353072
N   N7        1.0  0.46234  0.60914  0.64458  1.0000 -0.2267353072
N   N8        1.0  0.60914  0.46234  0.85542  1.0000 -0.2267353072
N   N9        1.0  0.53387  0.22507  0.23432  1.0000 0.6644804344
N   N10       1.0  0.22507  0.53387  0.26568  1.0000 0.6656861768
N   N11       1.0  0.46613  0.77493  0.76568  1.0000 0.6656861768
N   N12       1.0  0.77493  0.46613  0.73432  1.0000 0.6656861768
O   O1        1.0  0.48876  0.20088  0.29024  1.0000 -0.4436943739
O   O2        1.0  0.20088  0.48876  0.20976  1.0000 -0.4436943739
O   O3        1.0  0.51124  0.79912  0.70976  1.0000 -0.4436943739
O   O4        1.0  0.79912  0.51124  0.79024  1.0000 -0.4436943739
O   O5        1.0  0.50991  0.31917  0.17486  1.0000 -0.4341216221
O   O6        1.0  0.31917  0.50991  0.32514  1.0000 -0.4341216221
O   O7        1.0  0.49009  0.68083  0.82514  1.0000 -0.4341216221
O   O8        1.0  0.68083  0.49009  0.67486  1.0000 -0.4341216221
O   O9        1.0  0.59972  0.15802  0.23908  1.0000 -0.3608303502
O   O10       1.0  0.15802  0.59972  0.26092  1.0000 -0.3608303502
O   O11       1.0  0.40028  0.84198  0.76092  1.0000 -0.3608303502
O   O12       1.0  0.84198  0.40028  0.73908  1.0000 -0.3608303502
F   F1        1.0  0.90946  0.11148  0.06675  1.0000 -0.1202110632
F   F2        1.0  0.11148  0.90946  0.43325  1.0000 -0.1202110632
F   F3        1.0  0.09054  0.88852  0.93325  1.0000 -0.1202110632
F   F4        1.0  0.88852  0.09054  0.56675  1.0000 -0.1202110632
F   F5        1.0  0.91049  0.89931  0.12002  1.0000 -0.1144577994
F   F6        1.0  0.89931  0.91049  0.37998  1.0000 -0.1144577994
F   F7        1.0  0.08951  0.10069  0.87998  1.0000 -0.1144577994
F   F8        1.0  0.10069  0.08951  0.62002  1.0000 -0.1144577994
F   F9        1.0  0.86471  0.56849  0.56110  1.0000 -0.1202110632
F   F10       1.0  0.56849  0.86471  0.93890  1.0000 -0.1202110632
F   F11       1.0  0.13529  0.43151  0.43890  1.0000 -0.1202110632
F   F12       1.0  0.43151  0.13529  0.06110  1.0000 -0.1202110632
F   F13       1.0  0.00034  0.69504  0.51157  1.0000 -0.1202110632
F   F14       1.0  0.69504  0.00034  0.98843  1.0000 -0.1202110632
F   F15       1.0  0.99966  0.30496  0.48843  1.0000 -0.1202110632
F   F16       1.0  0.30496  0.99966  0.01157  1.0000 -0.1202110632
