# DDEC6 charges by PACMAN v1.1 (https://github.com/mtap-research/PACMAN-charge/)
data_2007[CuMn][pcu]3[FSR]2
_chemical_formula_sum              "Mn4 Cu4 C32 N48"
_cell_length_a       12.361
_cell_length_b       10.664
_cell_length_c       32.9763
_cell_angle_alpha    90
_cell_angle_beta     105.679
_cell_angle_gamma    90

_symmetry_space_group_name_H-M    "P 1"
_symmetry_Int_Tables_number       1

loop_
  _symmetry_equiv_pos_as_xyz
  'x, y, z'

loop_
  _atom_site_type_symbol
  _atom_site_label
  _atom_site_symmetry_multiplicity
  _atom_site_fract_x
  _atom_site_fract_y
  _atom_site_fract_z
  _atom_site_occupancy
  _atom_site_charge
Mn  Mn1       1.0  0.74995  0.74990  0.24953  1.0000 0.9673462269
Mn  Mn2       1.0  0.25005  0.24990  0.25047  1.0000 0.9618235386
Mn  Mn3       1.0  0.25005  0.25010  0.75047  1.0000 0.9673462269
Mn  Mn4       1.0  0.74995  0.75010  0.74953  1.0000 0.9673462269
Cu  Cu1       1.0  0.71067  0.74262  0.99565  1.0000 0.7301748313
Cu  Cu2       1.0  0.28933  0.24262  0.50435  1.0000 0.7301748313
Cu  Cu3       1.0  0.28933  0.25738  0.00435  1.0000 0.7431404945
Cu  Cu4       1.0  0.71067  0.75738  0.49565  1.0000 0.7431404945
C   C1        1.0  0.64000  0.74540  0.07450  1.0000 0.7301748313
C   C2        1.0  0.36000  0.24540  0.42550  1.0000 0.7301748313
C   C3        1.0  0.36000  0.25460  0.92550  1.0000 0.7301748313
C   C4        1.0  0.64000  0.75460  0.57450  1.0000 0.7431404945
C   C5        1.0  0.66040  0.75490  0.14510  1.0000 0.4584515846
C   C6        1.0  0.33960  0.25490  0.35490  1.0000 0.4584515846
C   C7        1.0  0.33960  0.24510  0.85490  1.0000 0.4584515846
C   C8        1.0  0.66040  0.74510  0.64510  1.0000 0.451195643
C   C9        1.0  0.81420  0.74800  0.35260  1.0000 0.4584515846
C   C10       1.0  0.18580  0.24800  0.14740  1.0000 0.4671396471
C   C11       1.0  0.18580  0.25200  0.64740  1.0000 0.4584515846
C   C12       1.0  0.81420  0.75200  0.85260  1.0000 0.4584515846
C   C13       1.0  0.79340  0.76030  0.42010  1.0000 0.632805661
C   C14       1.0  0.20660  0.26030  0.07990  1.0000 0.682511226
C   C15       1.0  0.20660  0.23970  0.57990  1.0000 0.6390737153
C   C16       1.0  0.79340  0.73970  0.92010  1.0000 0.6390737153
C   C17       1.0  0.84440  0.04390  0.25530  1.0000 0.4372383735
C   C18       1.0  0.15560  0.54390  0.24470  1.0000 0.4372383735
C   C19       1.0  0.15560  0.95610  0.74470  1.0000 0.4372383735
C   C20       1.0  0.84440  0.45610  0.75530  1.0000 0.4372383735
C   C21       1.0  0.66000  0.45600  0.25050  1.0000 0.4372383735
C   C22       1.0  0.34000  0.95600  0.24950  1.0000 0.4372383735
C   C23       1.0  0.34000  0.54400  0.74950  1.0000 0.4372383735
C   C24       1.0  0.66000  0.04400  0.75050  1.0000 0.4372383735
C   C25       1.0  0.51440  0.32870  0.25270  1.0000 0.4203172332
C   C26       1.0  0.48560  0.82870  0.24730  1.0000 0.4136961755
C   C27       1.0  0.48560  0.67130  0.74730  1.0000 0.4136961755
C   C28       1.0  0.51440  0.17130  0.75270  1.0000 0.4136961755
C   C29       1.0  0.98660  0.17300  0.25180  1.0000 0.425393448
C   C30       1.0  0.01340  0.67300  0.24820  1.0000 0.4203172332
C   C31       1.0  0.01340  0.82700  0.74820  1.0000 0.425393448
C   C32       1.0  0.98660  0.32700  0.75180  1.0000 0.425393448
N   N1        1.0  0.66310  0.74590  0.04310  1.0000 -0.7473118547
N   N2        1.0  0.33690  0.24590  0.45690  1.0000 -0.7473118547
N   N3        1.0  0.33690  0.25410  0.95690  1.0000 -0.7473118547
N   N4        1.0  0.66310  0.75410  0.54310  1.0000 -0.8558393561
N   N5        1.0  0.60278  0.74420  0.10618  1.0000 -0.591098889
N   N6        1.0  0.39722  0.24420  0.39382  1.0000 -0.591098889
N   N7        1.0  0.39722  0.25580  0.89382  1.0000 -0.591098889
N   N8        1.0  0.60278  0.75580  0.60618  1.0000 -0.5796551251
N   N9        1.0  0.70050  0.76480  0.18040  1.0000 -0.4307071001
N   N10       1.0  0.29950  0.26480  0.31960  1.0000 -0.4307071001
N   N11       1.0  0.29950  0.23520  0.81960  1.0000 -0.4307071001
N   N12       1.0  0.70050  0.73520  0.68040  1.0000 -0.4307071001
N   N13       1.0  0.79640  0.73850  0.31800  1.0000 -0.4307071001
N   N14       1.0  0.20360  0.23850  0.18200  1.0000 -0.4307071001
N   N15       1.0  0.20360  0.26150  0.68200  1.0000 -0.4307071001
N   N16       1.0  0.79640  0.76150  0.81800  1.0000 -0.4307071001
N   N17       1.0  0.84930  0.76230  0.39260  1.0000 -0.5574679815
N   N18       1.0  0.15070  0.26230  0.10740  1.0000 -0.5796551251
N   N19       1.0  0.15070  0.23770  0.60740  1.0000 -0.5539813482
N   N20       1.0  0.84930  0.73770  0.89260  1.0000 -0.5574679815
N   N21       1.0  0.75860  0.75980  0.44860  1.0000 -0.7040461444
N   N22       1.0  0.24140  0.25980  0.05140  1.0000 -0.7040461444
N   N23       1.0  0.24140  0.24020  0.55140  1.0000 -0.7104948008
N   N24       1.0  0.75860  0.74020  0.94860  1.0000 -0.7104948008
N   N25       1.0  0.88150  0.15710  0.25050  1.0000 -0.3280304291
N   N26       1.0  0.11850  0.65710  0.24950  1.0000 -0.3280304291
N   N27       1.0  0.11850  0.84290  0.74950  1.0000 -0.3280304291
N   N28       1.0  0.88150  0.34290  0.75050  1.0000 -0.3280304291
N   N29       1.0  0.80080  0.95240  0.25620  1.0000 -0.3828234591
N   N30       1.0  0.19920  0.45240  0.24380  1.0000 -0.3828234591
N   N31       1.0  0.19920  0.04760  0.74380  1.0000 -0.3828234591
N   N32       1.0  0.80080  0.54760  0.75620  1.0000 -0.3828234591
N   N33       1.0  0.70210  0.54850  0.24610  1.0000 -0.4111867391
N   N34       1.0  0.29790  0.04850  0.25390  1.0000 -0.4111867391
N   N35       1.0  0.29790  0.45150  0.75390  1.0000 -0.4111867391
N   N36       1.0  0.70210  0.95150  0.74610  1.0000 -0.4111867391
N   N37       1.0  0.62110  0.34630  0.25630  1.0000 -0.3134983175
N   N38       1.0  0.37890  0.84630  0.24370  1.0000 -0.3134983175
N   N39       1.0  0.37890  0.65370  0.74370  1.0000 -0.3134983175
N   N40       1.0  0.62110  0.15370  0.75630  1.0000 -0.3134983175
N   N41       1.0  0.42550  0.30020  0.25110  1.0000 -0.3927804629
N   N42       1.0  0.57450  0.80020  0.24890  1.0000 -0.3927804629
N   N43       1.0  0.57450  0.69980  0.74890  1.0000 -0.3927804629
N   N44       1.0  0.42550  0.19980  0.75110  1.0000 -0.3927804629
N   N45       1.0  0.07600  0.20060  0.25120  1.0000 -0.3927804629
N   N46       1.0  0.92400  0.70060  0.24880  1.0000 -0.3927804629
N   N47       1.0  0.92400  0.79940  0.74880  1.0000 -0.3968204402
N   N48       1.0  0.07600  0.29940  0.75120  1.0000 -0.3927804629
