# DDEC6 charges by PACMAN v1.1 (https://github.com/mtap-research/PACMAN-charge/)
data_2007[CuMn][pcu]3[FSR]1
_chemical_formula_sum              "Mn4 Cu4 C32 N48"
_cell_length_a       12.368
_cell_length_b       10.636
_cell_length_c       33.0274
_cell_angle_alpha    90
_cell_angle_beta     105.834
_cell_angle_gamma    90

_symmetry_space_group_name_H-M    "P 1"
_symmetry_Int_Tables_number       1

loop_
  _symmetry_equiv_pos_as_xyz
  'x, y, z'

loop_
  _atom_site_type_symbol
  _atom_site_label
  _atom_site_symmetry_multiplicity
  _atom_site_fract_x
  _atom_site_fract_y
  _atom_site_fract_z
  _atom_site_occupancy
  _atom_site_charge
Mn  Mn1       1.0  0.75017  0.75175  0.24958  1.0000 0.9533606574
Mn  Mn2       1.0  0.24983  0.25175  0.25042  1.0000 0.9533606574
Mn  Mn3       1.0  0.24983  0.24825  0.75042  1.0000 0.9533606574
Mn  Mn4       1.0  0.75017  0.74825  0.74958  1.0000 0.9533606574
Cu  Cu1       1.0  0.71016  0.74291  0.99577  1.0000 0.7338754192
Cu  Cu2       1.0  0.28984  0.24291  0.50423  1.0000 0.7338754192
Cu  Cu3       1.0  0.28984  0.25709  0.00423  1.0000 0.7338754192
Cu  Cu4       1.0  0.71016  0.75709  0.49577  1.0000 0.7338754192
C   C1        1.0  0.63960  0.74530  0.07450  1.0000 0.7132708684
C   C2        1.0  0.36040  0.24530  0.42550  1.0000 0.7132708684
C   C3        1.0  0.36040  0.25470  0.92550  1.0000 0.7132708684
C   C4        1.0  0.63960  0.75470  0.57450  1.0000 0.7132708684
C   C5        1.0  0.65970  0.75610  0.14490  1.0000 0.4532032863
C   C6        1.0  0.34030  0.25610  0.35510  1.0000 0.4532032863
C   C7        1.0  0.34030  0.24390  0.85510  1.0000 0.4532032863
C   C8        1.0  0.65970  0.74390  0.64490  1.0000 0.4532032863
C   C9        1.0  0.81510  0.74910  0.35320  1.0000 0.458714302
C   C10       1.0  0.18490  0.24910  0.14680  1.0000 0.458714302
C   C11       1.0  0.18490  0.25090  0.64680  1.0000 0.458714302
C   C12       1.0  0.81510  0.75090  0.85320  1.0000 0.458714302
C   C13       1.0  0.79440  0.76160  0.42050  1.0000 0.7132708684
C   C14       1.0  0.20560  0.26160  0.07950  1.0000 0.7132708684
C   C15       1.0  0.20560  0.23840  0.57950  1.0000 0.7132708684
C   C16       1.0  0.79440  0.73840  0.92050  1.0000 0.7132708684
C   C17       1.0  0.84210  0.04790  0.25460  1.0000 0.4331400499
C   C18       1.0  0.15790  0.54790  0.24540  1.0000 0.4331400499
C   C19       1.0  0.15790  0.95210  0.74540  1.0000 0.4331400499
C   C20       1.0  0.84210  0.45210  0.75460  1.0000 0.4331400499
C   C21       1.0  0.65960  0.45690  0.24980  1.0000 0.4331400499
C   C22       1.0  0.34040  0.95690  0.25020  1.0000 0.4331400499
C   C23       1.0  0.34040  0.54310  0.75020  1.0000 0.4331400499
C   C24       1.0  0.65960  0.04310  0.74980  1.0000 0.4331400499
C   C25       1.0  0.51560  0.33050  0.25320  1.0000 0.4211535931
C   C26       1.0  0.48440  0.83050  0.24680  1.0000 0.4211535931
C   C27       1.0  0.48440  0.66950  0.74680  1.0000 0.4211535931
C   C28       1.0  0.51560  0.16950  0.75320  1.0000 0.4211535931
C   C29       1.0  0.98520  0.17640  0.25140  1.0000 0.4211535931
C   C30       1.0  0.01480  0.67640  0.24860  1.0000 0.4211535931
C   C31       1.0  0.01480  0.82360  0.74860  1.0000 0.4211535931
C   C32       1.0  0.98520  0.32360  0.75140  1.0000 0.4211535931
N   N1        1.0  0.66264  0.74590  0.04354  1.0000 -0.7401312974
N   N2        1.0  0.33736  0.24590  0.45646  1.0000 -0.7401312974
N   N3        1.0  0.33736  0.25410  0.95646  1.0000 -0.7401312974
N   N4        1.0  0.66264  0.75410  0.54354  1.0000 -0.7401312974
N   N5        1.0  0.60120  0.74200  0.10640  1.0000 -0.5979248329
N   N6        1.0  0.39880  0.24200  0.39360  1.0000 -0.5979248329
N   N7        1.0  0.39880  0.25800  0.89360  1.0000 -0.5979248329
N   N8        1.0  0.60120  0.75800  0.60640  1.0000 -0.5979248329
N   N9        1.0  0.70058  0.76720  0.18078  1.0000 -0.4457782327
N   N10       1.0  0.29942  0.26720  0.31922  1.0000 -0.4457782327
N   N11       1.0  0.29942  0.23280  0.81922  1.0000 -0.4457782327
N   N12       1.0  0.70058  0.73280  0.68078  1.0000 -0.4457782327
N   N13       1.0  0.79740  0.73930  0.31830  1.0000 -0.4266609295
N   N14       1.0  0.20260  0.23930  0.18170  1.0000 -0.4266609295
N   N15       1.0  0.20260  0.26070  0.68170  1.0000 -0.4266609295
N   N16       1.0  0.79740  0.76070  0.81830  1.0000 -0.4266609295
N   N17       1.0  0.85070  0.76290  0.39290  1.0000 -0.5979248329
N   N18       1.0  0.14930  0.26290  0.10710  1.0000 -0.5979248329
N   N19       1.0  0.14930  0.23710  0.60710  1.0000 -0.5979248329
N   N20       1.0  0.85070  0.73710  0.89290  1.0000 -0.5979248329
N   N21       1.0  0.75860  0.75970  0.44840  1.0000 -0.7401312974
N   N22       1.0  0.24140  0.25970  0.05160  1.0000 -0.7401312974
N   N23       1.0  0.24140  0.24030  0.55160  1.0000 -0.7401312974
N   N24       1.0  0.75860  0.74030  0.94840  1.0000 -0.7345000549
N   N25       1.0  0.88090  0.16230  0.25060  1.0000 -0.3202925518
N   N26       1.0  0.11910  0.66230  0.24940  1.0000 -0.3202925518
N   N27       1.0  0.11910  0.83770  0.74940  1.0000 -0.3202925518
N   N28       1.0  0.88090  0.33770  0.75060  1.0000 -0.3202925518
N   N29       1.0  0.80100  0.95590  0.25660  1.0000 -0.3703828945
N   N30       1.0  0.19900  0.45590  0.24340  1.0000 -0.3703828945
N   N31       1.0  0.19900  0.04410  0.74340  1.0000 -0.3703828945
N   N32       1.0  0.80100  0.54410  0.75660  1.0000 -0.3703828945
N   N33       1.0  0.70330  0.54890  0.24580  1.0000 -0.3913974925
N   N34       1.0  0.29670  0.04890  0.25420  1.0000 -0.3953546926
N   N35       1.0  0.29670  0.45110  0.75420  1.0000 -0.3953546926
N   N36       1.0  0.70330  0.95110  0.74580  1.0000 -0.3913974925
N   N37       1.0  0.62250  0.34720  0.25700  1.0000 -0.3202925518
N   N38       1.0  0.37750  0.84720  0.24300  1.0000 -0.3202925518
N   N39       1.0  0.37750  0.65280  0.74300  1.0000 -0.3202925518
N   N40       1.0  0.62250  0.15280  0.75700  1.0000 -0.3202925518
N   N41       1.0  0.42544  0.30140  0.25084  1.0000 -0.3913974925
N   N42       1.0  0.57456  0.80140  0.24916  1.0000 -0.3913974925
N   N43       1.0  0.57456  0.69860  0.74916  1.0000 -0.3913974925
N   N44       1.0  0.42544  0.19860  0.75084  1.0000 -0.3913974925
N   N45       1.0  0.07480  0.20300  0.25100  1.0000 -0.3913974925
N   N46       1.0  0.92520  0.70300  0.24900  1.0000 -0.3913974925
N   N47       1.0  0.92520  0.79700  0.74900  1.0000 -0.3913974925
N   N48       1.0  0.07480  0.29700  0.75100  1.0000 -0.3913974925
