# DDEC6 charges by PACMAN v1.1 (https://github.com/mtap-research/PACMAN-charge/)
data_2008[Zn][nan]3[FSR]11
_chemical_formula_sum              "Zn8 P8 H64 C52 N8 O24"
_cell_length_a       10.334
_cell_length_b       28.4469
_cell_length_c       11.5451
_cell_angle_alpha    90
_cell_angle_beta     115.309
_cell_angle_gamma    90

_symmetry_space_group_name_H-M    "P 1"
_symmetry_Int_Tables_number       1

loop_
  _symmetry_equiv_pos_as_xyz
  'x, y, z'

loop_
  _atom_site_type_symbol
  _atom_site_label
  _atom_site_symmetry_multiplicity
  _atom_site_fract_x
  _atom_site_fract_y
  _atom_site_fract_z
  _atom_site_occupancy
  _atom_site_charge
Zn  Zn1       1.0  0.09027  0.06233  0.00767  1.0000 0.9071753915
Zn  Zn2       1.0  0.90973  0.56233  0.49233  1.0000 0.9071753915
Zn  Zn3       1.0  0.90973  0.93767  0.99233  1.0000 0.9071753915
Zn  Zn4       1.0  0.09027  0.43767  0.50767  1.0000 0.9071753915
Zn  Zn5       1.0  0.33054  0.47794  0.33425  1.0000 0.9163358506
Zn  Zn6       1.0  0.66946  0.97794  0.16575  1.0000 0.9163358506
Zn  Zn7       1.0  0.66946  0.52206  0.66575  1.0000 0.9163358506
Zn  Zn8       1.0  0.33054  0.02206  0.83425  1.0000 0.9163358506
P   P1        1.0  0.40577  0.04511  0.12297  1.0000 1.1306616809
P   P2        1.0  0.59423  0.54511  0.37703  1.0000 1.1306616809
P   P3        1.0  0.59423  0.95489  0.87703  1.0000 1.1306616809
P   P4        1.0  0.40577  0.45489  0.62297  1.0000 1.1306616809
P   P5        1.0  0.06415  0.97713  0.83037  1.0000 1.0813048627
P   P6        1.0  0.93585  0.47713  0.66963  1.0000 1.0813048627
P   P7        1.0  0.93585  0.02287  0.16963  1.0000 1.0813048627
P   P8        1.0  0.06415  0.52287  0.33037  1.0000 1.0813048627
H   H1        1.0  0.92920  0.14290  0.03270  1.0000 0.1219209408
H   H2        1.0  0.07080  0.64290  0.46730  1.0000 0.1219209408
H   H3        1.0  0.07080  0.85710  0.96730  1.0000 0.1219209408
H   H4        1.0  0.92920  0.35710  0.53270  1.0000 0.1219209408
H   H5        1.0  0.90670  0.22280  0.00060  1.0000 0.1399971765
H   H6        1.0  0.09330  0.72280  0.49940  1.0000 0.1399971765
H   H7        1.0  0.09330  0.77720  0.99940  1.0000 0.1399971765
H   H8        1.0  0.90670  0.27720  0.50060  1.0000 0.1399971765
H   H9        1.0  0.22140  0.21720  0.88070  1.0000 0.1399971765
H   H10       1.0  0.77860  0.71720  0.61930  1.0000 0.1399971765
H   H11       1.0  0.77860  0.78280  0.11930  1.0000 0.1399971765
H   H12       1.0  0.22140  0.28280  0.38070  1.0000 0.1399971765
H   H13       1.0  0.23860  0.13720  0.91920  1.0000 0.1219209408
H   H14       1.0  0.76140  0.63720  0.58080  1.0000 0.1219209408
H   H15       1.0  0.76140  0.86280  0.08080  1.0000 0.1219209408
H   H16       1.0  0.23860  0.36280  0.41920  1.0000 0.1219209408
H   H17       1.0  0.94470  0.28920  0.86330  1.0000 0.1219209408
H   H18       1.0  0.05530  0.78920  0.63670  1.0000 0.1219209408
H   H19       1.0  0.05530  0.71080  0.13670  1.0000 0.1219209408
H   H20       1.0  0.94470  0.21080  0.36330  1.0000 0.1219209408
H   H21       1.0  0.07480  0.29740  0.00040  1.0000 0.1219209408
H   H22       1.0  0.92520  0.79740  0.49960  1.0000 0.1219209408
H   H23       1.0  0.92520  0.70260  0.99960  1.0000 0.1219209408
H   H24       1.0  0.07480  0.20260  0.50040  1.0000 0.1219209408
H   H25       1.0  0.23720  0.29920  0.90780  1.0000 0.098484676
H   H26       1.0  0.76280  0.79920  0.59220  1.0000 0.098484676
H   H27       1.0  0.76280  0.70080  0.09220  1.0000 0.098484676
H   H28       1.0  0.23720  0.20080  0.40780  1.0000 0.098484676
H   H29       1.0  0.11120  0.28750  0.77000  1.0000 0.0908954456
H   H30       1.0  0.88880  0.78750  0.73000  1.0000 0.0908954456
H   H31       1.0  0.88880  0.71250  0.23000  1.0000 0.0908954456
H   H32       1.0  0.11120  0.21250  0.27000  1.0000 0.0908954456
H   H33       1.0  0.15160  0.36820  0.77430  1.0000 0.1219209408
H   H34       1.0  0.84840  0.86820  0.72570  1.0000 0.1219209408
H   H35       1.0  0.84840  0.63180  0.22570  1.0000 0.1219209408
H   H36       1.0  0.15160  0.13180  0.27430  1.0000 0.1219209408
H   H37       1.0  0.99930  0.36140  0.77720  1.0000 0.1219209408
H   H38       1.0  0.00070  0.86140  0.72280  1.0000 0.1219209408
H   H39       1.0  0.00070  0.63860  0.22280  1.0000 0.1219209408
H   H40       1.0  0.99930  0.13860  0.27720  1.0000 0.1219209408
H   H41       1.0  0.96880  0.38490  0.97020  1.0000 0.1399971765
H   H42       1.0  0.03120  0.88490  0.52980  1.0000 0.1399971765
H   H43       1.0  0.03120  0.61510  0.02980  1.0000 0.1399971765
H   H44       1.0  0.96880  0.11510  0.47020  1.0000 0.1399971765
H   H45       1.0  0.05380  0.42740  0.15830  1.0000 0.1219209408
H   H46       1.0  0.94620  0.92740  0.34170  1.0000 0.1219209408
H   H47       1.0  0.94620  0.57260  0.84170  1.0000 0.1219209408
H   H48       1.0  0.05380  0.07260  0.65830  1.0000 0.1219209408
H   H49       1.0  0.43220  0.43990  0.15490  1.0000 0.1264580336
H   H50       1.0  0.56780  0.93990  0.34510  1.0000 0.1264580336
H   H51       1.0  0.56780  0.56010  0.84510  1.0000 0.1264580336
H   H52       1.0  0.43220  0.06010  0.65490  1.0000 0.1264580336
H   H53       1.0  0.35890  0.39560  0.97080  1.0000 0.1399971765
H   H54       1.0  0.64110  0.89560  0.52920  1.0000 0.1399971765
H   H55       1.0  0.64110  0.60440  0.02920  1.0000 0.1399971765
H   H56       1.0  0.35890  0.10440  0.47080  1.0000 0.1399971765
H   H57       1.0  0.47749  0.07940  0.19420  1.0000 -0.1275206733
H   H58       1.0  0.52251  0.57940  0.30580  1.0000 -0.1275206733
H   H59       1.0  0.52251  0.92060  0.80580  1.0000 -0.1244634841
H   H60       1.0  0.47749  0.42060  0.69420  1.0000 -0.1244634841
H   H61       1.0  0.96572  0.96546  0.72730  1.0000 -0.0916696343
H   H62       1.0  0.03428  0.46546  0.77270  1.0000 -0.0916696343
H   H63       1.0  0.03428  0.03454  0.27270  1.0000 -0.0916696343
H   H64       1.0  0.96572  0.53454  0.22730  1.0000 -0.0916696343
C   C1        1.0  0.98973  0.15833  0.00183  1.0000 0.0826564539
C   C2        1.0  0.01027  0.65833  0.49817  1.0000 0.0826564539
C   C3        1.0  0.01027  0.84167  0.99817  1.0000 0.0826564539
C   C4        1.0  0.98973  0.34167  0.50183  1.0000 0.0826564539
C   C5        1.0  0.97549  0.20599  0.98273  1.0000 -0.2100970071
C   C6        1.0  0.02451  0.70599  0.51727  1.0000 -0.2100970071
C   C7        1.0  0.02451  0.79401  0.01727  1.0000 -0.2100970071
C   C8        1.0  0.97549  0.29401  0.48273  1.0000 -0.2100970071
C   C9        1.0  0.06254  0.22965  0.93693  1.0000 0.1728928197
C   C10       1.0  0.93746  0.72965  0.56307  1.0000 0.1728928197
C   C11       1.0  0.93746  0.77035  0.06307  1.0000 0.1728928197
C   C12       1.0  0.06254  0.27035  0.43693  1.0000 0.1728928197
C   C13       1.0  0.16061  0.20268  0.91281  1.0000 -0.2100970071
C   C14       1.0  0.83939  0.70268  0.58719  1.0000 -0.2151223127
C   C15       1.0  0.83939  0.79732  0.08719  1.0000 -0.2100970071
C   C16       1.0  0.16061  0.29732  0.41281  1.0000 -0.2100970071
C   C17       1.0  0.16989  0.15487  0.93527  1.0000 0.098484676
C   C18       1.0  0.83011  0.65487  0.56473  1.0000 0.098484676
C   C19       1.0  0.83011  0.84513  0.06473  1.0000 0.098484676
C   C20       1.0  0.16989  0.34513  0.43527  1.0000 0.098484676
C   C21       1.0  0.04701  0.28203  0.91621  1.0000 -0.2511119548
C   C22       1.0  0.95299  0.78203  0.58379  1.0000 -0.2511119548
C   C23       1.0  0.95299  0.71797  0.08379  1.0000 -0.2511119548
C   C24       1.0  0.04701  0.21797  0.41621  1.0000 -0.2511119548
C   C25       1.0  0.13401  0.30379  0.85226  1.0000 -0.1518095288
C   C26       1.0  0.86599  0.80379  0.64774  1.0000 -0.1518095288
C   C27       1.0  0.86599  0.69621  0.14774  1.0000 -0.1518095288
C   C28       1.0  0.13401  0.19621  0.35226  1.0000 -0.1518095288
C   C29       1.0  0.10369  0.35660  0.82689  1.0000 -0.2563027296
C   C30       1.0  0.89631  0.85660  0.67311  1.0000 -0.2563027296
C   C31       1.0  0.89631  0.64340  0.17311  1.0000 -0.2563027296
C   C32       1.0  0.10369  0.14340  0.32689  1.0000 -0.2563027296
C   C33       1.0  0.15454  0.38495  0.94843  1.0000 0.1728928197
C   C34       1.0  0.84546  0.88495  0.55157  1.0000 0.1728928197
C   C35       1.0  0.84546  0.61505  0.05157  1.0000 0.1728928197
C   C36       1.0  0.15454  0.11505  0.44843  1.0000 0.1728928197
C   C37       1.0  0.06528  0.39548  0.00735  1.0000 -0.2100970071
C   C38       1.0  0.93472  0.89548  0.49265  1.0000 -0.2100970071
C   C39       1.0  0.93472  0.60452  0.99265  1.0000 -0.2100970071
C   C40       1.0  0.06528  0.10452  0.50735  1.0000 -0.2100970071
C   C41       1.0  0.11617  0.42112  0.11904  1.0000 0.0826564539
C   C42       1.0  0.88383  0.92112  0.38096  1.0000 0.0826564539
C   C43       1.0  0.88383  0.57888  0.88096  1.0000 0.0826564539
C   C44       1.0  0.11617  0.07888  0.61904  1.0000 0.0826564539
C   C45       1.0  0.33707  0.42808  0.11744  1.0000 0.0908954456
C   C46       1.0  0.66293  0.92808  0.38256  1.0000 0.0908954456
C   C47       1.0  0.66293  0.57192  0.88256  1.0000 0.0908954456
C   C48       1.0  0.33707  0.07192  0.61744  1.0000 0.0908954456
C   C49       1.0  0.29369  0.40196  0.00698  1.0000 -0.1990950335
C   C50       1.0  0.70631  0.90196  0.49302  1.0000 -0.1990950335
C   C51       1.0  0.70631  0.59804  0.99302  1.0000 -0.1990950335
C   C52       1.0  0.29369  0.09804  0.50698  1.0000 -0.1990950335
N   N1        1.0  0.08539  0.13233  0.97899  1.0000 -0.2511119548
N   N2        1.0  0.91461  0.63233  0.52101  1.0000 -0.2511119548
N   N3        1.0  0.91461  0.86767  0.02101  1.0000 -0.2511119548
N   N4        1.0  0.08539  0.36767  0.47899  1.0000 -0.2511119548
N   N5        1.0  0.25098  0.43771  0.17496  1.0000 -0.2511119548
N   N6        1.0  0.74902  0.93771  0.32504  1.0000 -0.2511119548
N   N7        1.0  0.74902  0.56229  0.82504  1.0000 -0.2511119548
N   N8        1.0  0.25098  0.06229  0.67496  1.0000 -0.2511119548
O   O1        1.0  0.37110  0.05875  0.98603  1.0000 -0.7405763123
O   O2        1.0  0.62890  0.55875  0.51397  1.0000 -0.7405763123
O   O3        1.0  0.62890  0.94125  0.01397  1.0000 -0.7405763123
O   O4        1.0  0.37110  0.44125  0.48603  1.0000 -0.7405763123
O   O5        1.0  0.26972  0.04005  0.14389  1.0000 -0.6920281801
O   O6        1.0  0.73028  0.54005  0.35611  1.0000 -0.6920281801
O   O7        1.0  0.73028  0.95995  0.85611  1.0000 -0.6920281801
O   O8        1.0  0.26972  0.45995  0.64389  1.0000 -0.6920281801
O   O9        1.0  0.04390  0.02896  0.84896  1.0000 -0.7326092575
O   O10       1.0  0.95610  0.52896  0.65104  1.0000 -0.7326092575
O   O11       1.0  0.95610  0.97104  0.15104  1.0000 -0.7326092575
O   O12       1.0  0.04390  0.47104  0.34896  1.0000 -0.7326092575
O   O13       1.0  0.20411  0.96879  0.81816  1.0000 -0.6971843233
O   O14       1.0  0.79589  0.46879  0.68184  1.0000 -0.6971843233
O   O15       1.0  0.79589  0.03121  0.18184  1.0000 -0.6920281801
O   O16       1.0  0.20411  0.53121  0.31816  1.0000 -0.6971843233
O   O17       1.0  0.05671  0.94508  0.93197  1.0000 -0.6971843233
O   O18       1.0  0.94329  0.44508  0.56803  1.0000 -0.6971843233
O   O19       1.0  0.94329  0.05492  0.06803  1.0000 -0.6971843233
O   O20       1.0  0.05671  0.55492  0.43197  1.0000 -0.6971843233
O   O21       1.0  0.49728  0.00162  0.17110  1.0000 -0.6971843233
O   O22       1.0  0.50272  0.50162  0.32890  1.0000 -0.6971843233
O   O23       1.0  0.50272  0.99838  0.82890  1.0000 -0.6971843233
O   O24       1.0  0.49728  0.49838  0.67110  1.0000 -0.6971843233
