# DDEC6 charges by PACMAN v1.1 (https://github.com/mtap-research/PACMAN-charge/)
data_2009[Cd][nuc]3[FSR]2
_chemical_formula_sum              "Cd4 H144 C192 N48"
_cell_length_a       15.916
_cell_length_b       15.916
_cell_length_c       21.495
_cell_angle_alpha    90
_cell_angle_beta     90
_cell_angle_gamma    90

_symmetry_space_group_name_H-M    "P 1"
_symmetry_Int_Tables_number       1

loop_
  _symmetry_equiv_pos_as_xyz
  'x, y, z'

loop_
  _atom_site_type_symbol
  _atom_site_label
  _atom_site_symmetry_multiplicity
  _atom_site_fract_x
  _atom_site_fract_y
  _atom_site_fract_z
  _atom_site_occupancy
  _atom_site_charge
Cd  Cd1       1.0  0.94092  0.05908  0.25000  1.0000 0.6462272439
Cd  Cd2       1.0  0.05908  0.94092  0.75000  1.0000 0.6462272439
Cd  Cd3       1.0  0.44092  0.44092  0.50000  1.0000 0.6462272439
Cd  Cd4       1.0  0.55908  0.55908  0.00000  1.0000 0.6462272439
H   H1        1.0  0.25790  0.50290  0.57130  1.0000 0.0937058738
H   H2        1.0  0.74210  0.49710  0.07130  1.0000 0.0937058738
H   H3        1.0  0.99710  0.75790  0.82130  1.0000 0.0937058738
H   H4        1.0  0.00290  0.24210  0.32130  1.0000 0.0937058738
H   H5        1.0  0.24210  0.00290  0.67870  1.0000 0.0937058738
H   H6        1.0  0.75790  0.99710  0.17870  1.0000 0.0937058738
H   H7        1.0  0.50290  0.25790  0.42870  1.0000 0.0937058738
H   H8        1.0  0.49710  0.74210  0.92870  1.0000 0.0937058738
H   H9        1.0  0.15000  0.59890  0.56190  1.0000 0.1262861737
H   H10       1.0  0.85000  0.40110  0.06190  1.0000 0.1262861737
H   H11       1.0  0.90110  0.65000  0.81190  1.0000 0.1262861737
H   H12       1.0  0.09890  0.35000  0.31190  1.0000 0.1262861737
H   H13       1.0  0.35000  0.09890  0.68810  1.0000 0.1262861737
H   H14       1.0  0.65000  0.90110  0.18810  1.0000 0.1262861737
H   H15       1.0  0.59890  0.15000  0.43810  1.0000 0.1262861737
H   H16       1.0  0.40110  0.85000  0.93810  1.0000 0.1262861737
H   H17       1.0  0.23840  0.65780  0.39240  1.0000 0.1262861737
H   H18       1.0  0.76160  0.34220  0.89240  1.0000 0.1262861737
H   H19       1.0  0.84220  0.73840  0.64240  1.0000 0.1262861737
H   H20       1.0  0.15780  0.26160  0.14240  1.0000 0.1262861737
H   H21       1.0  0.26160  0.15780  0.85760  1.0000 0.1262861737
H   H22       1.0  0.73840  0.84220  0.35760  1.0000 0.1262861737
H   H23       1.0  0.65780  0.23840  0.60760  1.0000 0.1262861737
H   H24       1.0  0.34220  0.76160  0.10760  1.0000 0.1262861737
H   H25       1.0  0.34500  0.56090  0.40810  1.0000 0.0995985178
H   H26       1.0  0.65500  0.43910  0.90810  1.0000 0.0995985178
H   H27       1.0  0.93910  0.84500  0.65810  1.0000 0.0995985178
H   H28       1.0  0.06090  0.15500  0.15810  1.0000 0.0995985178
H   H29       1.0  0.15500  0.06090  0.84190  1.0000 0.0995985178
H   H30       1.0  0.84500  0.93910  0.34190  1.0000 0.0995985178
H   H31       1.0  0.56090  0.34500  0.59190  1.0000 0.0995985178
H   H32       1.0  0.43910  0.65500  0.09190  1.0000 0.0995985178
H   H33       1.0  0.03560  0.66380  0.53740  1.0000 0.1100361623
H   H34       1.0  0.96440  0.33620  0.03740  1.0000 0.1100361623
H   H35       1.0  0.83620  0.53560  0.78740  1.0000 0.1100361623
H   H36       1.0  0.16380  0.46440  0.28740  1.0000 0.1100361623
H   H37       1.0  0.46440  0.16380  0.71260  1.0000 0.1100361623
H   H38       1.0  0.53560  0.83620  0.21260  1.0000 0.1100361623
H   H39       1.0  0.66380  0.03560  0.46260  1.0000 0.1100361623
H   H40       1.0  0.33620  0.96440  0.96260  1.0000 0.1100361623
H   H41       1.0  0.93380  0.76830  0.52560  1.0000 0.1100361623
H   H42       1.0  0.06620  0.23170  0.02560  1.0000 0.1100361623
H   H43       1.0  0.73170  0.43380  0.77560  1.0000 0.1100361623
H   H44       1.0  0.26830  0.56620  0.27560  1.0000 0.1100361623
H   H45       1.0  0.56620  0.26830  0.72440  1.0000 0.1100361623
H   H46       1.0  0.43380  0.73170  0.22440  1.0000 0.1100361623
H   H47       1.0  0.76830  0.93380  0.47440  1.0000 0.1100361623
H   H48       1.0  0.23170  0.06620  0.97440  1.0000 0.1100361623
H   H49       1.0  0.95470  0.87930  0.45790  1.0000 0.1100361623
H   H50       1.0  0.04530  0.12070  0.95790  1.0000 0.1100361623
H   H51       1.0  0.62070  0.45470  0.70790  1.0000 0.1100361623
H   H52       1.0  0.37930  0.54530  0.20790  1.0000 0.1100361623
H   H53       1.0  0.54530  0.37930  0.79210  1.0000 0.1100361623
H   H54       1.0  0.45470  0.62070  0.29210  1.0000 0.1100361623
H   H55       1.0  0.87930  0.95470  0.54210  1.0000 0.1100361623
H   H56       1.0  0.12070  0.04530  0.04210  1.0000 0.1100361623
H   H57       1.0  0.17710  0.77810  0.40480  1.0000 0.0995985178
H   H58       1.0  0.82290  0.22190  0.90480  1.0000 0.0995985178
H   H59       1.0  0.72190  0.67710  0.65480  1.0000 0.0995985178
H   H60       1.0  0.27810  0.32290  0.15480  1.0000 0.0995985178
H   H61       1.0  0.32290  0.27810  0.84520  1.0000 0.0995985178
H   H62       1.0  0.67710  0.72190  0.34520  1.0000 0.0995985178
H   H63       1.0  0.77810  0.17710  0.59520  1.0000 0.0995985178
H   H64       1.0  0.22190  0.82290  0.09520  1.0000 0.0995985178
H   H65       1.0  0.20260  0.99340  0.20740  1.0000 0.1100361623
H   H66       1.0  0.79740  0.00660  0.70740  1.0000 0.1100361623
H   H67       1.0  0.50660  0.70260  0.45740  1.0000 0.1100361623
H   H68       1.0  0.49340  0.29740  0.95740  1.0000 0.1100361623
H   H69       1.0  0.29740  0.49340  0.04260  1.0000 0.1100361623
H   H70       1.0  0.70260  0.50660  0.54260  1.0000 0.1100361623
H   H71       1.0  0.99340  0.20260  0.79260  1.0000 0.1100361623
H   H72       1.0  0.00660  0.79740  0.29260  1.0000 0.1100361623
H   H73       1.0  0.30140  0.08770  0.16280  1.0000 0.1100361623
H   H74       1.0  0.69860  0.91230  0.66280  1.0000 0.1100361623
H   H75       1.0  0.41230  0.80140  0.41280  1.0000 0.1100361623
H   H76       1.0  0.58770  0.19860  0.91280  1.0000 0.1100361623
H   H77       1.0  0.19860  0.58770  0.08720  1.0000 0.1100361623
H   H78       1.0  0.80140  0.41230  0.58720  1.0000 0.1100361623
H   H79       1.0  0.08770  0.30140  0.83720  1.0000 0.1100361623
H   H80       1.0  0.91230  0.69860  0.33720  1.0000 0.1100361623
H   H81       1.0  0.35420  0.19910  0.21900  1.0000 0.0937058738
H   H82       1.0  0.64580  0.80090  0.71900  1.0000 0.0995985178
H   H83       1.0  0.30090  0.85420  0.46900  1.0000 0.0995985178
H   H84       1.0  0.69910  0.14580  0.96900  1.0000 0.0937058738
H   H85       1.0  0.14580  0.69910  0.03100  1.0000 0.0937058738
H   H86       1.0  0.85420  0.30090  0.53100  1.0000 0.0937058738
H   H87       1.0  0.19910  0.35420  0.78100  1.0000 0.0937058738
H   H88       1.0  0.80090  0.64580  0.28100  1.0000 0.0995985178
H   H89       1.0  0.19510  0.14140  0.36040  1.0000 0.1100361623
H   H90       1.0  0.80490  0.85860  0.86040  1.0000 0.1100361623
H   H91       1.0  0.35860  0.69510  0.61040  1.0000 0.1100361623
H   H92       1.0  0.64140  0.30490  0.11040  1.0000 0.1100361623
H   H93       1.0  0.30490  0.64140  0.88960  1.0000 0.1100361623
H   H94       1.0  0.69510  0.35860  0.38960  1.0000 0.1100361623
H   H95       1.0  0.14140  0.19510  0.63960  1.0000 0.1100361623
H   H96       1.0  0.85860  0.80490  0.13960  1.0000 0.1100361623
H   H97       1.0  0.41590  0.28390  0.28360  1.0000 0.1262861737
H   H98       1.0  0.58410  0.71610  0.78360  1.0000 0.1262861737
H   H99       1.0  0.21610  0.91590  0.53360  1.0000 0.1262861737
H   H100      1.0  0.78390  0.08410  0.03360  1.0000 0.1262861737
H   H101      1.0  0.08410  0.78390  0.96640  1.0000 0.1262861737
H   H102      1.0  0.91590  0.21610  0.46640  1.0000 0.1262861737
H   H103      1.0  0.28390  0.41590  0.71640  1.0000 0.1262861737
H   H104      1.0  0.71610  0.58410  0.21640  1.0000 0.1262861737
H   H105      1.0  0.46480  0.38670  0.35030  1.0000 0.0995985178
H   H106      1.0  0.53520  0.61330  0.85030  1.0000 0.0995985178
H   H107      1.0  0.11330  0.96480  0.60030  1.0000 0.0995985178
H   H108      1.0  0.88670  0.03520  0.10030  1.0000 0.0995985178
H   H109      1.0  0.03520  0.88670  0.89970  1.0000 0.0995985178
H   H110      1.0  0.96480  0.11330  0.39970  1.0000 0.0995985178
H   H111      1.0  0.38670  0.46480  0.64970  1.0000 0.0995985178
H   H112      1.0  0.61330  0.53520  0.14970  1.0000 0.0995985178
H   H113      1.0  0.26950  0.36170  0.45890  1.0000 0.0937058738
H   H114      1.0  0.73050  0.63830  0.95890  1.0000 0.0937058738
H   H115      1.0  0.13830  0.76950  0.70890  1.0000 0.0937058738
H   H116      1.0  0.86170  0.23050  0.20890  1.0000 0.0937058738
H   H117      1.0  0.23050  0.86170  0.79110  1.0000 0.0937058738
H   H118      1.0  0.76950  0.13830  0.29110  1.0000 0.0937058738
H   H119      1.0  0.36170  0.26950  0.54110  1.0000 0.0937058738
H   H120      1.0  0.63830  0.73050  0.04110  1.0000 0.0937058738
H   H121      1.0  0.21250  0.26040  0.39520  1.0000 0.1262861737
H   H122      1.0  0.78750  0.73960  0.89520  1.0000 0.1262861737
H   H123      1.0  0.23960  0.71250  0.64520  1.0000 0.1262861737
H   H124      1.0  0.76040  0.28750  0.14520  1.0000 0.1262861737
H   H125      1.0  0.28750  0.76040  0.85480  1.0000 0.1262861737
H   H126      1.0  0.71250  0.23960  0.35480  1.0000 0.1262861737
H   H127      1.0  0.26040  0.21250  0.60480  1.0000 0.1262861737
H   H128      1.0  0.73960  0.78750  0.10480  1.0000 0.1262861737
H   H129      1.0  0.26220  0.90780  0.34830  1.0000 0.2538926277
H   H130      1.0  0.73780  0.09220  0.84830  1.0000 0.2538926277
H   H131      1.0  0.59220  0.76220  0.59830  1.0000 0.2538926277
H   H132      1.0  0.40780  0.23780  0.09830  1.0000 0.2538926277
H   H133      1.0  0.23780  0.40780  0.90170  1.0000 0.2538926277
H   H134      1.0  0.76220  0.59220  0.40170  1.0000 0.2538926277
H   H135      1.0  0.90780  0.26220  0.65170  1.0000 0.2538926277
H   H136      1.0  0.09220  0.73780  0.15170  1.0000 0.2538926277
H   H137      1.0  0.25470  0.97250  0.39780  1.0000 0.2560130341
H   H138      1.0  0.74530  0.02750  0.89780  1.0000 0.2560130341
H   H139      1.0  0.52750  0.75470  0.64780  1.0000 0.2538926277
H   H140      1.0  0.47250  0.24530  0.14780  1.0000 0.2560130341
H   H141      1.0  0.24530  0.47250  0.85220  1.0000 0.2560130341
H   H142      1.0  0.75470  0.52750  0.35220  1.0000 0.2560130341
H   H143      1.0  0.97250  0.25470  0.60220  1.0000 0.2560130341
H   H144      1.0  0.02750  0.74530  0.10220  1.0000 0.2538926277
C   C1        1.0  0.25510  0.53620  0.53470  1.0000 0.056509703
C   C2        1.0  0.74490  0.46380  0.03470  1.0000 0.056509703
C   C3        1.0  0.96380  0.75510  0.78470  1.0000 0.056509703
C   C4        1.0  0.03620  0.24490  0.28470  1.0000 0.056509703
C   C5        1.0  0.24490  0.03620  0.71530  1.0000 0.056509703
C   C6        1.0  0.75510  0.96380  0.21530  1.0000 0.056509703
C   C7        1.0  0.53620  0.25510  0.46530  1.0000 0.056509703
C   C8        1.0  0.46380  0.74490  0.96530  1.0000 0.056509703
C   C9        1.0  0.19000  0.59360  0.52930  1.0000 -0.2078236681
C   C10       1.0  0.81000  0.40640  0.02930  1.0000 -0.2078236681
C   C11       1.0  0.90640  0.69000  0.77930  1.0000 -0.2078236681
C   C12       1.0  0.09360  0.31000  0.27930  1.0000 -0.2078236681
C   C13       1.0  0.31000  0.09360  0.72070  1.0000 -0.2078236681
C   C14       1.0  0.69000  0.90640  0.22070  1.0000 -0.2078236681
C   C15       1.0  0.59360  0.19000  0.47070  1.0000 -0.2078236681
C   C16       1.0  0.40640  0.81000  0.97070  1.0000 -0.2078236681
C   C17       1.0  0.18320  0.64280  0.47700  1.0000 0.1100361623
C   C18       1.0  0.81680  0.35720  0.97700  1.0000 0.1100361623
C   C19       1.0  0.85720  0.68320  0.72700  1.0000 0.1100361623
C   C20       1.0  0.14280  0.31680  0.22700  1.0000 0.1100361623
C   C21       1.0  0.31680  0.14280  0.77300  1.0000 0.1100361623
C   C22       1.0  0.68320  0.85720  0.27300  1.0000 0.1100361623
C   C23       1.0  0.64280  0.18320  0.52300  1.0000 0.1100361623
C   C24       1.0  0.35720  0.81680  0.02300  1.0000 0.1100361623
C   C25       1.0  0.24160  0.62810  0.43070  1.0000 -0.200596902
C   C26       1.0  0.75840  0.37190  0.93070  1.0000 -0.200596902
C   C27       1.0  0.87190  0.74160  0.68070  1.0000 -0.200596902
C   C28       1.0  0.12810  0.25840  0.18070  1.0000 -0.200596902
C   C29       1.0  0.25840  0.12810  0.81930  1.0000 -0.200596902
C   C30       1.0  0.74160  0.87190  0.31930  1.0000 -0.200596902
C   C31       1.0  0.62810  0.24160  0.56930  1.0000 -0.200596902
C   C32       1.0  0.37190  0.75840  0.06930  1.0000 -0.200596902
C   C33       1.0  0.30510  0.56950  0.44040  1.0000 0.070488394
C   C34       1.0  0.69490  0.43050  0.94040  1.0000 0.070488394
C   C35       1.0  0.93050  0.80510  0.69040  1.0000 0.070488394
C   C36       1.0  0.06950  0.19490  0.19040  1.0000 0.070488394
C   C37       1.0  0.19490  0.06950  0.80960  1.0000 0.070488394
C   C38       1.0  0.80510  0.93050  0.30960  1.0000 0.070488394
C   C39       1.0  0.56950  0.30510  0.55960  1.0000 0.070488394
C   C40       1.0  0.43050  0.69490  0.05960  1.0000 0.070488394
C   C41       1.0  0.11770  0.70860  0.47100  1.0000 0.070488394
C   C42       1.0  0.88230  0.29140  0.97100  1.0000 0.070488394
C   C43       1.0  0.79140  0.61770  0.72100  1.0000 0.070488394
C   C44       1.0  0.20860  0.38230  0.22100  1.0000 0.070488394
C   C45       1.0  0.38230  0.20860  0.77900  1.0000 0.070488394
C   C46       1.0  0.61770  0.79140  0.27900  1.0000 0.070488394
C   C47       1.0  0.70860  0.11770  0.52900  1.0000 0.070488394
C   C48       1.0  0.29140  0.88230  0.02900  1.0000 0.070488394
C   C49       1.0  0.04400  0.70760  0.50810  1.0000 -0.17147988
C   C50       1.0  0.95600  0.29240  0.00810  1.0000 -0.17147988
C   C51       1.0  0.79240  0.54400  0.75810  1.0000 -0.17147988
C   C52       1.0  0.20760  0.45600  0.25810  1.0000 -0.17147988
C   C53       1.0  0.45600  0.20760  0.74190  1.0000 -0.17147988
C   C54       1.0  0.54400  0.79240  0.24190  1.0000 -0.17147988
C   C55       1.0  0.70760  0.04400  0.49190  1.0000 -0.17147988
C   C56       1.0  0.29240  0.95600  0.99190  1.0000 -0.17147988
C   C57       1.0  0.98390  0.77080  0.50170  1.0000 -0.1075972658
C   C58       1.0  0.01610  0.22920  0.00170  1.0000 -0.1075972658
C   C59       1.0  0.72920  0.48390  0.75170  1.0000 -0.1075972658
C   C60       1.0  0.27080  0.51610  0.25170  1.0000 -0.1075972658
C   C61       1.0  0.51610  0.27080  0.74830  1.0000 -0.1075972658
C   C62       1.0  0.48390  0.72920  0.24830  1.0000 -0.1075972658
C   C63       1.0  0.77080  0.98390  0.49830  1.0000 -0.1075972658
C   C64       1.0  0.22920  0.01610  0.99830  1.0000 -0.1075972658
C   C65       1.0  0.99590  0.83640  0.46140  1.0000 -0.1606001151
C   C66       1.0  0.00410  0.16360  0.96140  1.0000 -0.1606001151
C   C67       1.0  0.66360  0.49590  0.71140  1.0000 -0.1606001151
C   C68       1.0  0.33640  0.50410  0.21140  1.0000 -0.1606001151
C   C69       1.0  0.50410  0.33640  0.78860  1.0000 -0.1606001151
C   C70       1.0  0.49590  0.66360  0.28860  1.0000 -0.1606001151
C   C71       1.0  0.83640  0.99590  0.53860  1.0000 -0.1606001151
C   C72       1.0  0.16360  0.00410  0.03860  1.0000 -0.1606001151
C   C73       1.0  0.06920  0.83990  0.42540  1.0000 0.0320803905
C   C74       1.0  0.93080  0.16010  0.92540  1.0000 0.0320803905
C   C75       1.0  0.66010  0.56920  0.67540  1.0000 0.0320803905
C   C76       1.0  0.33990  0.43080  0.17540  1.0000 0.0320803905
C   C77       1.0  0.43080  0.33990  0.82460  1.0000 0.0320803905
C   C78       1.0  0.56920  0.66010  0.32460  1.0000 0.0320803905
C   C79       1.0  0.83990  0.06920  0.57460  1.0000 0.0320803905
C   C80       1.0  0.16010  0.93080  0.07460  1.0000 0.0320803905
C   C81       1.0  0.12820  0.77600  0.43010  1.0000 -0.200596902
C   C82       1.0  0.87180  0.22400  0.93010  1.0000 -0.200596902
C   C83       1.0  0.72400  0.62820  0.68010  1.0000 -0.200596902
C   C84       1.0  0.27600  0.37180  0.18010  1.0000 -0.200596902
C   C85       1.0  0.37180  0.27600  0.81990  1.0000 -0.200596902
C   C86       1.0  0.62820  0.72400  0.31990  1.0000 -0.200596902
C   C87       1.0  0.77600  0.12820  0.56990  1.0000 -0.200596902
C   C88       1.0  0.22400  0.87180  0.06990  1.0000 -0.200596902
C   C89       1.0  0.07670  0.90870  0.38170  1.0000 0.1753657158
C   C90       1.0  0.92330  0.09130  0.88170  1.0000 0.1753657158
C   C91       1.0  0.59130  0.57670  0.63170  1.0000 0.1753657158
C   C92       1.0  0.40870  0.42330  0.13170  1.0000 0.1753657158
C   C93       1.0  0.42330  0.40870  0.86830  1.0000 0.1753657158
C   C94       1.0  0.57670  0.59130  0.36830  1.0000 0.1753657158
C   C95       1.0  0.90870  0.07670  0.61830  1.0000 0.1753657158
C   C96       1.0  0.09130  0.92330  0.11830  1.0000 0.1753657158
C   C97       1.0  0.12780  0.00510  0.31940  1.0000 0.1648842874
C   C98       1.0  0.87220  0.99490  0.81940  1.0000 0.1648842874
C   C99       1.0  0.49490  0.62780  0.56940  1.0000 0.1653561029
C   C100      1.0  0.50510  0.37220  0.06940  1.0000 0.1648842874
C   C101      1.0  0.37220  0.50510  0.93060  1.0000 0.1648842874
C   C102      1.0  0.62780  0.49490  0.43060  1.0000 0.1648842874
C   C103      1.0  0.00510  0.12780  0.68060  1.0000 0.1648842874
C   C104      1.0  0.99490  0.87220  0.18060  1.0000 0.1648842874
C   C105      1.0  0.18990  0.05910  0.28860  1.0000 0.0197644242
C   C106      1.0  0.81010  0.94090  0.78860  1.0000 0.0197644242
C   C107      1.0  0.44090  0.68990  0.53860  1.0000 0.0197644242
C   C108      1.0  0.55910  0.31010  0.03860  1.0000 0.0197644242
C   C109      1.0  0.31010  0.55910  0.96140  1.0000 0.0197644242
C   C110      1.0  0.68990  0.44090  0.46140  1.0000 0.0197644242
C   C111      1.0  0.05910  0.18990  0.71140  1.0000 0.0197644242
C   C112      1.0  0.94090  0.81010  0.21140  1.0000 0.0197644242
C   C113      1.0  0.22110  0.04150  0.22980  1.0000 -0.17147988
C   C114      1.0  0.77890  0.95850  0.72980  1.0000 -0.17147988
C   C115      1.0  0.45850  0.72110  0.47980  1.0000 -0.17147988
C   C116      1.0  0.54150  0.27890  0.97980  1.0000 -0.17147988
C   C117      1.0  0.27890  0.54150  0.02020  1.0000 -0.17147988
C   C118      1.0  0.72110  0.45850  0.52020  1.0000 -0.17147988
C   C119      1.0  0.04150  0.22110  0.77020  1.0000 -0.17147988
C   C120      1.0  0.95850  0.77890  0.27020  1.0000 -0.17147988
C   C121      1.0  0.28160  0.09740  0.20380  1.0000 -0.1036754255
C   C122      1.0  0.71840  0.90260  0.70380  1.0000 -0.1036754255
C   C123      1.0  0.40260  0.78160  0.45380  1.0000 -0.1036754255
C   C124      1.0  0.59740  0.21840  0.95380  1.0000 -0.1036754255
C   C125      1.0  0.21840  0.59740  0.04620  1.0000 -0.1036754255
C   C126      1.0  0.78160  0.40260  0.54620  1.0000 -0.1036754255
C   C127      1.0  0.09740  0.28160  0.79620  1.0000 -0.1036754255
C   C128      1.0  0.90260  0.71840  0.29620  1.0000 -0.1036754255
C   C129      1.0  0.31170  0.16450  0.23640  1.0000 -0.17147988
C   C130      1.0  0.68830  0.83550  0.73640  1.0000 -0.17147988
C   C131      1.0  0.33550  0.81170  0.48640  1.0000 -0.17147988
C   C132      1.0  0.66450  0.18830  0.98640  1.0000 -0.17147988
C   C133      1.0  0.18830  0.66450  0.01360  1.0000 -0.17147988
C   C134      1.0  0.81170  0.33550  0.51360  1.0000 -0.17147988
C   C135      1.0  0.16450  0.31170  0.76360  1.0000 -0.17147988
C   C136      1.0  0.83550  0.68830  0.26360  1.0000 -0.17147988
C   C137      1.0  0.27930  0.18210  0.29610  1.0000 0.070488394
C   C138      1.0  0.72070  0.81790  0.79610  1.0000 0.070488394
C   C139      1.0  0.31790  0.77930  0.54610  1.0000 0.070488394
C   C140      1.0  0.68210  0.22070  0.04610  1.0000 0.070488394
C   C141      1.0  0.22070  0.68210  0.95390  1.0000 0.070488394
C   C142      1.0  0.77930  0.31790  0.45390  1.0000 0.070488394
C   C143      1.0  0.18210  0.27930  0.70390  1.0000 0.070488394
C   C144      1.0  0.81790  0.72070  0.20390  1.0000 0.070488394
C   C145      1.0  0.21810  0.12920  0.32070  1.0000 -0.2078236681
C   C146      1.0  0.78190  0.87080  0.82070  1.0000 -0.2078236681
C   C147      1.0  0.37080  0.71810  0.57070  1.0000 -0.2078236681
C   C148      1.0  0.62920  0.28190  0.07070  1.0000 -0.2078236681
C   C149      1.0  0.28190  0.62920  0.92930  1.0000 -0.2078236681
C   C150      1.0  0.71810  0.37080  0.42930  1.0000 -0.2078236681
C   C151      1.0  0.12920  0.21810  0.67930  1.0000 -0.2078236681
C   C152      1.0  0.87080  0.78190  0.17930  1.0000 -0.2078236681
C   C153      1.0  0.30970  0.25480  0.33340  1.0000 0.1100361623
C   C154      1.0  0.69030  0.74520  0.83340  1.0000 0.1154653388
C   C155      1.0  0.24520  0.80970  0.58340  1.0000 0.1154653388
C   C156      1.0  0.75480  0.19030  0.08340  1.0000 0.1100361623
C   C157      1.0  0.19030  0.75480  0.91660  1.0000 0.1100361623
C   C158      1.0  0.80970  0.24520  0.41660  1.0000 0.1154653388
C   C159      1.0  0.25480  0.30970  0.66667  1.0000 0.1154653388
C   C160      1.0  0.74520  0.69030  0.16660  1.0000 0.1154653388
C   C161      1.0  0.38500  0.29720  0.32010  1.0000 -0.2157546547
C   C162      1.0  0.61500  0.70280  0.82010  1.0000 -0.2157546547
C   C163      1.0  0.20280  0.88500  0.57010  1.0000 -0.2157546547
C   C164      1.0  0.79720  0.11500  0.07010  1.0000 -0.2157546547
C   C165      1.0  0.11500  0.79720  0.92990  1.0000 -0.2157546547
C   C166      1.0  0.88500  0.20280  0.42990  1.0000 -0.2157546547
C   C167      1.0  0.29720  0.38500  0.67990  1.0000 -0.2157546547
C   C168      1.0  0.70280  0.61500  0.17990  1.0000 -0.2157546547
C   C169      1.0  0.41410  0.35860  0.36070  1.0000 0.070488394
C   C170      1.0  0.58590  0.64140  0.86070  1.0000 0.070488394
C   C171      1.0  0.14140  0.91410  0.61070  1.0000 0.070488394
C   C172      1.0  0.85860  0.08590  0.11070  1.0000 0.070488394
C   C173      1.0  0.08590  0.85860  0.88930  1.0000 0.070488394
C   C174      1.0  0.91410  0.14140  0.38930  1.0000 0.070488394
C   C175      1.0  0.35860  0.41410  0.63930  1.0000 0.070488394
C   C176      1.0  0.64140  0.58590  0.13930  1.0000 0.070488394
C   C177      1.0  0.30050  0.34420  0.42340  1.0000 0.0197644242
C   C178      1.0  0.69950  0.65580  0.92340  1.0000 0.0197644242
C   C179      1.0  0.15580  0.80050  0.67340  1.0000 0.0197644242
C   C180      1.0  0.84420  0.19950  0.17340  1.0000 0.0197644242
C   C181      1.0  0.19950  0.84420  0.82660  1.0000 0.0197644242
C   C182      1.0  0.80050  0.15580  0.32660  1.0000 0.0197644242
C   C183      1.0  0.34420  0.30050  0.57660  1.0000 0.0197644242
C   C184      1.0  0.65580  0.69950  0.07660  1.0000 0.0197644242
C   C185      1.0  0.26610  0.28320  0.38560  1.0000 -0.2078236681
C   C186      1.0  0.73390  0.71680  0.88560  1.0000 -0.2078236681
C   C187      1.0  0.21680  0.76610  0.63560  1.0000 -0.2078236681
C   C188      1.0  0.78320  0.23390  0.13560  1.0000 -0.2078236681
C   C189      1.0  0.23390  0.78320  0.86440  1.0000 -0.2078236681
C   C190      1.0  0.76610  0.21680  0.36440  1.0000 -0.2078236681
C   C191      1.0  0.28320  0.26610  0.61440  1.0000 -0.2078236681
C   C192      1.0  0.71680  0.73390  0.11440  1.0000 -0.2078236681
N   N1        1.0  0.01300  0.94590  0.35520  1.0000 -0.280830231
N   N2        1.0  0.98700  0.05410  0.85520  1.0000 -0.280830231
N   N3        1.0  0.55410  0.51300  0.60520  1.0000 -0.280830231
N   N4        1.0  0.44590  0.48700  0.10520  1.0000 -0.280830231
N   N5        1.0  0.48700  0.44590  0.89480  1.0000 -0.280830231
N   N6        1.0  0.51300  0.55410  0.39480  1.0000 -0.280830231
N   N7        1.0  0.94590  0.01300  0.64480  1.0000 -0.280830231
N   N8        1.0  0.05410  0.98700  0.14480  1.0000 -0.280830231
N   N9        1.0  0.04490  0.00750  0.31620  1.0000 -0.2406266448
N   N10       1.0  0.95510  0.99250  0.81620  1.0000 -0.2406266448
N   N11       1.0  0.49250  0.54490  0.56620  1.0000 -0.2406266448
N   N12       1.0  0.50750  0.45510  0.06620  1.0000 -0.2406266448
N   N13       1.0  0.45510  0.50750  0.93380  1.0000 -0.2406266448
N   N14       1.0  0.54490  0.49250  0.43380  1.0000 -0.2406266448
N   N15       1.0  0.00750  0.04490  0.68380  1.0000 -0.2406266448
N   N16       1.0  0.99250  0.95510  0.18380  1.0000 -0.2406266448
N   N17       1.0  0.14980  0.94470  0.36010  1.0000 0.070488394
N   N18       1.0  0.85020  0.05530  0.86010  1.0000 0.070488394
N   N19       1.0  0.55530  0.64980  0.61010  1.0000 0.070488394
N   N20       1.0  0.44470  0.35020  0.11010  1.0000 0.070488394
N   N21       1.0  0.35020  0.44470  0.88990  1.0000 0.070488394
N   N22       1.0  0.64980  0.55530  0.38990  1.0000 0.070488394
N   N23       1.0  0.94470  0.14980  0.63990  1.0000 0.070488394
N   N24       1.0  0.05530  0.85020  0.13990  1.0000 0.070488394
N   N25       1.0  0.23080  0.92570  0.38110  1.0000 -0.5126326051
N   N26       1.0  0.76920  0.07430  0.88110  1.0000 -0.5126326051
N   N27       1.0  0.57430  0.73080  0.63110  1.0000 -0.5126326051
N   N28       1.0  0.42570  0.26920  0.13110  1.0000 -0.5126326051
N   N29       1.0  0.26920  0.42570  0.86890  1.0000 -0.5126326051
N   N30       1.0  0.73080  0.57430  0.36890  1.0000 -0.5126326051
N   N31       1.0  0.92570  0.23080  0.61890  1.0000 -0.5126326051
N   N32       1.0  0.07430  0.76920  0.11890  1.0000 -0.5126326051
N   N33       1.0  0.37600  0.38030  0.41250  1.0000 -0.2317439145
N   N34       1.0  0.62400  0.61970  0.91250  1.0000 -0.2317439145
N   N35       1.0  0.11970  0.87600  0.66250  1.0000 -0.2317439145
N   N36       1.0  0.88030  0.12400  0.16250  1.0000 -0.2317439145
N   N37       1.0  0.12400  0.88030  0.83750  1.0000 -0.2317439145
N   N38       1.0  0.87600  0.11970  0.33750  1.0000 -0.2317439145
N   N39       1.0  0.38030  0.37600  0.58750  1.0000 -0.2317439145
N   N40       1.0  0.61970  0.62400  0.08750  1.0000 -0.2317439145
N   N41       1.0  0.31320  0.52520  0.49180  1.0000 -0.2317439145
N   N42       1.0  0.68680  0.47480  0.99180  1.0000 -0.2317439145
N   N43       1.0  0.97480  0.81320  0.74180  1.0000 -0.2317439145
N   N44       1.0  0.02520  0.18680  0.24180  1.0000 -0.2317439145
N   N45       1.0  0.18680  0.02520  0.75820  1.0000 -0.2317439145
N   N46       1.0  0.81320  0.97480  0.25820  1.0000 -0.2317439145
N   N47       1.0  0.52520  0.31320  0.50820  1.0000 -0.2317439145
N   N48       1.0  0.47480  0.68680  0.00820  1.0000 -0.2317439145
