# DDEC6 charges by PACMAN v1.1 (https://github.com/mtap-research/PACMAN-charge/)
data_2010[Cd][pcu]3[FSR]1
_chemical_formula_sum              "Cd2 H60 C72 N24"
_cell_length_a       8.2969
_cell_length_b       21.756
_cell_length_c       14.305
_cell_angle_alpha    90
_cell_angle_beta     110.61
_cell_angle_gamma    90

_symmetry_space_group_name_H-M    "P 1"
_symmetry_Int_Tables_number       1

loop_
  _symmetry_equiv_pos_as_xyz
  'x, y, z'

loop_
  _atom_site_type_symbol
  _atom_site_label
  _atom_site_symmetry_multiplicity
  _atom_site_fract_x
  _atom_site_fract_y
  _atom_site_fract_z
  _atom_site_occupancy
  _atom_site_charge
Cd  Cd1       1.0  0.50000  0.00000  0.00000  1.0000 0.6798053878
Cd  Cd2       1.0  0.50000  0.50000  0.50000  1.0000 0.6798053878
H   H1        1.0  0.31350  0.13480  0.88310  1.0000 0.1006853963
H   H2        1.0  0.68650  0.63480  0.61690  1.0000 0.1006853963
H   H3        1.0  0.68650  0.86520  0.11690  1.0000 0.1006853963
H   H4        1.0  0.31350  0.36520  0.38310  1.0000 0.1006853963
H   H5        1.0  0.06510  0.98000  0.85820  1.0000 0.112616725
H   H6        1.0  0.93490  0.48000  0.64180  1.0000 0.112616725
H   H7        1.0  0.93490  0.02000  0.14180  1.0000 0.112616725
H   H8        1.0  0.06510  0.52000  0.35820  1.0000 0.112616725
H   H9        1.0  0.87030  0.05210  0.74330  1.0000 0.112616725
H   H10       1.0  0.12970  0.55210  0.75670  1.0000 0.112616725
H   H11       1.0  0.12970  0.94790  0.25670  1.0000 0.112616725
H   H12       1.0  0.87030  0.44790  0.24330  1.0000 0.112616725
H   H13       1.0  0.76790  0.16420  0.74410  1.0000 0.1173279712
H   H14       1.0  0.23210  0.66420  0.75590  1.0000 0.1173279712
H   H15       1.0  0.23210  0.83580  0.25590  1.0000 0.1173279712
H   H16       1.0  0.76790  0.33580  0.24410  1.0000 0.1173279712
H   H17       1.0  0.22690  0.19390  0.72090  1.0000 0.112616725
H   H18       1.0  0.77310  0.69390  0.77910  1.0000 0.112616725
H   H19       1.0  0.77310  0.80610  0.27910  1.0000 0.112616725
H   H20       1.0  0.22690  0.30610  0.22090  1.0000 0.112616725
H   H21       1.0  0.58550  0.97470  0.25430  1.0000 0.1006853963
H   H22       1.0  0.41450  0.47470  0.24570  1.0000 0.1006853963
H   H23       1.0  0.41450  0.02530  0.74570  1.0000 0.1006853963
H   H24       1.0  0.58550  0.52530  0.75430  1.0000 0.1006853963
H   H25       1.0  0.27060  0.10080  0.10000  1.0000 0.1006853963
H   H26       1.0  0.72940  0.60080  0.40000  1.0000 0.1006853963
H   H27       1.0  0.72940  0.89920  0.90000  1.0000 0.1006853963
H   H28       1.0  0.27060  0.39920  0.60000  1.0000 0.1006853963
H   H29       1.0  0.26110  0.10340  0.26920  1.0000 0.1173279712
H   H30       1.0  0.73890  0.60340  0.23080  1.0000 0.1173279712
H   H31       1.0  0.73890  0.89660  0.73080  1.0000 0.1173279712
H   H32       1.0  0.26110  0.39660  0.76920  1.0000 0.1173279712
H   H33       1.0  0.41530  0.09870  0.44480  1.0000 0.1173279712
H   H34       1.0  0.58470  0.59870  0.05520  1.0000 0.1173279712
H   H35       1.0  0.58470  0.90130  0.55520  1.0000 0.1173279712
H   H36       1.0  0.41530  0.40130  0.94480  1.0000 0.1173279712
H   H37       1.0  0.53290  0.92760  0.38980  1.0000 0.112616725
H   H38       1.0  0.46710  0.42760  0.11020  1.0000 0.1173279712
H   H39       1.0  0.46710  0.07240  0.61020  1.0000 0.1173279712
H   H40       1.0  0.53290  0.57240  0.88980  1.0000 0.1173279712
H   H41       1.0  0.63860  0.36260  0.62160  1.0000 0.1006853963
H   H42       1.0  0.36140  0.86260  0.87840  1.0000 0.1006853963
H   H43       1.0  0.36140  0.63740  0.37840  1.0000 0.1006853963
H   H44       1.0  0.63860  0.13740  0.12160  1.0000 0.1006853963
H   H45       1.0  0.77760  0.42370  0.40600  1.0000 0.1006853963
H   H46       1.0  0.22240  0.92370  0.09400  1.0000 0.1006853963
H   H47       1.0  0.22240  0.57630  0.59400  1.0000 0.1006853963
H   H48       1.0  0.77760  0.07630  0.90600  1.0000 0.1006853963
H   H49       1.0  0.94910  0.33170  0.47130  1.0000 0.1173279712
H   H50       1.0  0.05090  0.83170  0.02870  1.0000 0.1173279712
H   H51       1.0  0.05090  0.66830  0.52870  1.0000 0.1173279712
H   H52       1.0  0.94910  0.16830  0.97130  1.0000 0.1173279712
H   H53       1.0  0.65910  0.25090  0.64750  1.0000 0.112616725
H   H54       1.0  0.34090  0.75090  0.85250  1.0000 0.112616725
H   H55       1.0  0.34090  0.74910  0.35250  1.0000 0.112616725
H   H56       1.0  0.65910  0.24910  0.14750  1.0000 0.112616725
H   H57       1.0  0.12410  0.28310  0.63190  1.0000 0.1173279712
H   H58       1.0  0.87590  0.78310  0.86810  1.0000 0.1173279712
H   H59       1.0  0.87590  0.71690  0.36810  1.0000 0.112616725
H   H60       1.0  0.12410  0.21690  0.13190  1.0000 0.1173279712
C   C1        1.0  0.22770  0.10510  0.86290  1.0000 0.0496682642
C   C2        1.0  0.77230  0.60510  0.63710  1.0000 0.0496682642
C   C3        1.0  0.77230  0.89490  0.13710  1.0000 0.0496682642
C   C4        1.0  0.22770  0.39490  0.36290  1.0000 0.0496682642
C   C5        1.0  0.09120  0.02060  0.84880  1.0000 -0.0622477382
C   C6        1.0  0.90880  0.52060  0.65120  1.0000 -0.0622477382
C   C7        1.0  0.90880  0.97940  0.15120  1.0000 -0.0622477382
C   C8        1.0  0.09120  0.47940  0.34880  1.0000 -0.0622477382
C   C9        1.0  0.98260  0.06010  0.78530  1.0000 -0.1483730051
C   C10       1.0  0.01740  0.56010  0.71470  1.0000 -0.1483730051
C   C11       1.0  0.01740  0.93990  0.21470  1.0000 -0.1483730051
C   C12       1.0  0.98260  0.43990  0.28530  1.0000 -0.1483730051
C   C13       1.0  0.00670  0.17030  0.74050  1.0000 0.1393598664
C   C14       1.0  0.99330  0.67030  0.75950  1.0000 0.1393598664
C   C15       1.0  0.99330  0.82970  0.25950  1.0000 0.1393598664
C   C16       1.0  0.00670  0.32970  0.24050  1.0000 0.1393598664
C   C17       1.0  0.83870  0.18750  0.71990  1.0000 -0.1812803982
C   C18       1.0  0.16130  0.68750  0.78010  1.0000 -0.1812803982
C   C19       1.0  0.16130  0.81250  0.28010  1.0000 -0.1812803982
C   C20       1.0  0.83870  0.31250  0.21990  1.0000 -0.1812803982
C   C21       1.0  0.11310  0.20570  0.70700  1.0000 -0.1812803982
C   C22       1.0  0.88690  0.70570  0.79300  1.0000 -0.1812803982
C   C23       1.0  0.88690  0.79430  0.29300  1.0000 -0.1812803982
C   C24       1.0  0.11310  0.29430  0.20700  1.0000 -0.1812803982
C   C25       1.0  0.50490  0.00630  0.23650  1.0000 0.0496682642
C   C26       1.0  0.49510  0.50630  0.26350  1.0000 0.0496682642
C   C27       1.0  0.49510  0.99370  0.76350  1.0000 0.0496682642
C   C28       1.0  0.50490  0.49370  0.73650  1.0000 0.0496682642
C   C29       1.0  0.33310  0.07530  0.15240  1.0000 -0.0622477382
C   C30       1.0  0.66690  0.57530  0.34760  1.0000 -0.0622477382
C   C31       1.0  0.66690  0.92470  0.84760  1.0000 -0.0622477382
C   C32       1.0  0.33310  0.42470  0.65240  1.0000 -0.0622477382
C   C33       1.0  0.32690  0.07700  0.24610  1.0000 -0.1483730051
C   C34       1.0  0.67310  0.57700  0.25390  1.0000 -0.1439916265
C   C35       1.0  0.67310  0.92300  0.75390  1.0000 -0.1483730051
C   C36       1.0  0.32690  0.42300  0.74610  1.0000 -0.1483730051
C   C37       1.0  0.46890  0.01560  0.40140  1.0000 0.1322965204
C   C38       1.0  0.53110  0.51560  0.09860  1.0000 0.1322965204
C   C39       1.0  0.53110  0.98440  0.59860  1.0000 0.1322965204
C   C40       1.0  0.46890  0.48440  0.90140  1.0000 0.1322965204
C   C41       1.0  0.44940  0.05890  0.46690  1.0000 -0.169194588
C   C42       1.0  0.55060  0.55890  0.03310  1.0000 -0.169194588
C   C43       1.0  0.55060  0.94110  0.53310  1.0000 -0.169194588
C   C44       1.0  0.44940  0.44110  0.96690  1.0000 -0.169194588
C   C45       1.0  0.51950  0.95680  0.43400  1.0000 -0.1812803982
C   C46       1.0  0.48050  0.45680  0.06600  1.0000 -0.1812803982
C   C47       1.0  0.48050  0.04320  0.56600  1.0000 -0.1812803982
C   C48       1.0  0.51950  0.54320  0.93400  1.0000 -0.1850052875
C   C49       1.0  0.69340  0.36650  0.57530  1.0000 0.0681144904
C   C50       1.0  0.30660  0.86650  0.92470  1.0000 0.0681144904
C   C51       1.0  0.30660  0.63350  0.42470  1.0000 0.0681144904
C   C52       1.0  0.69340  0.13350  0.07530  1.0000 0.0681144904
C   C53       1.0  0.77020  0.39950  0.45800  1.0000 -0.0622477382
C   C54       1.0  0.22980  0.89950  0.04200  1.0000 -0.0622477382
C   C55       1.0  0.22980  0.60050  0.54200  1.0000 -0.0622477382
C   C56       1.0  0.77020  0.10050  0.95800  1.0000 -0.0622477382
C   C57       1.0  0.86600  0.34870  0.49330  1.0000 -0.1439916265
C   C58       1.0  0.13400  0.84870  0.00670  1.0000 -0.1439916265
C   C59       1.0  0.13400  0.65130  0.50670  1.0000 -0.1439916265
C   C60       1.0  0.86600  0.15130  0.99330  1.0000 -0.1439916265
C   C61       1.0  0.88080  0.27450  0.62980  1.0000 0.1322965204
C   C62       1.0  0.11920  0.77450  0.87020  1.0000 0.1322965204
C   C63       1.0  0.11920  0.72550  0.37020  1.0000 0.1322965204
C   C64       1.0  0.88080  0.22550  0.12980  1.0000 0.1322965204
C   C65       1.0  0.77380  0.23970  0.66300  1.0000 -0.169194588
C   C66       1.0  0.22620  0.73970  0.83700  1.0000 -0.169194588
C   C67       1.0  0.22620  0.76030  0.33700  1.0000 -0.169194588
C   C68       1.0  0.77380  0.26030  0.16300  1.0000 -0.169194588
C   C69       1.0  0.05150  0.25850  0.65280  1.0000 -0.169194588
C   C70       1.0  0.94850  0.75850  0.84720  1.0000 -0.169194588
C   C71       1.0  0.94850  0.74150  0.34720  1.0000 -0.169194588
C   C72       1.0  0.05150  0.24150  0.15280  1.0000 -0.169194588
N   N1        1.0  0.24670  0.04857  0.89820  1.0000 -0.2972726737
N   N2        1.0  0.75330  0.54857  0.60180  1.0000 -0.2972726737
N   N3        1.0  0.75330  0.95143  0.10180  1.0000 -0.2972726737
N   N4        1.0  0.24670  0.45143  0.39820  1.0000 -0.2972726737
N   N5        1.0  0.07090  0.11490  0.79470  1.0000 -0.005688555
N   N6        1.0  0.92910  0.61490  0.70530  1.0000 -0.005688555
N   N7        1.0  0.92910  0.88510  0.20530  1.0000 -0.005688555
N   N8        1.0  0.07090  0.38510  0.29470  1.0000 -0.005688555
N   N9        1.0  0.44450  0.03078  0.14670  1.0000 -0.2879264456
N   N10       1.0  0.55550  0.53078  0.35330  1.0000 -0.2879264456
N   N11       1.0  0.55550  0.96922  0.85330  1.0000 -0.2879264456
N   N12       1.0  0.44450  0.46922  0.64670  1.0000 -0.2879264456
N   N13       1.0  0.43660  0.03217  0.29970  1.0000 0.0008649217
N   N14       1.0  0.56340  0.53217  0.20030  1.0000 0.0008649217
N   N15       1.0  0.56340  0.96783  0.70030  1.0000 0.0008649217
N   N16       1.0  0.43660  0.46783  0.79970  1.0000 0.0008649217
N   N17       1.0  0.66100  0.41078  0.50880  1.0000 -0.2972726737
N   N18       1.0  0.33900  0.91078  0.99120  1.0000 -0.2972726737
N   N19       1.0  0.33900  0.58922  0.49120  1.0000 -0.2972726737
N   N20       1.0  0.66100  0.08922  0.00880  1.0000 -0.2972726737
N   N21       1.0  0.81430  0.32770  0.56890  1.0000 -0.000775592
N   N22       1.0  0.18570  0.82770  0.93110  1.0000 -0.000775592
N   N23       1.0  0.18570  0.67230  0.43110  1.0000 -0.000775592
N   N24       1.0  0.81430  0.17230  0.06890  1.0000 -0.000775592
