# DDEC6 charges by PACMAN v1.1 (https://github.com/mtap-research/PACMAN-charge/)
data_2010[Co][pts]3[FSR]1
_chemical_formula_sum              "Co2 H40 C48 N8 F4"
_cell_length_a       8.3837
_cell_length_b       8.3837
_cell_length_c       16.8473
_cell_angle_alpha    90
_cell_angle_beta     90
_cell_angle_gamma    90

_symmetry_space_group_name_H-M    "P 1"
_symmetry_Int_Tables_number       1

loop_
  _symmetry_equiv_pos_as_xyz
  'x, y, z'

loop_
  _atom_site_type_symbol
  _atom_site_label
  _atom_site_symmetry_multiplicity
  _atom_site_fract_x
  _atom_site_fract_y
  _atom_site_fract_z
  _atom_site_occupancy
  _atom_site_charge
Co  Co1       1.0  0.50000  0.50000  0.25000  1.0000 0.763988147
Co  Co2       1.0  0.50000  0.50000  0.75000  1.0000 0.763988147
H   H1        1.0  0.46150  0.68860  0.08900  1.0000 0.101462102
H   H2        1.0  0.53850  0.31140  0.08900  1.0000 0.101462102
H   H3        1.0  0.68860  0.53850  0.91100  1.0000 0.101462102
H   H4        1.0  0.31140  0.46150  0.91100  1.0000 0.101462102
H   H5        1.0  0.46150  0.31140  0.58900  1.0000 0.101462102
H   H6        1.0  0.53850  0.68860  0.58900  1.0000 0.101462102
H   H7        1.0  0.68860  0.46150  0.41100  1.0000 0.101462102
H   H8        1.0  0.31140  0.53850  0.41100  1.0000 0.101462102
H   H9        1.0  0.60880  0.82780  0.99720  1.0000 0.1290350057
H   H10       1.0  0.39120  0.17220  0.99720  1.0000 0.1290350057
H   H11       1.0  0.82780  0.39120  0.00280  1.0000 0.1290350057
H   H12       1.0  0.17220  0.60880  0.00280  1.0000 0.1290350057
H   H13       1.0  0.60880  0.17220  0.49720  1.0000 0.1290350057
H   H14       1.0  0.39120  0.82780  0.49720  1.0000 0.1290350057
H   H15       1.0  0.82780  0.60880  0.50280  1.0000 0.1290350057
H   H16       1.0  0.17220  0.39120  0.50280  1.0000 0.1290350057
H   H17       1.0  0.00410  0.71280  0.12060  1.0000 0.13753132
H   H18       1.0  0.99590  0.28720  0.12060  1.0000 0.13753132
H   H19       1.0  0.71280  0.99590  0.87940  1.0000 0.13753132
H   H20       1.0  0.28720  0.00410  0.87940  1.0000 0.13753132
H   H21       1.0  0.00410  0.28720  0.62060  1.0000 0.13753132
H   H22       1.0  0.99590  0.71280  0.62060  1.0000 0.13753132
H   H23       1.0  0.71280  0.00410  0.37940  1.0000 0.13753132
H   H24       1.0  0.28720  0.99590  0.37940  1.0000 0.13753132
H   H25       1.0  0.84520  0.57370  0.20780  1.0000 0.1081657805
H   H26       1.0  0.15480  0.42630  0.20780  1.0000 0.1081657805
H   H27       1.0  0.57370  0.15480  0.79220  1.0000 0.1081657805
H   H28       1.0  0.42630  0.84520  0.79220  1.0000 0.1081657805
H   H29       1.0  0.84520  0.42630  0.70780  1.0000 0.1081657805
H   H30       1.0  0.15480  0.57370  0.70780  1.0000 0.1081657805
H   H31       1.0  0.57370  0.84520  0.29220  1.0000 0.1081657805
H   H32       1.0  0.42630  0.15480  0.29220  1.0000 0.1081657805
H   H33       1.0  0.89650  0.86790  0.93830  1.0000 0.101462102
H   H34       1.0  0.10350  0.13210  0.93830  1.0000 0.101462102
H   H35       1.0  0.86790  0.10350  0.06170  1.0000 0.101462102
H   H36       1.0  0.13210  0.89650  0.06170  1.0000 0.101462102
H   H37       1.0  0.89650  0.13210  0.43830  1.0000 0.101462102
H   H38       1.0  0.10350  0.86790  0.43830  1.0000 0.101462102
H   H39       1.0  0.86790  0.89650  0.56170  1.0000 0.101462102
H   H40       1.0  0.13210  0.10350  0.56170  1.0000 0.101462102
C   C1        1.0  0.57270  0.69450  0.09570  1.0000 0.0793547429
C   C2        1.0  0.42730  0.30550  0.09570  1.0000 0.0793547429
C   C3        1.0  0.69450  0.42730  0.90430  1.0000 0.0793547429
C   C4        1.0  0.30550  0.57270  0.90430  1.0000 0.0793547429
C   C5        1.0  0.57270  0.30550  0.59570  1.0000 0.0793547429
C   C6        1.0  0.42730  0.69450  0.59570  1.0000 0.0793547429
C   C7        1.0  0.69450  0.57270  0.40430  1.0000 0.0793547429
C   C8        1.0  0.30550  0.42730  0.40430  1.0000 0.0793547429
C   C9        1.0  0.66019  0.77900  0.04041  1.0000 -0.2183974288
C   C10       1.0  0.33981  0.22100  0.04041  1.0000 -0.2183974288
C   C11       1.0  0.77900  0.33981  0.95959  1.0000 -0.2183974288
C   C12       1.0  0.22100  0.66019  0.95959  1.0000 -0.2183974288
C   C13       1.0  0.66019  0.22100  0.54041  1.0000 -0.2183974288
C   C14       1.0  0.33981  0.77900  0.54041  1.0000 -0.2183974288
C   C15       1.0  0.77900  0.66019  0.45959  1.0000 -0.2183974288
C   C16       1.0  0.22100  0.33981  0.45959  1.0000 -0.2183974288
C   C17       1.0  0.82600  0.79177  0.04904  1.0000 0.13753132
C   C18       1.0  0.17400  0.20823  0.04904  1.0000 0.13753132
C   C19       1.0  0.79177  0.17400  0.95096  1.0000 0.13753132
C   C20       1.0  0.20823  0.82600  0.95096  1.0000 0.13753132
C   C21       1.0  0.82600  0.20823  0.54904  1.0000 0.13753132
C   C22       1.0  0.17400  0.79177  0.54904  1.0000 0.13753132
C   C23       1.0  0.79177  0.82600  0.45096  1.0000 0.13753132
C   C24       1.0  0.20823  0.17400  0.45096  1.0000 0.13753132
C   C25       1.0  0.89302  0.71100  0.11294  1.0000 -0.2112229146
C   C26       1.0  0.10698  0.28900  0.11294  1.0000 -0.2112229146
C   C27       1.0  0.71100  0.10698  0.88706  1.0000 -0.2112229146
C   C28       1.0  0.28900  0.89302  0.88706  1.0000 -0.2112229146
C   C29       1.0  0.89302  0.28900  0.61294  1.0000 -0.2112229146
C   C30       1.0  0.10698  0.71100  0.61294  1.0000 -0.2112229146
C   C31       1.0  0.71100  0.89302  0.38706  1.0000 -0.2112229146
C   C32       1.0  0.28900  0.10698  0.38706  1.0000 -0.2112229146
C   C33       1.0  0.79670  0.62780  0.16527  1.0000 0.0856279614
C   C34       1.0  0.20330  0.37220  0.16527  1.0000 0.0856279614
C   C35       1.0  0.62780  0.20330  0.83473  1.0000 0.0856279614
C   C36       1.0  0.37220  0.79670  0.83473  1.0000 0.0856279614
C   C37       1.0  0.79670  0.37220  0.66527  1.0000 0.0856279614
C   C38       1.0  0.20330  0.62780  0.66527  1.0000 0.0856279614
C   C39       1.0  0.62780  0.79670  0.33473  1.0000 0.0856279614
C   C40       1.0  0.37220  0.20330  0.33473  1.0000 0.0856279614
C   C41       1.0  0.91929  0.89704  0.99410  1.0000 -0.0918901819
C   C42       1.0  0.08071  0.10296  0.99410  1.0000 -0.0918901819
C   C43       1.0  0.89704  0.08071  0.00590  1.0000 -0.0918901819
C   C44       1.0  0.10296  0.91929  0.00590  1.0000 -0.0918901819
C   C45       1.0  0.91929  0.10296  0.49410  1.0000 -0.0918901819
C   C46       1.0  0.08071  0.89704  0.49410  1.0000 -0.0918901819
C   C47       1.0  0.89704  0.91929  0.50590  1.0000 -0.0918901819
C   C48       1.0  0.10296  0.08071  0.50590  1.0000 -0.0918901819
N   N1        1.0  0.63759  0.62048  0.15823  1.0000 -0.2368383757
N   N2        1.0  0.36241  0.37952  0.15823  1.0000 -0.2368383757
N   N3        1.0  0.62048  0.36241  0.84177  1.0000 -0.2368383757
N   N4        1.0  0.37952  0.63759  0.84177  1.0000 -0.2368383757
N   N5        1.0  0.63759  0.37952  0.65823  1.0000 -0.2368383757
N   N6        1.0  0.36241  0.62048  0.65823  1.0000 -0.2368383757
N   N7        1.0  0.62048  0.63759  0.34177  1.0000 -0.2368383757
N   N8        1.0  0.37952  0.36241  0.34177  1.0000 -0.2368383757
F   F1        1.0  0.66746  0.33254  0.25000  1.0000 -0.6258622311
F   F2        1.0  0.33254  0.66746  0.25000  1.0000 -0.6258622311
F   F3        1.0  0.33254  0.33254  0.75000  1.0000 -0.6258622311
F   F4        1.0  0.66746  0.66746  0.75000  1.0000 -0.6249610685
