# DDEC6 charges by PACMAN v1.1 (https://github.com/mtap-research/PACMAN-charge/)
data_2011[Cd][nuc]3[FSR]5
_chemical_formula_sum              "Cd4 H144 C192 N48"
_cell_length_a       15.8633
_cell_length_b       15.8633
_cell_length_c       21.586
_cell_angle_alpha    90
_cell_angle_beta     90
_cell_angle_gamma    90

_symmetry_space_group_name_H-M    "P 1"
_symmetry_Int_Tables_number       1

loop_
  _symmetry_equiv_pos_as_xyz
  'x, y, z'

loop_
  _atom_site_type_symbol
  _atom_site_label
  _atom_site_symmetry_multiplicity
  _atom_site_fract_x
  _atom_site_fract_y
  _atom_site_fract_z
  _atom_site_occupancy
  _atom_site_charge
Cd  Cd1       1.0  0.55905  0.44095  0.75000  1.0000 0.6374780427
Cd  Cd2       1.0  0.44095  0.55905  0.25000  1.0000 0.6374780427
Cd  Cd3       1.0  0.05905  0.05905  0.50000  1.0000 0.6374780427
Cd  Cd4       1.0  0.94095  0.94095  0.00000  1.0000 0.6374780427
H   H1        1.0  0.61040  0.46260  0.90200  1.0000 0.0993354876
H   H2        1.0  0.38960  0.53740  0.40200  1.0000 0.0993354876
H   H3        1.0  0.03740  0.11040  0.65200  1.0000 0.0993354876
H   H4        1.0  0.96260  0.88960  0.15200  1.0000 0.0993354876
H   H5        1.0  0.88960  0.96260  0.84800  1.0000 0.0993354876
H   H6        1.0  0.11040  0.03740  0.34800  1.0000 0.0993354876
H   H7        1.0  0.46260  0.61040  0.09800  1.0000 0.0993354876
H   H8        1.0  0.53740  0.38960  0.59800  1.0000 0.0993354876
H   H9        1.0  0.71410  0.41410  0.96760  1.0000 0.1265817549
H   H10       1.0  0.28590  0.58590  0.46760  1.0000 0.1265817549
H   H11       1.0  0.08590  0.21410  0.71760  1.0000 0.1265817549
H   H12       1.0  0.91410  0.78590  0.21760  1.0000 0.1265817549
H   H13       1.0  0.78590  0.91410  0.78240  1.0000 0.1265817549
H   H14       1.0  0.21410  0.08590  0.28240  1.0000 0.1265817549
H   H15       1.0  0.41410  0.71410  0.03240  1.0000 0.1265817549
H   H16       1.0  0.58590  0.28590  0.53240  1.0000 0.1265817549
H   H17       1.0  0.73940  0.21190  0.85500  1.0000 0.1265817549
H   H18       1.0  0.26060  0.78810  0.35500  1.0000 0.1265817549
H   H19       1.0  0.28810  0.23940  0.60500  1.0000 0.1175079431
H   H20       1.0  0.71190  0.76060  0.10500  1.0000 0.1265817549
H   H21       1.0  0.76060  0.71190  0.89500  1.0000 0.1265817549
H   H22       1.0  0.23940  0.28810  0.39500  1.0000 0.1175079431
H   H23       1.0  0.21190  0.73940  0.14500  1.0000 0.1175079431
H   H24       1.0  0.78810  0.26060  0.64500  1.0000 0.1175079431
H   H25       1.0  0.64080  0.26960  0.79080  1.0000 0.0993354876
H   H26       1.0  0.35920  0.73040  0.29080  1.0000 0.0993354876
H   H27       1.0  0.23040  0.14080  0.54080  1.0000 0.0993354876
H   H28       1.0  0.76960  0.85920  0.04080  1.0000 0.0993354876
H   H29       1.0  0.85920  0.76960  0.95920  1.0000 0.0993354876
H   H30       1.0  0.14080  0.23040  0.45920  1.0000 0.0993354876
H   H31       1.0  0.26960  0.64080  0.20920  1.0000 0.0993354876
H   H32       1.0  0.73040  0.35920  0.70920  1.0000 0.0993354876
H   H33       1.0  0.80000  0.35090  0.03150  1.0000 0.0993354876
H   H34       1.0  0.20000  0.64910  0.53150  1.0000 0.0993354876
H   H35       1.0  0.14910  0.30000  0.78150  1.0000 0.0993354876
H   H36       1.0  0.85090  0.70000  0.28150  1.0000 0.0993354876
H   H37       1.0  0.70000  0.85090  0.71850  1.0000 0.0993354876
H   H38       1.0  0.30000  0.14910  0.21850  1.0000 0.0993354876
H   H39       1.0  0.35090  0.80000  0.96850  1.0000 0.0993354876
H   H40       1.0  0.64910  0.20000  0.46850  1.0000 0.0993354876
H   H41       1.0  0.91410  0.30180  0.08570  1.0000 0.1088911342
H   H42       1.0  0.08590  0.69820  0.58570  1.0000 0.1088911342
H   H43       1.0  0.19820  0.41410  0.83570  1.0000 0.1088911342
H   H44       1.0  0.80180  0.58590  0.33570  1.0000 0.1088911342
H   H45       1.0  0.58590  0.80180  0.66430  1.0000 0.1088911342
H   H46       1.0  0.41410  0.19820  0.16430  1.0000 0.1088911342
H   H47       1.0  0.30180  0.91410  0.91430  1.0000 0.1088911342
H   H48       1.0  0.69820  0.08590  0.41430  1.0000 0.1088911342
H   H49       1.0  0.00700  0.20310  0.04250  1.0000 0.1088911342
H   H50       1.0  0.99300  0.79690  0.54250  1.0000 0.1088911342
H   H51       1.0  0.29690  0.50700  0.79250  1.0000 0.1088911342
H   H52       1.0  0.70310  0.49300  0.29250  1.0000 0.1088911342
H   H53       1.0  0.49300  0.70310  0.70750  1.0000 0.1088911342
H   H54       1.0  0.50700  0.29690  0.20750  1.0000 0.1088911342
H   H55       1.0  0.20310  0.00700  0.95750  1.0000 0.1088911342
H   H56       1.0  0.79690  0.99300  0.45750  1.0000 0.1088911342
H   H57       1.0  0.86020  0.19680  0.88850  1.0000 0.1088911342
H   H58       1.0  0.13980  0.80320  0.38850  1.0000 0.1088911342
H   H59       1.0  0.30320  0.36020  0.63850  1.0000 0.1088911342
H   H60       1.0  0.69680  0.63980  0.13850  1.0000 0.1088911342
H   H61       1.0  0.63980  0.69680  0.86150  1.0000 0.1088911342
H   H62       1.0  0.36020  0.30320  0.36150  1.0000 0.1088911342
H   H63       1.0  0.19680  0.86020  0.11150  1.0000 0.1088911342
H   H64       1.0  0.80320  0.13980  0.61150  1.0000 0.1088911342
H   H65       1.0  0.11930  0.95410  0.79000  1.0000 0.1088911342
H   H66       1.0  0.88070  0.04590  0.29000  1.0000 0.1088911342
H   H67       1.0  0.54590  0.61930  0.54000  1.0000 0.1088911342
H   H68       1.0  0.45410  0.38070  0.04000  1.0000 0.1088911342
H   H69       1.0  0.38070  0.45410  0.96000  1.0000 0.1088911342
H   H70       1.0  0.61930  0.54590  0.46000  1.0000 0.1088911342
H   H71       1.0  0.95410  0.11930  0.21000  1.0000 0.1088911342
H   H72       1.0  0.04590  0.88070  0.71000  1.0000 0.1088911342
H   H73       1.0  0.23110  0.93550  0.72040  1.0000 0.1088911342
H   H74       1.0  0.76890  0.06450  0.22040  1.0000 0.1088911342
H   H75       1.0  0.56450  0.73110  0.47040  1.0000 0.1088911342
H   H76       1.0  0.43550  0.26890  0.97040  1.0000 0.1088911342
H   H77       1.0  0.26890  0.43550  0.02960  1.0000 0.1088911342
H   H78       1.0  0.73110  0.56450  0.52960  1.0000 0.1088911342
H   H79       1.0  0.93550  0.23110  0.27960  1.0000 0.1088911342
H   H80       1.0  0.06450  0.76890  0.77960  1.0000 0.1088911342
H   H81       1.0  0.33630  0.03640  0.71250  1.0000 0.1088911342
H   H82       1.0  0.66370  0.96360  0.21250  1.0000 0.1088911342
H   H83       1.0  0.46360  0.83630  0.46250  1.0000 0.1088911342
H   H84       1.0  0.53640  0.16370  0.96250  1.0000 0.1088911342
H   H85       1.0  0.16370  0.53640  0.03750  1.0000 0.1088911342
H   H86       1.0  0.83630  0.46360  0.53750  1.0000 0.1088911342
H   H87       1.0  0.03640  0.33630  0.28750  1.0000 0.1088911342
H   H88       1.0  0.96360  0.66370  0.78750  1.0000 0.1088911342
H   H89       1.0  0.22370  0.17460  0.84540  1.0000 0.0993354876
H   H90       1.0  0.77630  0.82540  0.34540  1.0000 0.0993354876
H   H91       1.0  0.32540  0.72370  0.59540  1.0000 0.0993354876
H   H92       1.0  0.67460  0.27630  0.09540  1.0000 0.0993354876
H   H93       1.0  0.27630  0.67460  0.90460  1.0000 0.0993354876
H   H94       1.0  0.72370  0.32540  0.40460  1.0000 0.0993354876
H   H95       1.0  0.17460  0.22370  0.15460  1.0000 0.0993354876
H   H96       1.0  0.82540  0.77630  0.65460  1.0000 0.0993354876
H   H97       1.0  0.39880  0.15230  0.68520  1.0000 0.1265817549
H   H98       1.0  0.60120  0.84770  0.18520  1.0000 0.1265817549
H   H99       1.0  0.34770  0.89880  0.43520  1.0000 0.1265817549
H   H100      1.0  0.65230  0.10120  0.93520  1.0000 0.1265817549
H   H101      1.0  0.10120  0.65230  0.06480  1.0000 0.1265817549
H   H102      1.0  0.89880  0.34770  0.56480  1.0000 0.1265817549
H   H103      1.0  0.15230  0.39880  0.31480  1.0000 0.1265817549
H   H104      1.0  0.84770  0.60120  0.81480  1.0000 0.1265817549
H   H105      1.0  0.49310  0.26180  0.67580  1.0000 0.0946107548
H   H106      1.0  0.50690  0.73820  0.17580  1.0000 0.0946107548
H   H107      1.0  0.23820  0.99310  0.42580  1.0000 0.0946107548
H   H108      1.0  0.76180  0.00690  0.92580  1.0000 0.0946107548
H   H109      1.0  0.00690  0.76180  0.07420  1.0000 0.0946107548
H   H110      1.0  0.99310  0.23820  0.57420  1.0000 0.0946107548
H   H111      1.0  0.26180  0.49310  0.32420  1.0000 0.0946107548
H   H112      1.0  0.73820  0.50690  0.82420  1.0000 0.0946107548
H   H113      1.0  0.44000  0.34240  0.84300  1.0000 0.0993354876
H   H114      1.0  0.56000  0.65760  0.34300  1.0000 0.0993354876
H   H115      1.0  0.15760  0.94000  0.59300  1.0000 0.0993354876
H   H116      1.0  0.84240  0.06000  0.09300  1.0000 0.0993354876
H   H117      1.0  0.06000  0.84240  0.90700  1.0000 0.0993354876
H   H118      1.0  0.94000  0.15760  0.40700  1.0000 0.0993354876
H   H119      1.0  0.34240  0.44000  0.15700  1.0000 0.0993354876
H   H120      1.0  0.65760  0.56000  0.65700  1.0000 0.0993354876
H   H121      1.0  0.34490  0.23460  0.85790  1.0000 0.1265817549
H   H122      1.0  0.65510  0.76540  0.35790  1.0000 0.1265817549
H   H123      1.0  0.26540  0.84490  0.60790  1.0000 0.1265817549
H   H124      1.0  0.73460  0.15510  0.10790  1.0000 0.1265817549
H   H125      1.0  0.15510  0.73460  0.89210  1.0000 0.1265817549
H   H126      1.0  0.84490  0.26540  0.39210  1.0000 0.1265817549
H   H127      1.0  0.23460  0.34490  0.14210  1.0000 0.1265817549
H   H128      1.0  0.76540  0.65510  0.64210  1.0000 0.1265817549
H   H129      1.0  0.02900  0.25750  0.85540  1.0000 0.2072744746
H   H130      1.0  0.97100  0.74250  0.35540  1.0000 0.2072744746
H   H131      1.0  0.24250  0.52900  0.60540  1.0000 0.2072744746
H   H132      1.0  0.75750  0.47100  0.10540  1.0000 0.2072744746
H   H133      1.0  0.47100  0.75750  0.89460  1.0000 0.2072744746
H   H134      1.0  0.52900  0.24250  0.39460  1.0000 0.2072744746
H   H135      1.0  0.25750  0.02900  0.14460  1.0000 0.2072744746
H   H136      1.0  0.74250  0.97100  0.64460  1.0000 0.2072744746
H   H137      1.0  0.08650  0.25990  0.90220  1.0000 0.2072744746
H   H138      1.0  0.91350  0.74010  0.40220  1.0000 0.2072744746
H   H139      1.0  0.24010  0.58650  0.65220  1.0000 0.2072744746
H   H140      1.0  0.75990  0.41350  0.15220  1.0000 0.2072744746
H   H141      1.0  0.41350  0.75990  0.84780  1.0000 0.2072744746
H   H142      1.0  0.58650  0.24010  0.34780  1.0000 0.2072744746
H   H143      1.0  0.25990  0.08650  0.09780  1.0000 0.2072744746
H   H144      1.0  0.74010  0.91350  0.59780  1.0000 0.2072744746
C   C1        1.0  0.63980  0.41270  0.89100  1.0000 0.0537617713
C   C2        1.0  0.36020  0.58730  0.39100  1.0000 0.0537617713
C   C3        1.0  0.08730  0.13980  0.64100  1.0000 0.0537617713
C   C4        1.0  0.91270  0.86020  0.14100  1.0000 0.0537617713
C   C5        1.0  0.86020  0.91270  0.85900  1.0000 0.0537617713
C   C6        1.0  0.13980  0.08730  0.35900  1.0000 0.0537617713
C   C7        1.0  0.41270  0.63980  0.10900  1.0000 0.0537617713
C   C8        1.0  0.58730  0.36020  0.60900  1.0000 0.0537617713
C   C9        1.0  0.70140  0.38380  0.93080  1.0000 -0.2065833369
C   C10       1.0  0.29860  0.61620  0.43080  1.0000 -0.2065833369
C   C11       1.0  0.11620  0.20140  0.68080  1.0000 -0.2065833369
C   C12       1.0  0.88380  0.79860  0.18080  1.0000 -0.2065833369
C   C13       1.0  0.79860  0.88380  0.81920  1.0000 -0.2065833369
C   C14       1.0  0.20140  0.11620  0.31920  1.0000 -0.2065833369
C   C15       1.0  0.38380  0.70140  0.06920  1.0000 -0.2065833369
C   C16       1.0  0.61620  0.29860  0.56920  1.0000 -0.2065833369
C   C17       1.0  0.74490  0.30980  0.91690  1.0000 0.1175079431
C   C18       1.0  0.25510  0.69020  0.41690  1.0000 0.1175079431
C   C19       1.0  0.19020  0.24490  0.66690  1.0000 0.1175079431
C   C20       1.0  0.80980  0.75510  0.16690  1.0000 0.1175079431
C   C21       1.0  0.75510  0.80980  0.83310  1.0000 0.1175079431
C   C22       1.0  0.24490  0.19020  0.33310  1.0000 0.1175079431
C   C23       1.0  0.30980  0.74490  0.08310  1.0000 0.1175079431
C   C24       1.0  0.69020  0.25510  0.58310  1.0000 0.1175079431
C   C25       1.0  0.71660  0.26580  0.86440  1.0000 -0.2065833369
C   C26       1.0  0.28340  0.73420  0.36440  1.0000 -0.2065833369
C   C27       1.0  0.23420  0.21660  0.61440  1.0000 -0.2065833369
C   C28       1.0  0.76580  0.78340  0.11440  1.0000 -0.2065833369
C   C29       1.0  0.78340  0.76580  0.88560  1.0000 -0.2065833369
C   C30       1.0  0.21660  0.23420  0.38560  1.0000 -0.2065833369
C   C31       1.0  0.26580  0.71660  0.13560  1.0000 -0.2065833369
C   C32       1.0  0.73420  0.28340  0.63560  1.0000 -0.2065833369
C   C33       1.0  0.65670  0.30020  0.82680  1.0000 0.0411191589
C   C34       1.0  0.34330  0.69980  0.32680  1.0000 0.0411191589
C   C35       1.0  0.19980  0.15670  0.57680  1.0000 0.0411191589
C   C36       1.0  0.80020  0.84330  0.07680  1.0000 0.0411191589
C   C37       1.0  0.84330  0.80020  0.92320  1.0000 0.0411191589
C   C38       1.0  0.15670  0.19980  0.42320  1.0000 0.0411191589
C   C39       1.0  0.30020  0.65670  0.17320  1.0000 0.0411191589
C   C40       1.0  0.69980  0.34330  0.67320  1.0000 0.0411191589
C   C41       1.0  0.81720  0.27900  0.95380  1.0000 0.0685800115
C   C42       1.0  0.18280  0.72100  0.45380  1.0000 0.0685800115
C   C43       1.0  0.22100  0.31720  0.70380  1.0000 0.0685800115
C   C44       1.0  0.77900  0.68280  0.20380  1.0000 0.0685800115
C   C45       1.0  0.68280  0.77900  0.79620  1.0000 0.0685800115
C   C46       1.0  0.31720  0.22100  0.29620  1.0000 0.0685800115
C   C47       1.0  0.27900  0.81720  0.04620  1.0000 0.0685800115
C   C48       1.0  0.72100  0.18280  0.54620  1.0000 0.0685800115
C   C49       1.0  0.83550  0.30960  0.01330  1.0000 -0.1602901788
C   C50       1.0  0.16450  0.69040  0.51330  1.0000 -0.1602901788
C   C51       1.0  0.19040  0.33550  0.76330  1.0000 -0.1602901788
C   C52       1.0  0.80960  0.66450  0.26330  1.0000 -0.1602901788
C   C53       1.0  0.66450  0.80960  0.73670  1.0000 -0.1602901788
C   C54       1.0  0.33550  0.19040  0.23670  1.0000 -0.1602901788
C   C55       1.0  0.30960  0.83550  0.98670  1.0000 -0.1602901788
C   C56       1.0  0.69040  0.16450  0.48670  1.0000 -0.1602901788
C   C57       1.0  0.90380  0.28070  0.04520  1.0000 -0.0976236479
C   C58       1.0  0.09620  0.71930  0.54520  1.0000 -0.0976236479
C   C59       1.0  0.21930  0.40380  0.79520  1.0000 -0.0976236479
C   C60       1.0  0.78070  0.59620  0.29520  1.0000 -0.0976236479
C   C61       1.0  0.59620  0.78070  0.70480  1.0000 -0.0976236479
C   C62       1.0  0.40380  0.21930  0.20480  1.0000 -0.0976236479
C   C63       1.0  0.28070  0.90380  0.95480  1.0000 -0.0976236479
C   C64       1.0  0.71930  0.09620  0.45480  1.0000 -0.0976236479
C   C65       1.0  0.95860  0.22140  0.02030  1.0000 -0.1709472608
C   C66       1.0  0.04140  0.77860  0.52030  1.0000 -0.1709472608
C   C67       1.0  0.27860  0.45860  0.77030  1.0000 -0.1709472608
C   C68       1.0  0.72140  0.54140  0.27030  1.0000 -0.1709472608
C   C69       1.0  0.54140  0.72140  0.72970  1.0000 -0.1709472608
C   C70       1.0  0.45860  0.27860  0.22970  1.0000 -0.1709472608
C   C71       1.0  0.22140  0.95860  0.97970  1.0000 -0.1709472608
C   C72       1.0  0.77860  0.04140  0.47970  1.0000 -0.1709472608
C   C73       1.0  0.94000  0.18960  0.96140  1.0000 0.0296524096
C   C74       1.0  0.06000  0.81040  0.46140  1.0000 0.0296524096
C   C75       1.0  0.31040  0.44000  0.71140  1.0000 0.0296524096
C   C76       1.0  0.68960  0.56000  0.21140  1.0000 0.0296524096
C   C77       1.0  0.56000  0.68960  0.78860  1.0000 0.0296524096
C   C78       1.0  0.44000  0.31040  0.28860  1.0000 0.0296524096
C   C79       1.0  0.18960  0.94000  0.03860  1.0000 0.0296524096
C   C80       1.0  0.81040  0.06000  0.53860  1.0000 0.0296524096
C   C81       1.0  0.87110  0.21850  0.92870  1.0000 -0.2065833369
C   C82       1.0  0.12890  0.78150  0.42870  1.0000 -0.2065833369
C   C83       1.0  0.28150  0.37110  0.67870  1.0000 -0.2065833369
C   C84       1.0  0.71850  0.62890  0.17870  1.0000 -0.2065833369
C   C85       1.0  0.62890  0.71850  0.82130  1.0000 -0.2065833369
C   C86       1.0  0.37110  0.28150  0.32130  1.0000 -0.2065833369
C   C87       1.0  0.21850  0.87110  0.07130  1.0000 -0.2065833369
C   C88       1.0  0.78150  0.12890  0.57130  1.0000 -0.2065833369
C   C89       1.0  0.99620  0.12730  0.93060  1.0000 0.1617490355
C   C90       1.0  0.00380  0.87270  0.43060  1.0000 0.1617490355
C   C91       1.0  0.37270  0.49620  0.68060  1.0000 0.1617490355
C   C92       1.0  0.62730  0.50380  0.18060  1.0000 0.1617490355
C   C93       1.0  0.50380  0.62730  0.81940  1.0000 0.1617490355
C   C94       1.0  0.49620  0.37270  0.31940  1.0000 0.1617490355
C   C95       1.0  0.12730  0.99620  0.06940  1.0000 0.1617490355
C   C96       1.0  0.87270  0.00380  0.56940  1.0000 0.1617490355
C   C97       1.0  0.09080  0.07610  0.86800  1.0000 0.1726886671
C   C98       1.0  0.90920  0.92390  0.36800  1.0000 0.1726886671
C   C99       1.0  0.42390  0.59080  0.61800  1.0000 0.1726886671
C   C100      1.0  0.57610  0.40920  0.11800  1.0000 0.1726886671
C   C101      1.0  0.40920  0.57610  0.88200  1.0000 0.1726886671
C   C102      1.0  0.59080  0.42390  0.38200  1.0000 0.1726886671
C   C103      1.0  0.07610  0.09080  0.13200  1.0000 0.1726886671
C   C104      1.0  0.92390  0.90920  0.63200  1.0000 0.1726886671
C   C105      1.0  0.16120  0.06750  0.82350  1.0000 0.0411191589
C   C106      1.0  0.83880  0.93250  0.32350  1.0000 0.0411191589
C   C107      1.0  0.43250  0.66120  0.57350  1.0000 0.0411191589
C   C108      1.0  0.56750  0.33880  0.07350  1.0000 0.0411191589
C   C109      1.0  0.33880  0.56750  0.92650  1.0000 0.0411191589
C   C110      1.0  0.66120  0.43250  0.42650  1.0000 0.0411191589
C   C111      1.0  0.06750  0.16120  0.17650  1.0000 0.0411191589
C   C112      1.0  0.93250  0.83880  0.67650  1.0000 0.0411191589
C   C113      1.0  0.16270  0.99520  0.78680  1.0000 -0.1602901788
C   C114      1.0  0.83730  0.00480  0.28680  1.0000 -0.1602901788
C   C115      1.0  0.50480  0.66270  0.53680  1.0000 -0.1602901788
C   C116      1.0  0.49520  0.33730  0.03680  1.0000 -0.1602901788
C   C117      1.0  0.33730  0.49520  0.96320  1.0000 -0.1602901788
C   C118      1.0  0.66270  0.50480  0.46320  1.0000 -0.1602901788
C   C119      1.0  0.99520  0.16270  0.21320  1.0000 -0.1602901788
C   C120      1.0  0.00480  0.83730  0.71320  1.0000 -0.1602901788
C   C121      1.0  0.22890  0.98450  0.74570  1.0000 -0.1061390555
C   C122      1.0  0.77110  0.01550  0.24570  1.0000 -0.0976236479
C   C123      1.0  0.51550  0.72890  0.49570  1.0000 -0.1061390555
C   C124      1.0  0.48450  0.27110  0.99570  1.0000 -0.1061390555
C   C125      1.0  0.27110  0.48450  0.00430  1.0000 -0.1061390555
C   C126      1.0  0.72890  0.51550  0.50430  1.0000 -0.1061390555
C   C127      1.0  0.98450  0.22890  0.25430  1.0000 -0.1061390555
C   C128      1.0  0.01550  0.77110  0.75430  1.0000 -0.1061390555
C   C129      1.0  0.29160  0.04460  0.74110  1.0000 -0.1602901788
C   C130      1.0  0.70840  0.95540  0.24110  1.0000 -0.1602901788
C   C131      1.0  0.45540  0.79160  0.49110  1.0000 -0.1602901788
C   C132      1.0  0.54460  0.20840  0.99110  1.0000 -0.1602901788
C   C133      1.0  0.20840  0.54460  0.00890  1.0000 -0.1602901788
C   C134      1.0  0.79160  0.45540  0.50890  1.0000 -0.1602901788
C   C135      1.0  0.04460  0.29160  0.25890  1.0000 -0.1602901788
C   C136      1.0  0.95540  0.70840  0.75890  1.0000 -0.1602901788
C   C137      1.0  0.29070  0.11650  0.77740  1.0000 0.0685800115
C   C138      1.0  0.70930  0.88350  0.27740  1.0000 0.0685800115
C   C139      1.0  0.38350  0.79070  0.52740  1.0000 0.0685800115
C   C140      1.0  0.61650  0.20930  0.02740  1.0000 0.0685800115
C   C141      1.0  0.20930  0.61650  0.97260  1.0000 0.0685800115
C   C142      1.0  0.79070  0.38350  0.47260  1.0000 0.0685800115
C   C143      1.0  0.11650  0.29070  0.22260  1.0000 0.0685800115
C   C144      1.0  0.88350  0.70930  0.72260  1.0000 0.0685800115
C   C145      1.0  0.22480  0.12640  0.81930  1.0000 -0.198799015
C   C146      1.0  0.77520  0.87360  0.31930  1.0000 -0.198799015
C   C147      1.0  0.37360  0.72480  0.56930  1.0000 -0.198799015
C   C148      1.0  0.62640  0.27520  0.06930  1.0000 -0.198799015
C   C149      1.0  0.27520  0.62640  0.93070  1.0000 -0.198799015
C   C150      1.0  0.72480  0.37360  0.43070  1.0000 -0.198799015
C   C151      1.0  0.12640  0.22480  0.18070  1.0000 -0.198799015
C   C152      1.0  0.87360  0.77520  0.68070  1.0000 -0.198799015
C   C153      1.0  0.35750  0.18200  0.77190  1.0000 0.1175079431
C   C154      1.0  0.64250  0.81800  0.27190  1.0000 0.1175079431
C   C155      1.0  0.31800  0.85750  0.52190  1.0000 0.1175079431
C   C156      1.0  0.68200  0.14250  0.02190  1.0000 0.1175079431
C   C157      1.0  0.14250  0.68200  0.97810  1.0000 0.1175079431
C   C158      1.0  0.85750  0.31800  0.47810  1.0000 0.1175079431
C   C159      1.0  0.18200  0.35750  0.22810  1.0000 0.1175079431
C   C160      1.0  0.81800  0.64250  0.72810  1.0000 0.1175079431
C   C161      1.0  0.40520  0.19120  0.71830  1.0000 -0.198799015
C   C162      1.0  0.59480  0.80880  0.21830  1.0000 -0.198799015
C   C163      1.0  0.30880  0.90520  0.46830  1.0000 -0.198799015
C   C164      1.0  0.69120  0.09480  0.96830  1.0000 -0.198799015
C   C165      1.0  0.09480  0.69120  0.03170  1.0000 -0.198799015
C   C166      1.0  0.90520  0.30880  0.53170  1.0000 -0.198799015
C   C167      1.0  0.19120  0.40520  0.28170  1.0000 -0.198799015
C   C168      1.0  0.80880  0.59480  0.78170  1.0000 -0.198799015
C   C169      1.0  0.46170  0.25670  0.71310  1.0000 0.0554969989
C   C170      1.0  0.53830  0.74330  0.21310  1.0000 0.0554969989
C   C171      1.0  0.24330  0.96170  0.46310  1.0000 0.0554969989
C   C172      1.0  0.75670  0.03830  0.96310  1.0000 0.0554969989
C   C173      1.0  0.03830  0.75670  0.03690  1.0000 0.0554969989
C   C174      1.0  0.96170  0.24330  0.53690  1.0000 0.0554969989
C   C175      1.0  0.25670  0.46170  0.28690  1.0000 0.0554969989
C   C176      1.0  0.74330  0.53830  0.78690  1.0000 0.0554969989
C   C177      1.0  0.43100  0.30350  0.81030  1.0000 0.0685800115
C   C178      1.0  0.56900  0.69650  0.31030  1.0000 0.0685800115
C   C179      1.0  0.19650  0.93100  0.56030  1.0000 0.0685800115
C   C180      1.0  0.80350  0.06900  0.06030  1.0000 0.0685800115
C   C181      1.0  0.06900  0.80350  0.93970  1.0000 0.0685800115
C   C182      1.0  0.93100  0.19650  0.43970  1.0000 0.0685800115
C   C183      1.0  0.30350  0.43100  0.18970  1.0000 0.0685800115
C   C184      1.0  0.69650  0.56900  0.68970  1.0000 0.0685800115
C   C185      1.0  0.37350  0.23950  0.81940  1.0000 -0.198799015
C   C186      1.0  0.62650  0.76050  0.31940  1.0000 -0.198799015
C   C187      1.0  0.26050  0.87350  0.56940  1.0000 -0.198799015
C   C188      1.0  0.73950  0.12650  0.06940  1.0000 -0.198799015
C   C189      1.0  0.12650  0.73950  0.93060  1.0000 -0.198799015
C   C190      1.0  0.87350  0.26050  0.43060  1.0000 -0.198799015
C   C191      1.0  0.23950  0.37350  0.18060  1.0000 -0.198799015
C   C192      1.0  0.76050  0.62650  0.68060  1.0000 -0.198799015
N   N1        1.0  0.61880  0.37430  0.83750  1.0000 -0.2383215368
N   N2        1.0  0.38120  0.62570  0.33750  1.0000 -0.2383215368
N   N3        1.0  0.12570  0.11880  0.58750  1.0000 -0.2383215368
N   N4        1.0  0.87430  0.88120  0.08750  1.0000 -0.2383215368
N   N5        1.0  0.88120  0.87430  0.91250  1.0000 -0.2383215368
N   N6        1.0  0.11880  0.12570  0.41250  1.0000 -0.2383215368
N   N7        1.0  0.37430  0.61880  0.16250  1.0000 -0.2383215368
N   N8        1.0  0.62570  0.38120  0.66250  1.0000 -0.2383215368
N   N9        1.0  0.99360  0.04410  0.93450  1.0000 -0.230406487
N   N10       1.0  0.00640  0.95590  0.43450  1.0000 -0.230406487
N   N11       1.0  0.45590  0.49360  0.68450  1.0000 -0.230406487
N   N12       1.0  0.54410  0.50640  0.18450  1.0000 -0.230406487
N   N13       1.0  0.50640  0.54410  0.81550  1.0000 -0.230406487
N   N14       1.0  0.49360  0.45590  0.31550  1.0000 -0.230406487
N   N15       1.0  0.04410  0.99360  0.06550  1.0000 -0.230406487
N   N16       1.0  0.95590  0.00640  0.56550  1.0000 -0.230406487
N   N17       1.0  0.05420  0.01170  0.89550  1.0000 -0.2749996591
N   N18       1.0  0.94580  0.98830  0.39550  1.0000 -0.2759863643
N   N19       1.0  0.48830  0.55420  0.64550  1.0000 -0.2759863643
N   N20       1.0  0.51170  0.44580  0.14550  1.0000 -0.2759863643
N   N21       1.0  0.44580  0.51170  0.85450  1.0000 -0.2759863643
N   N22       1.0  0.55420  0.48830  0.35450  1.0000 -0.2759863643
N   N23       1.0  0.01170  0.05420  0.10450  1.0000 -0.2749996591
N   N24       1.0  0.98830  0.94580  0.60450  1.0000 -0.2759863643
N   N25       1.0  0.05600  0.14910  0.88880  1.0000 0.0685800115
N   N26       1.0  0.94400  0.85090  0.38880  1.0000 0.0685800115
N   N27       1.0  0.35090  0.55600  0.63880  1.0000 0.0685800115
N   N28       1.0  0.64910  0.44400  0.13880  1.0000 0.0685800115
N   N29       1.0  0.44400  0.64910  0.86120  1.0000 0.0685800115
N   N30       1.0  0.55600  0.35090  0.36120  1.0000 0.0685800115
N   N31       1.0  0.14910  0.05600  0.11120  1.0000 0.0685800115
N   N32       1.0  0.85090  0.94400  0.61120  1.0000 0.0685800115
N   N33       1.0  0.07440  0.23090  0.86830  1.0000 -0.4911838357
N   N34       1.0  0.92560  0.76910  0.36830  1.0000 -0.4911838357
N   N35       1.0  0.26910  0.57440  0.61830  1.0000 -0.4911838357
N   N36       1.0  0.73090  0.42560  0.11830  1.0000 -0.4911838357
N   N37       1.0  0.42560  0.73090  0.88170  1.0000 -0.4911838357
N   N38       1.0  0.57440  0.26910  0.38170  1.0000 -0.4911838357
N   N39       1.0  0.23090  0.07440  0.13170  1.0000 -0.4911838357
N   N40       1.0  0.76910  0.92560  0.63170  1.0000 -0.4911838357
N   N41       1.0  0.47460  0.31370  0.75790  1.0000 -0.2383215368
N   N42       1.0  0.52540  0.68630  0.25790  1.0000 -0.2383215368
N   N43       1.0  0.18630  0.97460  0.50790  1.0000 -0.2383215368
N   N44       1.0  0.81370  0.02540  0.00790  1.0000 -0.2383215368
N   N45       1.0  0.02540  0.81370  0.99210  1.0000 -0.2383215368
N   N46       1.0  0.97460  0.18630  0.49210  1.0000 -0.2383215368
N   N47       1.0  0.31370  0.47460  0.24210  1.0000 -0.2383215368
N   N48       1.0  0.68630  0.52540  0.74210  1.0000 -0.2383215368
