# DDEC6 charges by PACMAN v1.1 (https://github.com/mtap-research/PACMAN-charge/)
data_2011[Cu][nan]3[FSR]5
_chemical_formula_sum              "Cu4 H32 C56 N8 O20"
_cell_length_a       8.407
_cell_length_b       10.28
_cell_length_c       17.7935
_cell_angle_alpha    90
_cell_angle_beta     104.634
_cell_angle_gamma    90

_symmetry_space_group_name_H-M    "P 1"
_symmetry_Int_Tables_number       1

loop_
  _symmetry_equiv_pos_as_xyz
  'x, y, z'

loop_
  _atom_site_type_symbol
  _atom_site_label
  _atom_site_symmetry_multiplicity
  _atom_site_fract_x
  _atom_site_fract_y
  _atom_site_fract_z
  _atom_site_occupancy
  _atom_site_charge
Cu  Cu1       1.0  0.89373  0.55718  0.56807  1.0000 0.7518389767
Cu  Cu2       1.0  0.89373  0.94282  0.06807  1.0000 0.7518389767
Cu  Cu3       1.0  0.10627  0.05718  0.93193  1.0000 0.7518389767
Cu  Cu4       1.0  0.10627  0.44282  0.43193  1.0000 0.7518389767
H   H1        1.0  0.52960  0.27140  0.13660  1.0000 0.1472564286
H   H2        1.0  0.52960  0.22860  0.63660  1.0000 0.1472564286
H   H3        1.0  0.66860  0.06520  0.93510  1.0000 0.1203404201
H   H4        1.0  0.66860  0.43480  0.43510  1.0000 0.1203404201
H   H5        1.0  0.47760  0.22860  0.90820  1.0000 0.1472564286
H   H6        1.0  0.47760  0.27140  0.40820  1.0000 0.1472564286
H   H7        1.0  0.86640  0.77200  0.83060  1.0000 0.1346132851
H   H8        1.0  0.86640  0.72800  0.33060  1.0000 0.1346132851
H   H9        1.0  0.11380  0.45110  0.80050  1.0000 0.1472564286
H   H10       1.0  0.11380  0.04890  0.30050  1.0000 0.1472564286
H   H11       1.0  0.72230  0.11050  0.15810  1.0000 0.1203404201
H   H12       1.0  0.72230  0.38950  0.65810  1.0000 0.1203404201
H   H13       1.0  0.15880  0.58940  0.01590  1.0000 0.1385945177
H   H14       1.0  0.15880  0.91060  0.51590  1.0000 0.1385945177
H   H15       1.0  0.26800  0.34500  0.90800  1.0000 0.284089925
H   H16       1.0  0.26800  0.15500  0.40800  1.0000 0.284089925
H   H17       1.0  0.47040  0.77140  0.36340  1.0000 0.1472564286
H   H18       1.0  0.47040  0.72860  0.86340  1.0000 0.1472564286
H   H19       1.0  0.33140  0.56520  0.56490  1.0000 0.1203404201
H   H20       1.0  0.33140  0.93480  0.06490  1.0000 0.1203404201
H   H21       1.0  0.52240  0.72860  0.59180  1.0000 0.1472564286
H   H22       1.0  0.52240  0.77140  0.09180  1.0000 0.1472564286
H   H23       1.0  0.13360  0.27200  0.66940  1.0000 0.1346132851
H   H24       1.0  0.13360  0.22800  0.16940  1.0000 0.1346132851
H   H25       1.0  0.88620  0.95110  0.69950  1.0000 0.1472564286
H   H26       1.0  0.88620  0.54890  0.19950  1.0000 0.1472564286
H   H27       1.0  0.27770  0.61050  0.34190  1.0000 0.1203404201
H   H28       1.0  0.27770  0.88950  0.84190  1.0000 0.1203404201
H   H29       1.0  0.84120  0.08940  0.48410  1.0000 0.1385945177
H   H30       1.0  0.84120  0.41060  0.98410  1.0000 0.1385945177
H   H31       1.0  0.73200  0.84500  0.59200  1.0000 0.284089925
H   H32       1.0  0.73200  0.65500  0.09200  1.0000 0.284089925
C   C1        1.0  0.96880  0.79370  0.98400  1.0000 0.5027637577
C   C2        1.0  0.96880  0.70630  0.48400  1.0000 0.5027637577
C   C3        1.0  0.55730  0.23130  0.09480  1.0000 -0.1411061192
C   C4        1.0  0.55730  0.26870  0.59480  1.0000 -0.1411061192
C   C5        1.0  0.64110  0.10830  0.97600  1.0000 0.090777226
C   C6        1.0  0.64110  0.39170  0.47600  1.0000 0.090777226
C   C7        1.0  0.52570  0.20570  0.95940  1.0000 -0.1540223265
C   C8        1.0  0.52570  0.29430  0.45940  1.0000 -0.1540223265
C   C9        1.0  0.00700  0.69530  0.93030  1.0000 -0.0152223806
C   C10       1.0  0.00700  0.80470  0.43030  1.0000 -0.0152223806
C   C11       1.0  0.93850  0.70470  0.85090  1.0000 -0.126136096
C   C12       1.0  0.93850  0.79530  0.35090  1.0000 -0.126136096
C   C13       1.0  0.90980  0.62110  0.71610  1.0000 0.5506461954
C   C14       1.0  0.90980  0.87890  0.21610  1.0000 0.5506461954
C   C15       1.0  0.08710  0.51290  0.83350  1.0000 -0.1788424866
C   C16       1.0  0.08710  0.98710  0.33350  1.0000 -0.1788424866
C   C17       1.0  0.67220  0.13460  0.10730  1.0000 0.0829173087
C   C18       1.0  0.67220  0.36540  0.60730  1.0000 0.0829173087
C   C19       1.0  0.11520  0.59510  0.96250  1.0000 -0.1788424866
C   C20       1.0  0.11520  0.90490  0.46250  1.0000 -0.1788424866
C   C21       1.0  0.97930  0.61230  0.80240  1.0000 -0.0029918737
C   C22       1.0  0.97930  0.88770  0.30240  1.0000 -0.0029918737
C   C23       1.0  0.36800  0.38490  0.00910  1.0000 0.4471843338
C   C24       1.0  0.36800  0.11510  0.50910  1.0000 0.4471843338
C   C25       1.0  0.15590  0.50380  0.91240  1.0000 0.231028965
C   C26       1.0  0.15590  0.99620  0.41240  1.0000 0.231028965
C   C27       1.0  0.48190  0.26960  0.01960  1.0000 0.0347733798
C   C28       1.0  0.48190  0.23040  0.51960  1.0000 0.0347733798
C   C29       1.0  0.03120  0.29370  0.51600  1.0000 0.5027637577
C   C30       1.0  0.03120  0.20630  0.01600  1.0000 0.5027637577
C   C31       1.0  0.44270  0.73130  0.40520  1.0000 -0.1411061192
C   C32       1.0  0.44270  0.76870  0.90520  1.0000 -0.1411061192
C   C33       1.0  0.35890  0.60830  0.52400  1.0000 0.090777226
C   C34       1.0  0.35890  0.89170  0.02400  1.0000 0.090777226
C   C35       1.0  0.47430  0.70570  0.54060  1.0000 -0.1540223265
C   C36       1.0  0.47430  0.79430  0.04060  1.0000 -0.1540223265
C   C37       1.0  0.99300  0.19530  0.56970  1.0000 -0.0152223806
C   C38       1.0  0.99300  0.30470  0.06970  1.0000 -0.0152223806
C   C39       1.0  0.06150  0.20470  0.64910  1.0000 -0.126136096
C   C40       1.0  0.06150  0.29530  0.14910  1.0000 -0.126136096
C   C41       1.0  0.09020  0.12110  0.78390  1.0000 0.5506461954
C   C42       1.0  0.09020  0.37890  0.28390  1.0000 0.5506461954
C   C43       1.0  0.91290  0.01290  0.66650  1.0000 -0.1788424866
C   C44       1.0  0.91290  0.48710  0.16650  1.0000 -0.1788424866
C   C45       1.0  0.32780  0.63460  0.39270  1.0000 0.0829173087
C   C46       1.0  0.32780  0.86540  0.89270  1.0000 0.0829173087
C   C47       1.0  0.88480  0.09510  0.53750  1.0000 -0.1788424866
C   C48       1.0  0.88480  0.40490  0.03750  1.0000 -0.1788424866
C   C49       1.0  0.02070  0.11230  0.69760  1.0000 -0.0029918737
C   C50       1.0  0.02070  0.38770  0.19760  1.0000 -0.0029918737
C   C51       1.0  0.63200  0.88490  0.49090  1.0000 0.4471843338
C   C52       1.0  0.63200  0.61510  0.99090  1.0000 0.4471843338
C   C53       1.0  0.84410  0.00380  0.58760  1.0000 0.231028965
C   C54       1.0  0.84410  0.49620  0.08760  1.0000 0.231028965
C   C55       1.0  0.51810  0.76960  0.48040  1.0000 0.0347733798
C   C56       1.0  0.51810  0.73040  0.98040  1.0000 0.0347733798
N   N1        1.0  0.71560  0.07290  0.04900  1.0000 -0.2515261972
N   N2        1.0  0.71560  0.42710  0.54900  1.0000 -0.2515261972
N   N3        1.0  0.26390  0.39900  0.93870  1.0000 -0.3448755944
N   N4        1.0  0.26390  0.10100  0.43870  1.0000 -0.3453172946
N   N5        1.0  0.28440  0.57290  0.45100  1.0000 -0.2515261972
N   N6        1.0  0.28440  0.92710  0.95100  1.0000 -0.2515261972
N   N7        1.0  0.73610  0.89900  0.56130  1.0000 -0.3448755944
N   N8        1.0  0.73610  0.60100  0.06130  1.0000 -0.3448755944
O   O1        1.0  0.02605  0.78550  0.05625  1.0000 -0.4577492082
O   O2        1.0  0.02605  0.71450  0.55625  1.0000 -0.4577492082
O   O3        1.0  0.87827  0.89150  0.95817  1.0000 -0.5433358455
O   O4        1.0  0.87827  0.60850  0.45817  1.0000 -0.5433358455
O   O5        1.0  0.96724  0.53600  0.67664  1.0000 -0.5333297157
O   O6        1.0  0.96724  0.96400  0.17664  1.0000 -0.5333297157
O   O7        1.0  0.80683  0.70320  0.68693  1.0000 -0.5604227686
O   O8        1.0  0.80683  0.79680  0.18693  1.0000 -0.5604227686
O   O9        1.0  0.37572  0.45920  0.06322  1.0000 -0.4431644732
O   O10       1.0  0.37572  0.04080  0.56322  1.0000 -0.4431644732
O   O11       1.0  0.97395  0.28550  0.44375  1.0000 -0.4577492082
O   O12       1.0  0.97395  0.21450  0.94375  1.0000 -0.4577492082
O   O13       1.0  0.12173  0.39150  0.54183  1.0000 -0.5433358455
O   O14       1.0  0.12173  0.10850  0.04183  1.0000 -0.5433358455
O   O15       1.0  0.03276  0.03600  0.82336  1.0000 -0.5333297157
O   O16       1.0  0.03276  0.46400  0.32336  1.0000 -0.5333297157
O   O17       1.0  0.19317  0.20320  0.81307  1.0000 -0.5604227686
O   O18       1.0  0.19317  0.29680  0.31307  1.0000 -0.5604227686
O   O19       1.0  0.62428  0.95920  0.43678  1.0000 -0.4431644732
O   O20       1.0  0.62428  0.54080  0.93678  1.0000 -0.4431644732
