# DDEC6 charges by PACMAN v1.1 (https://github.com/mtap-research/PACMAN-charge/)
data_2012[Zn][pcu]3[FSR]6
_chemical_formula_sum              "Zn8 H24 C48 O26"
_cell_length_a       18.2702
_cell_length_b       18.2702
_cell_length_c       18.2702
_cell_angle_alpha    60
_cell_angle_beta     60
_cell_angle_gamma    60

_symmetry_space_group_name_H-M    "P 1"
_symmetry_Int_Tables_number       1

loop_
  _symmetry_equiv_pos_as_xyz
  'x, y, z'

loop_
  _atom_site_type_symbol
  _atom_site_label
  _atom_site_symmetry_multiplicity
  _atom_site_fract_x
  _atom_site_fract_y
  _atom_site_fract_z
  _atom_site_occupancy
  _atom_site_charge
Zn  Zn1       1.0  0.20654  0.20654  0.20654  1.0000 0.9584297504
Zn  Zn2       1.0  0.20654  0.20654  0.38038  1.0000 0.9584297504
Zn  Zn3       1.0  0.20654  0.38038  0.20654  1.0000 0.9584297504
Zn  Zn4       1.0  0.38038  0.20654  0.20654  1.0000 0.9584297504
Zn  Zn5       1.0  0.79346  0.79346  0.61962  1.0000 0.9584297504
Zn  Zn6       1.0  0.79346  0.79346  0.79346  1.0000 0.9584297504
Zn  Zn7       1.0  0.79346  0.61962  0.79346  1.0000 0.9584297504
Zn  Zn8       1.0  0.61962  0.79346  0.79346  1.0000 0.9584297504
H   H1        1.0  0.04550  0.04550  0.34450  1.0000 0.1249638688
H   H2        1.0  0.04550  0.04550  0.56450  1.0000 0.1249638688
H   H3        1.0  0.34450  0.56450  0.04550  1.0000 0.1249638688
H   H4        1.0  0.56450  0.34450  0.04550  1.0000 0.1254968684
H   H5        1.0  0.34450  0.04550  0.04550  1.0000 0.1249638688
H   H6        1.0  0.56450  0.04550  0.04550  1.0000 0.1249638688
H   H7        1.0  0.04550  0.34450  0.56450  1.0000 0.1249638688
H   H8        1.0  0.04550  0.56450  0.34450  1.0000 0.1249638688
H   H9        1.0  0.04550  0.34450  0.04550  1.0000 0.1249638688
H   H10       1.0  0.04550  0.56450  0.04550  1.0000 0.1254968684
H   H11       1.0  0.56450  0.04550  0.34450  1.0000 0.1249638688
H   H12       1.0  0.34450  0.04550  0.56450  1.0000 0.1249638688
H   H13       1.0  0.95450  0.95450  0.43550  1.0000 0.1254968684
H   H14       1.0  0.95450  0.95450  0.65550  1.0000 0.1254968684
H   H15       1.0  0.65550  0.43550  0.95450  1.0000 0.1249638688
H   H16       1.0  0.43550  0.65550  0.95450  1.0000 0.1249638688
H   H17       1.0  0.65550  0.95450  0.43550  1.0000 0.1249638688
H   H18       1.0  0.43550  0.95450  0.65550  1.0000 0.1254968684
H   H19       1.0  0.95450  0.65550  0.95450  1.0000 0.1249638688
H   H20       1.0  0.95450  0.43550  0.95450  1.0000 0.1249638688
H   H21       1.0  0.95450  0.65550  0.43550  1.0000 0.1249638688
H   H22       1.0  0.95450  0.43550  0.65550  1.0000 0.1249638688
H   H23       1.0  0.43550  0.95450  0.95450  1.0000 0.1249638688
H   H24       1.0  0.65550  0.95450  0.95450  1.0000 0.1249638688
C   C1        1.0  0.11080  0.11080  0.38920  1.0000 0.5960096527
C   C2        1.0  0.38920  0.38920  0.11080  1.0000 0.5960096527
C   C3        1.0  0.38920  0.11080  0.11080  1.0000 0.5960096527
C   C4        1.0  0.11080  0.38920  0.38920  1.0000 0.5960096527
C   C5        1.0  0.11080  0.38920  0.11080  1.0000 0.5949168991
C   C6        1.0  0.38920  0.11080  0.38920  1.0000 0.5960096527
C   C7        1.0  0.88920  0.88920  0.61080  1.0000 0.5960096527
C   C8        1.0  0.61080  0.61080  0.88920  1.0000 0.5960096527
C   C9        1.0  0.61080  0.88920  0.61080  1.0000 0.5960096527
C   C10       1.0  0.88920  0.61080  0.88920  1.0000 0.5960096527
C   C11       1.0  0.88920  0.61080  0.61080  1.0000 0.5960096527
C   C12       1.0  0.61080  0.88920  0.88920  1.0000 0.5960096527
C   C13       1.0  0.05320  0.05320  0.44680  1.0000 -0.0319857875
C   C14       1.0  0.44680  0.44680  0.05320  1.0000 -0.0319857875
C   C15       1.0  0.44680  0.05320  0.05320  1.0000 -0.0319857875
C   C16       1.0  0.05320  0.44680  0.44680  1.0000 -0.0319857875
C   C17       1.0  0.05320  0.44680  0.05320  1.0000 -0.0319857875
C   C18       1.0  0.44680  0.05320  0.44680  1.0000 -0.0319857875
C   C19       1.0  0.94680  0.94680  0.55320  1.0000 -0.0319857875
C   C20       1.0  0.55320  0.55320  0.94680  1.0000 -0.0319857875
C   C21       1.0  0.55320  0.94680  0.55320  1.0000 -0.0319857875
C   C22       1.0  0.94680  0.55320  0.94680  1.0000 -0.0319857875
C   C23       1.0  0.94680  0.55320  0.55320  1.0000 -0.0319857875
C   C24       1.0  0.55320  0.94680  0.94680  1.0000 -0.0319857875
C   C25       1.0  0.02710  0.02710  0.40788  1.0000 -0.0922622158
C   C26       1.0  0.02710  0.02710  0.53792  1.0000 -0.0922622158
C   C27       1.0  0.40788  0.53792  0.02710  1.0000 -0.0922622158
C   C28       1.0  0.53792  0.40788  0.02710  1.0000 -0.0922622158
C   C29       1.0  0.40788  0.02710  0.02710  1.0000 -0.0922622158
C   C30       1.0  0.53792  0.02710  0.02710  1.0000 -0.0922622158
C   C31       1.0  0.02710  0.40788  0.53792  1.0000 -0.0922622158
C   C32       1.0  0.02710  0.53792  0.40788  1.0000 -0.0922622158
C   C33       1.0  0.02710  0.40788  0.02710  1.0000 -0.0922622158
C   C34       1.0  0.02710  0.53792  0.02710  1.0000 -0.0922622158
C   C35       1.0  0.53792  0.02710  0.40788  1.0000 -0.0922622158
C   C36       1.0  0.40788  0.02710  0.53792  1.0000 -0.0922622158
C   C37       1.0  0.97290  0.97290  0.46208  1.0000 -0.0922622158
C   C38       1.0  0.97290  0.97290  0.59212  1.0000 -0.0922622158
C   C39       1.0  0.59212  0.46208  0.97290  1.0000 -0.0922622158
C   C40       1.0  0.46208  0.59212  0.97290  1.0000 -0.0922622158
C   C41       1.0  0.59212  0.97290  0.46208  1.0000 -0.0922622158
C   C42       1.0  0.46208  0.97290  0.59212  1.0000 -0.0922622158
C   C43       1.0  0.97290  0.59212  0.97290  1.0000 -0.0922622158
C   C44       1.0  0.97290  0.46208  0.97290  1.0000 -0.0922622158
C   C45       1.0  0.97290  0.59212  0.46208  1.0000 -0.0922622158
C   C46       1.0  0.97290  0.46208  0.59212  1.0000 -0.0922622158
C   C47       1.0  0.46208  0.97290  0.97290  1.0000 -0.0922622158
C   C48       1.0  0.59212  0.97290  0.97290  1.0000 -0.0922622158
O   O1        1.0  0.25000  0.25000  0.25000  1.0000 -1.0456059385
O   O2        1.0  0.75000  0.75000  0.75000  1.0000 -1.0456059385
O   O3        1.0  0.13338  0.13338  0.30448  1.0000 -0.5471218511
O   O4        1.0  0.13338  0.13338  0.42876  1.0000 -0.5471218511
O   O5        1.0  0.30448  0.42876  0.13338  1.0000 -0.5471218511
O   O6        1.0  0.42876  0.30448  0.13338  1.0000 -0.5471218511
O   O7        1.0  0.30448  0.13338  0.13338  1.0000 -0.5471218511
O   O8        1.0  0.42876  0.13338  0.13338  1.0000 -0.5471218511
O   O9        1.0  0.13338  0.30448  0.42876  1.0000 -0.5471218511
O   O10       1.0  0.13338  0.42876  0.30448  1.0000 -0.5471218511
O   O11       1.0  0.13338  0.30448  0.13338  1.0000 -0.5471218511
O   O12       1.0  0.13338  0.42876  0.13338  1.0000 -0.5471218511
O   O13       1.0  0.42876  0.13338  0.30448  1.0000 -0.5471218511
O   O14       1.0  0.30448  0.13338  0.42876  1.0000 -0.5471218511
O   O15       1.0  0.86662  0.86662  0.57124  1.0000 -0.5471218511
O   O16       1.0  0.86662  0.86662  0.69552  1.0000 -0.5471218511
O   O17       1.0  0.69552  0.57124  0.86662  1.0000 -0.5471218511
O   O18       1.0  0.57124  0.69552  0.86662  1.0000 -0.5471218511
O   O19       1.0  0.69552  0.86662  0.57124  1.0000 -0.5471218511
O   O20       1.0  0.57124  0.86662  0.69552  1.0000 -0.5471218511
O   O21       1.0  0.86662  0.69552  0.86662  1.0000 -0.5471218511
O   O22       1.0  0.86662  0.57124  0.86662  1.0000 -0.5471218511
O   O23       1.0  0.86662  0.69552  0.57124  1.0000 -0.5471218511
O   O24       1.0  0.86662  0.57124  0.69552  1.0000 -0.5471218511
O   O25       1.0  0.57124  0.86662  0.86662  1.0000 -0.5471218511
O   O26       1.0  0.69552  0.86662  0.86662  1.0000 -0.5471218511
