# DDEC6 charges by PACMAN v1.1 (https://github.com/mtap-research/PACMAN-charge/)
data_2012[Co][rtl]3[FSR]1
_chemical_formula_sum              "Co2 H24 C32 N4 O8"
_cell_length_a       8.201
_cell_length_b       10.492
_cell_length_c       13.1996
_cell_angle_alpha    90
_cell_angle_beta     122.939
_cell_angle_gamma    90

_symmetry_space_group_name_H-M    "P 1"
_symmetry_Int_Tables_number       1

loop_
  _symmetry_equiv_pos_as_xyz
  'x, y, z'

loop_
  _atom_site_type_symbol
  _atom_site_label
  _atom_site_symmetry_multiplicity
  _atom_site_fract_x
  _atom_site_fract_y
  _atom_site_fract_z
  _atom_site_occupancy
  _atom_site_charge
Co  Co1       1.0  0.00000  0.50000  0.00000  1.0000 0.8121627966
Co  Co2       1.0  0.00000  0.00000  0.50000  1.0000 0.8121627966
H   H1        1.0  0.80120  0.59990  0.09960  1.0000 0.1078549518
H   H2        1.0  0.19880  0.09990  0.40040  1.0000 0.1078549518
H   H3        1.0  0.19880  0.40010  0.90040  1.0000 0.1078549518
H   H4        1.0  0.80120  0.90010  0.59960  1.0000 0.1078549518
H   H5        1.0  0.64570  0.53450  0.18770  1.0000 0.1255802611
H   H6        1.0  0.35430  0.03450  0.31230  1.0000 0.1255802611
H   H7        1.0  0.35430  0.46550  0.81230  1.0000 0.1255802611
H   H8        1.0  0.64570  0.96550  0.68770  1.0000 0.1255802611
H   H9        1.0  0.83800  0.17590  0.20100  1.0000 0.140886041
H   H10       1.0  0.16200  0.67590  0.29900  1.0000 0.140886041
H   H11       1.0  0.16200  0.82410  0.79900  1.0000 0.140886041
H   H12       1.0  0.83800  0.32410  0.70100  1.0000 0.140886041
H   H13       1.0  0.98580  0.25110  0.11090  1.0000 0.1078549518
H   H14       1.0  0.01420  0.75110  0.38910  1.0000 0.1078549518
H   H15       1.0  0.01420  0.74890  0.88910  1.0000 0.1078549518
H   H16       1.0  0.98580  0.24890  0.61090  1.0000 0.1078549518
H   H17       1.0  0.63650  0.17790  0.36850  1.0000 0.0917442689
H   H18       1.0  0.36350  0.67790  0.13150  1.0000 0.0917442689
H   H19       1.0  0.36350  0.82210  0.63150  1.0000 0.0917442689
H   H20       1.0  0.63650  0.32210  0.86850  1.0000 0.0917442689
H   H21       1.0  0.35850  0.30870  0.23940  1.0000 0.0838700334
H   H22       1.0  0.64150  0.80870  0.26060  1.0000 0.0838700334
H   H23       1.0  0.64150  0.69130  0.76060  1.0000 0.0838700334
H   H24       1.0  0.35850  0.19130  0.73940  1.0000 0.0838700334
C   C1        1.0  0.80550  0.51270  0.12020  1.0000 0.0917442689
C   C2        1.0  0.19450  0.01270  0.37980  1.0000 0.0917442689
C   C3        1.0  0.19450  0.48730  0.87980  1.0000 0.0917442689
C   C4        1.0  0.80550  0.98730  0.62020  1.0000 0.0917442689
C   C5        1.0  0.71570  0.47520  0.17110  1.0000 -0.2109933844
C   C6        1.0  0.28430  0.97520  0.32890  1.0000 -0.2109933844
C   C7        1.0  0.28430  0.52480  0.82890  1.0000 -0.2109933844
C   C8        1.0  0.71570  0.02480  0.67110  1.0000 -0.2109933844
C   C9        1.0  0.82790  0.26320  0.17930  1.0000 -0.170000424
C   C10       1.0  0.17210  0.76320  0.32070  1.0000 -0.170000424
C   C11       1.0  0.17210  0.73680  0.82070  1.0000 -0.170000424
C   C12       1.0  0.82790  0.23680  0.67930  1.0000 -0.170000424
C   C13       1.0  0.91310  0.30780  0.12770  1.0000 0.0447602297
C   C14       1.0  0.08690  0.80780  0.37230  1.0000 0.0447602297
C   C15       1.0  0.08690  0.69220  0.87230  1.0000 0.0447602297
C   C16       1.0  0.91310  0.19220  0.62770  1.0000 0.0447602297
C   C17       1.0  0.72320  0.34750  0.20110  1.0000 0.140886041
C   C18       1.0  0.27680  0.84750  0.29890  1.0000 0.140886041
C   C19       1.0  0.27680  0.65250  0.79890  1.0000 0.140886041
C   C20       1.0  0.72320  0.15250  0.70110  1.0000 0.140886041
C   C21       1.0  0.62020  0.30310  0.24930  1.0000 -0.0954205295
C   C22       1.0  0.37980  0.80310  0.25070  1.0000 -0.0954205295
C   C23       1.0  0.37980  0.69690  0.75070  1.0000 -0.0954205295
C   C24       1.0  0.62020  0.19690  0.74930  1.0000 -0.0954205295
C   C25       1.0  0.71350  0.21170  0.34120  1.0000 0.1078549518
C   C26       1.0  0.28650  0.71170  0.15880  1.0000 0.1078549518
C   C27       1.0  0.28650  0.78830  0.65880  1.0000 0.1078549518
C   C28       1.0  0.71350  0.28830  0.84120  1.0000 0.1078549518
C   C29       1.0  0.41650  0.34610  0.20090  1.0000 0.2205297152
C   C30       1.0  0.58350  0.84610  0.29910  1.0000 0.2205297152
C   C31       1.0  0.58350  0.65390  0.79910  1.0000 0.2205297152
C   C32       1.0  0.41650  0.15390  0.70090  1.0000 0.2205297152
N   N1        1.0  0.90218  0.43080  0.09728  1.0000 -0.2503460696
N   N2        1.0  0.09782  0.93080  0.40272  1.0000 -0.2503460696
N   N3        1.0  0.09782  0.56920  0.90272  1.0000 -0.2503460696
N   N4        1.0  0.90218  0.06920  0.59728  1.0000 -0.2503460696
O   O1        1.0  0.89584  0.16415  0.39694  1.0000 -0.4972399374
O   O2        1.0  0.10416  0.66415  0.10306  1.0000 -0.4972399374
O   O3        1.0  0.10416  0.83585  0.60306  1.0000 -0.4972399374
O   O4        1.0  0.89584  0.33585  0.89694  1.0000 -0.4972399374
O   O5        1.0  0.30768  0.42430  0.11698  1.0000 -0.4456467678
O   O6        1.0  0.69232  0.92430  0.38302  1.0000 -0.4456467678
O   O7        1.0  0.69232  0.57570  0.88302  1.0000 -0.4456467678
O   O8        1.0  0.30768  0.07570  0.61698  1.0000 -0.4456467678
