# DDEC6 charges by PACMAN v1.1 (https://github.com/mtap-research/PACMAN-charge/)
data_2012[Ni][rtl]3[FSR]1
_chemical_formula_sum              "Ni2 H36 C48 S4 N16 O12"
_cell_length_a       7.45297
_cell_length_b       15.0032
_cell_length_c       17.612
_cell_angle_alpha    90
_cell_angle_beta     91.2922
_cell_angle_gamma    90

_symmetry_space_group_name_H-M    "P 1"
_symmetry_Int_Tables_number       1

loop_
  _symmetry_equiv_pos_as_xyz
  'x, y, z'

loop_
  _atom_site_type_symbol
  _atom_site_label
  _atom_site_symmetry_multiplicity
  _atom_site_fract_x
  _atom_site_fract_y
  _atom_site_fract_z
  _atom_site_occupancy
  _atom_site_charge
Ni  Ni1       1.0  0.00000  0.00000  0.00000  1.0000 0.6922054616
Ni  Ni2       1.0  0.00000  0.50000  0.50000  1.0000 0.6922054616
H   H1        1.0  0.10563  0.86654  0.28209  1.0000 0.1247416017
H   H2        1.0  0.89437  0.36654  0.21791  1.0000 0.1247416017
H   H3        1.0  0.89437  0.13346  0.71791  1.0000 0.1247416017
H   H4        1.0  0.10563  0.63346  0.78209  1.0000 0.1247416017
H   H5        1.0  0.47719  0.66993  0.29964  1.0000 0.1382437786
H   H6        1.0  0.52281  0.16993  0.20036  1.0000 0.1382437786
H   H7        1.0  0.52281  0.33007  0.70036  1.0000 0.1382437786
H   H8        1.0  0.47719  0.83007  0.79964  1.0000 0.1382437786
H   H9        1.0  0.63383  0.73294  0.19925  1.0000 0.1276378311
H   H10       1.0  0.36617  0.23294  0.30075  1.0000 0.1276378311
H   H11       1.0  0.36617  0.26706  0.80075  1.0000 0.1276378311
H   H12       1.0  0.63383  0.76706  0.69925  1.0000 0.1276378311
H   H13       1.0  0.41175  0.84021  0.02306  1.0000 0.1276378311
H   H14       1.0  0.58825  0.34021  0.47694  1.0000 0.1276378311
H   H15       1.0  0.58825  0.15979  0.97694  1.0000 0.1276378311
H   H16       1.0  0.41175  0.65979  0.52306  1.0000 0.1276378311
H   H17       1.0  0.63892  0.92260  0.95029  1.0000 0.2829337148
H   H18       1.0  0.36108  0.42260  0.54971  1.0000 0.2829337148
H   H19       1.0  0.36108  0.07740  0.04971  1.0000 0.2829337148
H   H20       1.0  0.63892  0.57740  0.45029  1.0000 0.2829337148
H   H21       1.0  0.77563  0.93946  0.17120  1.0000 0.1382437786
H   H22       1.0  0.22437  0.43946  0.32880  1.0000 0.1382437786
H   H23       1.0  0.22437  0.06054  0.82880  1.0000 0.1382437786
H   H24       1.0  0.77563  0.56054  0.67120  1.0000 0.1382437786
H   H25       1.0  0.25616  0.59087  0.36233  1.0000 0.1276378311
H   H26       1.0  0.74384  0.09087  0.13767  1.0000 0.1276378311
H   H27       1.0  0.74384  0.40913  0.63767  1.0000 0.1276378311
H   H28       1.0  0.25616  0.90913  0.86233  1.0000 0.1276378311
H   H29       1.0  0.91987  0.71962  0.49879  1.0000 0.285488638
H   H30       1.0  0.08013  0.21962  0.00121  1.0000 0.285488638
H   H31       1.0  0.08013  0.28038  0.50121  1.0000 0.2829337148
H   H32       1.0  0.91987  0.78038  0.99879  1.0000 0.2829337148
H   H33       1.0  0.03538  0.82842  0.40609  1.0000 0.1276378311
H   H34       1.0  0.96462  0.32842  0.09391  1.0000 0.1276378311
H   H35       1.0  0.96462  0.17158  0.59391  1.0000 0.1247416017
H   H36       1.0  0.03538  0.67158  0.90609  1.0000 0.1276378311
C   C1        1.0  0.46277  0.83717  0.18104  1.0000 0.0736826909
C   C2        1.0  0.53723  0.33717  0.31896  1.0000 0.0736826909
C   C3        1.0  0.53723  0.16283  0.81896  1.0000 0.0736826909
C   C4        1.0  0.46277  0.66283  0.68104  1.0000 0.0736826909
C   C5        1.0  0.30589  0.87685  0.20564  1.0000 -0.1206502365
C   C6        1.0  0.69411  0.37685  0.29436  1.0000 -0.1206502365
C   C7        1.0  0.69411  0.12315  0.79436  1.0000 -0.1206502365
C   C8        1.0  0.30589  0.62315  0.70564  1.0000 -0.1206502365
C   C9        1.0  0.21285  0.83942  0.26528  1.0000 -0.1556512984
C   C10       1.0  0.78715  0.33942  0.23472  1.0000 -0.1556512984
C   C11       1.0  0.78715  0.16058  0.73472  1.0000 -0.1556512984
C   C12       1.0  0.21285  0.66058  0.76528  1.0000 -0.1556512984
C   C13       1.0  0.27669  0.76231  0.30030  1.0000 0.0933413235
C   C14       1.0  0.72331  0.26231  0.19970  1.0000 0.0933413235
C   C15       1.0  0.72331  0.23769  0.69970  1.0000 0.0933413235
C   C16       1.0  0.27669  0.73769  0.80030  1.0000 0.0933413235
C   C17       1.0  0.43357  0.72263  0.27570  1.0000 -0.1206502365
C   C18       1.0  0.56643  0.22263  0.22430  1.0000 -0.1206502365
C   C19       1.0  0.56643  0.27737  0.72430  1.0000 -0.1206502365
C   C20       1.0  0.43357  0.77737  0.77570  1.0000 -0.1206502365
C   C21       1.0  0.52661  0.76006  0.21606  1.0000 -0.1307683746
C   C22       1.0  0.47339  0.26006  0.28394  1.0000 -0.1307683746
C   C23       1.0  0.47339  0.23994  0.78394  1.0000 -0.1307683746
C   C24       1.0  0.52661  0.73994  0.71606  1.0000 -0.1307683746
C   C25       1.0  0.55983  0.87622  0.11883  1.0000 -0.0292255856
C   C26       1.0  0.44017  0.37622  0.38117  1.0000 -0.0292255856
C   C27       1.0  0.44017  0.12378  0.88117  1.0000 -0.0292255856
C   C28       1.0  0.55983  0.62378  0.61883  1.0000 -0.0292255856
C   C29       1.0  0.51344  0.87049  0.04386  1.0000 -0.0652864324
C   C30       1.0  0.48656  0.37049  0.45614  1.0000 -0.0652864324
C   C31       1.0  0.48656  0.12951  0.95614  1.0000 -0.0652864324
C   C32       1.0  0.51344  0.62951  0.54386  1.0000 -0.0652864324
C   C33       1.0  0.71324  0.92499  0.12521  1.0000 -0.0559581668
C   C34       1.0  0.28676  0.42499  0.37479  1.0000 -0.0559581668
C   C35       1.0  0.28676  0.07501  0.87479  1.0000 -0.0559581668
C   C36       1.0  0.71324  0.57501  0.62521  1.0000 -0.0559581668
C   C37       1.0  0.17963  0.72326  0.36251  1.0000 -0.0292255856
C   C38       1.0  0.82037  0.22326  0.13749  1.0000 -0.0292255856
C   C39       1.0  0.82037  0.27674  0.63749  1.0000 -0.0292255856
C   C40       1.0  0.17963  0.77674  0.86251  1.0000 -0.0292255856
C   C41       1.0  0.18674  0.63652  0.38479  1.0000 -0.0441543308
C   C42       1.0  0.81326  0.13652  0.11521  1.0000 -0.0456694374
C   C43       1.0  0.81326  0.36348  0.61521  1.0000 -0.0441543308
C   C44       1.0  0.18674  0.86348  0.88479  1.0000 -0.0441543308
C   C45       1.0  0.06550  0.76696  0.40882  1.0000 -0.0789221553
C   C46       1.0  0.93450  0.26696  0.09118  1.0000 -0.0789221553
C   C47       1.0  0.93450  0.23304  0.59118  1.0000 -0.0789221553
C   C48       1.0  0.06550  0.73304  0.90882  1.0000 -0.0789221553
S   S1        1.0  0.22461  0.97504  0.16104  1.0000 1.1882874695
S   S2        1.0  0.77539  0.47504  0.33896  1.0000 1.1882874695
S   S3        1.0  0.77539  0.02496  0.83896  1.0000 1.1882874695
S   S4        1.0  0.22461  0.52496  0.66104  1.0000 1.1882874695
N   N1        1.0  0.63817  0.91573  0.00391  1.0000 -0.0861839327
N   N2        1.0  0.36183  0.41573  0.49609  1.0000 -0.0861839327
N   N3        1.0  0.36183  0.08427  0.99609  1.0000 -0.0861839327
N   N4        1.0  0.63817  0.58427  0.50391  1.0000 -0.0861839327
N   N5        1.0  0.76166  0.94941  0.05418  1.0000 -0.1723717945
N   N6        1.0  0.23834  0.44941  0.44582  1.0000 -0.1723717945
N   N7        1.0  0.23834  0.05059  0.94582  1.0000 -0.1723717945
N   N8        1.0  0.76166  0.55059  0.55418  1.0000 -0.1723717945
N   N9        1.0  0.07700  0.62660  0.44487  1.0000 -0.1455127321
N   N10       1.0  0.92300  0.12660  0.05513  1.0000 -0.1455127321
N   N11       1.0  0.92300  0.37340  0.55513  1.0000 -0.1446930739
N   N12       1.0  0.07700  0.87340  0.94487  1.0000 -0.1455127321
N   N13       1.0  0.00208  0.70721  0.45972  1.0000 -0.0789221553
N   N14       1.0  0.99792  0.20721  0.04028  1.0000 -0.0789221553
N   N15       1.0  0.99792  0.29279  0.54028  1.0000 -0.0789221553
N   N16       1.0  0.00208  0.79279  0.95972  1.0000 -0.0789221553
O   O1        1.0  0.17871  0.95559  0.07816  1.0000 -0.6363007697
O   O2        1.0  0.82129  0.45559  0.42184  1.0000 -0.6363007697
O   O3        1.0  0.82129  0.04441  0.92184  1.0000 -0.6363007697
O   O4        1.0  0.17871  0.54441  0.57816  1.0000 -0.6363007697
O   O5        1.0  0.05743  0.00687  0.20081  1.0000 -0.6110683354
O   O6        1.0  0.94257  0.50687  0.29919  1.0000 -0.6110683354
O   O7        1.0  0.94257  0.99313  0.79919  1.0000 -0.6110683354
O   O8        1.0  0.05743  0.49313  0.70081  1.0000 -0.6110683354
O   O9        1.0  0.36794  0.04701  0.16596  1.0000 -0.6185895475
O   O10       1.0  0.63206  0.54701  0.33404  1.0000 -0.6185895475
O   O11       1.0  0.63206  0.95299  0.83404  1.0000 -0.6185895475
O   O12       1.0  0.36794  0.45299  0.66596  1.0000 -0.6185895475
