# DDEC6 charges by PACMAN v1.1 (https://github.com/mtap-research/PACMAN-charge/)
data_2013[Cu][ths]3[FSR]1
_chemical_formula_sum              "Cu2 H48 C66 N8 Cl4"
_cell_length_a       11.7526
_cell_length_b       11.7526
_cell_length_c       11.8323
_cell_angle_alpha    88.2188
_cell_angle_beta     91.7812
_cell_angle_gamma    74.8131

_symmetry_space_group_name_H-M    "P 1"
_symmetry_Int_Tables_number       1

loop_
  _symmetry_equiv_pos_as_xyz
  'x, y, z'

loop_
  _atom_site_type_symbol
  _atom_site_label
  _atom_site_symmetry_multiplicity
  _atom_site_fract_x
  _atom_site_fract_y
  _atom_site_fract_z
  _atom_site_occupancy
  _atom_site_charge
Cu  Cu1       1.0  0.73123  0.87055  0.53017  1.0000 0.6138094282
Cu  Cu2       1.0  0.12945  0.26877  0.03017  1.0000 0.6138094282
H   H1        1.0  0.56540  0.87440  0.72510  1.0000 0.1084183371
H   H2        1.0  0.12560  0.43460  0.22510  1.0000 0.1084183371
H   H3        1.0  0.52190  0.96850  0.89320  1.0000 0.1188681067
H   H4        1.0  0.03150  0.47810  0.39320  1.0000 0.1188681067
H   H5        1.0  0.79820  0.11020  0.85030  1.0000 0.1433292805
H   H6        1.0  0.88980  0.20180  0.35030  1.0000 0.1433292805
H   H7        1.0  0.83260  0.01320  0.68280  1.0000 0.1188681067
H   H8        1.0  0.98680  0.16740  0.18280  1.0000 0.1188681067
H   H9        1.0  0.63580  0.38300  0.08860  1.0000 0.1188681067
H   H10       1.0  0.61700  0.36420  0.58860  1.0000 0.1188681067
H   H11       1.0  0.69890  0.25690  0.94240  1.0000 0.1188681067
H   H12       1.0  0.74310  0.30110  0.44240  1.0000 0.1188681067
H   H13       1.0  0.53200  0.02560  0.07500  1.0000 0.1084183371
H   H14       1.0  0.97440  0.46800  0.57500  1.0000 0.1084183371
H   H15       1.0  0.47190  0.14930  0.22410  1.0000 0.1188681067
H   H16       1.0  0.85070  0.52810  0.72410  1.0000 0.1188681067
H   H17       1.0  0.21370  0.03910  0.93200  1.0000 0.1084183371
H   H18       1.0  0.96090  0.78630  0.43200  1.0000 0.1084183371
H   H19       1.0  0.30430  0.84210  0.97220  1.0000 0.1298012377
H   H20       1.0  0.15790  0.69570  0.47220  1.0000 0.1298012377
H   H21       1.0  0.35570  0.92290  0.29730  1.0000 0.1433292805
H   H22       1.0  0.07710  0.64430  0.79730  1.0000 0.1433292805
H   H23       1.0  0.26650  0.11830  0.24640  1.0000 0.1084183371
H   H24       1.0  0.88170  0.73350  0.74640  1.0000 0.1084183371
H   H25       1.0  0.54880  0.53980  0.35580  1.0000 0.1298012377
H   H26       1.0  0.46020  0.45120  0.85580  1.0000 0.1298012377
H   H27       1.0  0.47940  0.74200  0.31430  1.0000 0.1188681067
H   H28       1.0  0.25800  0.52060  0.81430  1.0000 0.1188681067
H   H29       1.0  0.30310  0.67410  0.03440  1.0000 0.1188681067
H   H30       1.0  0.32590  0.69690  0.53440  1.0000 0.1188681067
H   H31       1.0  0.37250  0.47190  0.07660  1.0000 0.1298012377
H   H32       1.0  0.52810  0.62750  0.57660  1.0000 0.1298012377
H   H33       1.0  0.37200  0.20820  0.93870  1.0000 0.1011889549
H   H34       1.0  0.79180  0.62800  0.43870  1.0000 0.1011889549
H   H35       1.0  0.46180  0.21700  0.76780  1.0000 0.1298012377
H   H36       1.0  0.78300  0.53820  0.26780  1.0000 0.1298012377
H   H37       1.0  0.13750  0.29770  0.61200  1.0000 0.1298012377
H   H38       1.0  0.70230  0.86250  0.11200  1.0000 0.1298012377
H   H39       1.0  0.05700  0.28840  0.78660  1.0000 0.1188681067
H   H40       1.0  0.71160  0.94300  0.28660  1.0000 0.1188681067
H   H41       1.0  0.30270  0.46910  0.34140  1.0000 0.1188681067
H   H42       1.0  0.53090  0.69730  0.84140  1.0000 0.1188681067
H   H43       1.0  0.22600  0.42600  0.51170  1.0000 0.1011889549
H   H44       1.0  0.57400  0.77400  0.01170  1.0000 0.1011889549
H   H45       1.0  0.50680  0.14260  0.57100  1.0000 0.1188681067
H   H46       1.0  0.85740  0.49320  0.07100  1.0000 0.1188681067
H   H47       1.0  0.58550  0.18470  0.39990  1.0000 0.1298012377
H   H48       1.0  0.81530  0.41450  0.89990  1.0000 0.1298012377
C   C1        1.0  0.61200  0.92442  0.75016  1.0000 0.0730284667
C   C2        1.0  0.07558  0.38800  0.25016  1.0000 0.0730284667
C   C3        1.0  0.58541  0.98053  0.85092  1.0000 -0.2084200987
C   C4        1.0  0.01947  0.41459  0.35092  1.0000 -0.2084200987
C   C5        1.0  0.65210  0.05532  0.89067  1.0000 0.1084183371
C   C6        1.0  0.94468  0.34790  0.39067  1.0000 0.1084183371
C   C7        1.0  0.74754  0.06400  0.82570  1.0000 -0.1781277442
C   C8        1.0  0.93600  0.25246  0.32570  1.0000 -0.1781277442
C   C9        1.0  0.76791  0.00519  0.72560  1.0000 0.0897976487
C   C10       1.0  0.99481  0.23209  0.22560  1.0000 0.0897976487
C   C11       1.0  0.54396  0.28120  0.17021  1.0000 0.2021132475
C   C12       1.0  0.71880  0.45604  0.67021  1.0000 0.2021132475
C   C13       1.0  0.61384  0.31082  0.08580  1.0000 -0.189857377
C   C14       1.0  0.68918  0.38616  0.58580  1.0000 -0.189857377
C   C15       1.0  0.65121  0.23541  0.99830  1.0000 -0.1205315673
C   C16       1.0  0.76459  0.34879  0.49830  1.0000 -0.1205315673
C   C17       1.0  0.62014  0.12826  0.99066  1.0000 0.0400596364
C   C18       1.0  0.87174  0.37986  0.49066  1.0000 0.0400596364
C   C19       1.0  0.55297  0.09835  0.07713  1.0000 -0.1413917103
C   C20       1.0  0.90165  0.44703  0.57713  1.0000 -0.1413917103
C   C21       1.0  0.51607  0.17253  0.16605  1.0000 -0.189857377
C   C22       1.0  0.82747  0.48393  0.66605  1.0000 -0.189857377
C   C23       1.0  0.24286  0.01504  0.00712  1.0000 0.0794838732
C   C24       1.0  0.98496  0.75714  0.50712  1.0000 0.0794838732
C   C25       1.0  0.29565  0.89665  0.03094  1.0000 -0.2021561597
C   C26       1.0  0.10335  0.70435  0.53094  1.0000 -0.2021561597
C   C27       1.0  0.33648  0.85684  0.14150  1.0000 0.1188681067
C   C28       1.0  0.14316  0.66352  0.64150  1.0000 0.1188681067
C   C29       1.0  0.32631  0.94393  0.22172  1.0000 -0.189857377
C   C30       1.0  0.05607  0.67369  0.72172  1.0000 -0.189857377
C   C31       1.0  0.27310  0.06108  0.19032  1.0000 0.0794838732
C   C32       1.0  0.93892  0.72690  0.69032  1.0000 0.0794838732
C   C33       1.0  0.46683  0.48649  0.22054  1.0000 0.1714920914
C   C34       1.0  0.51351  0.53317  0.72054  1.0000 0.1714920914
C   C35       1.0  0.49869  0.56733  0.29067  1.0000 -0.169046265
C   C36       1.0  0.43267  0.50131  0.79067  1.0000 -0.169046265
C   C37       1.0  0.45766  0.68764  0.26585  1.0000 -0.1205315673
C   C38       1.0  0.31236  0.54234  0.76585  1.0000 -0.1205315673
C   C39       1.0  0.38402  0.72938  0.16927  1.0000 0.0504404223
C   C40       1.0  0.27062  0.61598  0.66927  1.0000 0.0504404223
C   C41       1.0  0.35307  0.64715  0.09978  1.0000 -0.1294223154
C   C42       1.0  0.35285  0.64693  0.59978  1.0000 -0.1294223154
C   C43       1.0  0.39409  0.52661  0.12480  1.0000 -0.1781277442
C   C44       1.0  0.47339  0.60591  0.62480  1.0000 -0.1781277442
C   C45       1.0  0.32389  0.22761  0.87125  1.0000 0.0730284667
C   C46       1.0  0.77239  0.67611  0.37125  1.0000 0.0730284667
C   C47       1.0  0.37837  0.23291  0.76940  1.0000 -0.189857377
C   C48       1.0  0.76709  0.62163  0.26940  1.0000 -0.189857377
C   C49       1.0  0.30895  0.26189  0.66931  1.0000 0.1188681067
C   C50       1.0  0.73811  0.69105  0.16931  1.0000 0.1188681067
C   C51       1.0  0.18781  0.28049  0.67817  1.0000 -0.189857377
C   C52       1.0  0.71951  0.81219  0.17817  1.0000 -0.189857377
C   C53       1.0  0.14015  0.27409  0.78270  1.0000 0.0897976487
C   C54       1.0  0.72591  0.85985  0.28270  1.0000 0.0897976487
C   C55       1.0  0.45253  0.33175  0.35434  1.0000 0.1920428193
C   C56       1.0  0.66825  0.54747  0.85434  1.0000 0.1920428193
C   C57       1.0  0.34458  0.40328  0.38798  1.0000 -0.2021561597
C   C58       1.0  0.59672  0.65542  0.88798  1.0000 -0.2021561597
C   C59       1.0  0.29934  0.37744  0.48946  1.0000 -0.1294223154
C   C60       1.0  0.62256  0.70066  0.98946  1.0000 -0.1294223154
C   C61       1.0  0.35940  0.28130  0.55989  1.0000 0.0504404223
C   C62       1.0  0.71870  0.64060  0.05989  1.0000 0.0504404223
C   C63       1.0  0.46584  0.20922  0.52488  1.0000 -0.1133204968
C   C64       1.0  0.79078  0.53416  0.02488  1.0000 -0.1133204968
C   C65       1.0  0.51283  0.23401  0.42274  1.0000 -0.189857377
C   C66       1.0  0.76599  0.48717  0.92274  1.0000 -0.189857377
N   N1        1.0  0.70104  0.93752  0.68593  1.0000 -0.2194946268
N   N2        1.0  0.06248  0.29896  0.18593  1.0000 -0.2194946268
N   N3        1.0  0.23063  0.09797  0.08524  1.0000 -0.244511106
N   N4        1.0  0.90203  0.76937  0.58524  1.0000 -0.244511106
N   N5        1.0  0.20684  0.24852  0.87896  1.0000 -0.2021561597
N   N6        1.0  0.75148  0.79316  0.37896  1.0000 -0.2021561597
N   N7        1.0  0.50174  0.36324  0.25357  1.0000 -0.169046265
N   N8        1.0  0.63676  0.49826  0.75357  1.0000 -0.169046265
Cl  Cl1       1.0  0.53382  0.88430  0.49537  1.0000 -0.5448857033
Cl  Cl2       1.0  0.11570  0.46618  0.99537  1.0000 -0.5448857033
Cl  Cl3       1.0  0.80453  0.03529  0.45594  1.0000 -0.6294786417
Cl  Cl4       1.0  0.96471  0.19547  0.95594  1.0000 -0.6294786417
