# DDEC6 charges by PACMAN v1.1 (https://github.com/mtap-research/PACMAN-charge/)
data_2014[Co][rtl]3[FSR]1
_chemical_formula_sum              "Co8 H128 C200 N16 O32"
_cell_length_a       16.2387
_cell_length_b       18.6701
_cell_length_c       23.1776
_cell_angle_alpha    90
_cell_angle_beta     116.162
_cell_angle_gamma    90

_symmetry_space_group_name_H-M    "P 1"
_symmetry_Int_Tables_number       1

loop_
  _symmetry_equiv_pos_as_xyz
  'x, y, z'

loop_
  _atom_site_type_symbol
  _atom_site_label
  _atom_site_symmetry_multiplicity
  _atom_site_fract_x
  _atom_site_fract_y
  _atom_site_fract_z
  _atom_site_occupancy
  _atom_site_charge
Co  Co1       1.0  0.36433  0.03723  0.84118  1.0000 0.8619694585
Co  Co2       1.0  0.36433  0.46277  0.34118  1.0000 0.8619694585
Co  Co3       1.0  0.20662  0.95554  0.77967  1.0000 0.8619694585
Co  Co4       1.0  0.20662  0.54446  0.27967  1.0000 0.8619694585
Co  Co5       1.0  0.63567  0.53723  0.65882  1.0000 0.8619694585
Co  Co6       1.0  0.63567  0.96277  0.15882  1.0000 0.8619694585
Co  Co7       1.0  0.79338  0.45554  0.72033  1.0000 0.8619694585
Co  Co8       1.0  0.79338  0.04446  0.22033  1.0000 0.8619694585
H   H1        1.0  0.46730  0.52100  0.21240  1.0000 0.129319231
H   H2        1.0  0.46730  0.97900  0.71240  1.0000 0.129319231
H   H3        1.0  0.54070  0.56590  0.15590  1.0000 0.1194810669
H   H4        1.0  0.54070  0.93410  0.65590  1.0000 0.1194810669
H   H5        1.0  0.35160  0.71990  0.08490  1.0000 0.112537981
H   H6        1.0  0.35160  0.78010  0.58490  1.0000 0.112537981
H   H7        1.0  0.27840  0.67420  0.14190  1.0000 0.112537981
H   H8        1.0  0.27840  0.82580  0.64190  1.0000 0.112537981
H   H9        1.0  0.63360  0.70270  0.20170  1.0000 0.129319231
H   H10       1.0  0.63360  0.79730  0.70170  1.0000 0.129319231
H   H11       1.0  0.78870  0.68180  0.24480  1.0000 0.1194810669
H   H12       1.0  0.78870  0.81820  0.74480  1.0000 0.1194810669
H   H13       1.0  0.76210  0.62040  0.07420  1.0000 0.1194810669
H   H14       1.0  0.76210  0.87960  0.57420  1.0000 0.1194810669
H   H15       1.0  0.60780  0.63630  0.03240  1.0000 0.129319231
H   H16       1.0  0.60780  0.86370  0.53240  1.0000 0.129319231
H   H17       1.0  0.91100  0.60920  0.28260  1.0000 0.129319231
H   H18       1.0  0.91100  0.89080  0.78260  1.0000 0.129319231
H   H19       1.0  0.05880  0.57220  0.32150  1.0000 0.112537981
H   H20       1.0  0.05880  0.92780  0.82150  1.0000 0.112537981
H   H21       1.0  0.06460  0.61280  0.16150  1.0000 0.1194810669
H   H22       1.0  0.06460  0.88720  0.66150  1.0000 0.1194810669
H   H23       1.0  0.91440  0.64920  0.11690  1.0000 0.129319231
H   H24       1.0  0.91440  0.85080  0.61690  1.0000 0.129319231
H   H25       1.0  0.57740  0.79640  0.06800  1.0000 0.129319231
H   H26       1.0  0.57740  0.70360  0.56800  1.0000 0.129319231
H   H27       1.0  0.51610  0.88040  0.98750  1.0000 0.1194810669
H   H28       1.0  0.51610  0.61960  0.48750  1.0000 0.1194810669
H   H29       1.0  0.28630  0.76480  0.90460  1.0000 0.1194810669
H   H30       1.0  0.28630  0.73520  0.40460  1.0000 0.1194810669
H   H31       1.0  0.34770  0.68010  0.98340  1.0000 0.129319231
H   H32       1.0  0.34770  0.81990  0.48340  1.0000 0.129319231
H   H33       1.0  0.26900  0.18890  0.94990  1.0000 0.1194810669
H   H34       1.0  0.26900  0.31110  0.44990  1.0000 0.1194810669
H   H35       1.0  0.19330  0.24710  0.00010  1.0000 0.1194810669
H   H36       1.0  0.19330  0.25290  0.50010  1.0000 0.1194810669
H   H37       1.0  0.03550  0.07360  0.97430  1.0000 0.129319231
H   H38       1.0  0.03550  0.42640  0.47430  1.0000 0.129319231
H   H39       1.0  0.10510  0.01930  0.91870  1.0000 0.112537981
H   H40       1.0  0.10510  0.48070  0.41870  1.0000 0.112537981
H   H41       1.0  0.92590  0.20770  0.90680  1.0000 0.129319231
H   H42       1.0  0.92590  0.29230  0.40680  1.0000 0.129319231
H   H43       1.0  0.77650  0.16920  0.86730  1.0000 0.1194810669
H   H44       1.0  0.77650  0.33080  0.36730  1.0000 0.1194810669
H   H45       1.0  0.81380  0.12300  0.04550  1.0000 0.1194810669
H   H46       1.0  0.81380  0.37700  0.54550  1.0000 0.1194810669
H   H47       1.0  0.96530  0.15770  0.08510  1.0000 0.1194810669
H   H48       1.0  0.96530  0.34230  0.58510  1.0000 0.1194810669
H   H49       1.0  0.63040  0.16920  0.84230  1.0000 0.129319231
H   H50       1.0  0.63040  0.33080  0.34230  1.0000 0.129319231
H   H51       1.0  0.48290  0.13050  0.80530  1.0000 0.112537981
H   H52       1.0  0.48290  0.36950  0.30530  1.0000 0.112537981
H   H53       1.0  0.69760  0.04600  0.99630  1.0000 0.129319231
H   H54       1.0  0.69760  0.45400  0.49630  1.0000 0.129319231
H   H55       1.0  0.54930  0.00910  0.95490  1.0000 0.112537981
H   H56       1.0  0.54930  0.49090  0.45490  1.0000 0.112537981
H   H57       1.0  0.22510  0.20470  0.11460  1.0000 0.1194810669
H   H58       1.0  0.22510  0.29530  0.61460  1.0000 0.1194810669
H   H59       1.0  0.29140  0.28450  0.19740  1.0000 0.1194810669
H   H60       1.0  0.29140  0.21550  0.69740  1.0000 0.1194810669
H   H61       1.0  0.05350  0.38780  0.13800  1.0000 0.129319231
H   H62       1.0  0.05350  0.11220  0.63800  1.0000 0.129319231
H   H63       1.0  0.98790  0.30970  0.05460  1.0000 0.129319231
H   H64       1.0  0.98790  0.19030  0.55460  1.0000 0.129319231
H   H65       1.0  0.53270  0.02100  0.28760  1.0000 0.129319231
H   H66       1.0  0.53270  0.47900  0.78760  1.0000 0.129319231
H   H67       1.0  0.45930  0.06590  0.34410  1.0000 0.1194810669
H   H68       1.0  0.45930  0.43410  0.84410  1.0000 0.1194810669
H   H69       1.0  0.64840  0.21990  0.41510  1.0000 0.112537981
H   H70       1.0  0.64840  0.28010  0.91510  1.0000 0.112537981
H   H71       1.0  0.72160  0.17420  0.35810  1.0000 0.112537981
H   H72       1.0  0.72160  0.32580  0.85810  1.0000 0.112537981
H   H73       1.0  0.36640  0.20270  0.29830  1.0000 0.129319231
H   H74       1.0  0.36640  0.29730  0.79830  1.0000 0.129319231
H   H75       1.0  0.21130  0.18180  0.25520  1.0000 0.1194810669
H   H76       1.0  0.21130  0.31820  0.75520  1.0000 0.1194810669
H   H77       1.0  0.23790  0.12040  0.42580  1.0000 0.1194810669
H   H78       1.0  0.23790  0.37960  0.92580  1.0000 0.1194810669
H   H79       1.0  0.39220  0.13630  0.46760  1.0000 0.129319231
H   H80       1.0  0.39220  0.36370  0.96760  1.0000 0.129319231
H   H81       1.0  0.08900  0.10920  0.21740  1.0000 0.129319231
H   H82       1.0  0.08900  0.39080  0.71740  1.0000 0.129319231
H   H83       1.0  0.94120  0.07220  0.17850  1.0000 0.112537981
H   H84       1.0  0.94120  0.42780  0.67850  1.0000 0.112537981
H   H85       1.0  0.93540  0.11280  0.33850  1.0000 0.1194810669
H   H86       1.0  0.93540  0.38720  0.83850  1.0000 0.1194810669
H   H87       1.0  0.08560  0.14920  0.38310  1.0000 0.129319231
H   H88       1.0  0.08560  0.35080  0.88310  1.0000 0.129319231
H   H89       1.0  0.42260  0.29640  0.43200  1.0000 0.129319231
H   H90       1.0  0.42260  0.20360  0.93200  1.0000 0.129319231
H   H91       1.0  0.48390  0.38040  0.51250  1.0000 0.1194810669
H   H92       1.0  0.48390  0.11960  0.01250  1.0000 0.1194810669
H   H93       1.0  0.71370  0.26480  0.59540  1.0000 0.1194810669
H   H94       1.0  0.71370  0.23520  0.09540  1.0000 0.1194810669
H   H95       1.0  0.65230  0.18010  0.51660  1.0000 0.129319231
H   H96       1.0  0.65230  0.31990  0.01660  1.0000 0.129319231
H   H97       1.0  0.73100  0.68890  0.55010  1.0000 0.1194810669
H   H98       1.0  0.73100  0.81110  0.05010  1.0000 0.1194810669
H   H99       1.0  0.80670  0.74710  0.49990  1.0000 0.1194810669
H   H100      1.0  0.80670  0.75290  0.99990  1.0000 0.1194810669
H   H101      1.0  0.96450  0.57360  0.52570  1.0000 0.129319231
H   H102      1.0  0.96450  0.92640  0.02570  1.0000 0.129319231
H   H103      1.0  0.89490  0.51930  0.58130  1.0000 0.112537981
H   H104      1.0  0.89490  0.98070  0.08130  1.0000 0.112537981
H   H105      1.0  0.07410  0.70770  0.59320  1.0000 0.129319231
H   H106      1.0  0.07410  0.79230  0.09320  1.0000 0.129319231
H   H107      1.0  0.22350  0.66920  0.63270  1.0000 0.1194810669
H   H108      1.0  0.22350  0.83080  0.13270  1.0000 0.1194810669
H   H109      1.0  0.18620  0.62300  0.45450  1.0000 0.1194810669
H   H110      1.0  0.18620  0.87700  0.95450  1.0000 0.1194810669
H   H111      1.0  0.03470  0.65770  0.41490  1.0000 0.1194810669
H   H112      1.0  0.03470  0.84230  0.91490  1.0000 0.1194810669
H   H113      1.0  0.36960  0.66920  0.65770  1.0000 0.129319231
H   H114      1.0  0.36960  0.83080  0.15770  1.0000 0.129319231
H   H115      1.0  0.51710  0.63050  0.69470  1.0000 0.112537981
H   H116      1.0  0.51710  0.86950  0.19470  1.0000 0.112537981
H   H117      1.0  0.30240  0.54600  0.50370  1.0000 0.129319231
H   H118      1.0  0.30240  0.95400  0.00370  1.0000 0.129319231
H   H119      1.0  0.45070  0.50910  0.54510  1.0000 0.112537981
H   H120      1.0  0.45070  0.99090  0.04510  1.0000 0.112537981
H   H121      1.0  0.77490  0.70470  0.38540  1.0000 0.1194810669
H   H122      1.0  0.77490  0.79530  0.88540  1.0000 0.1194810669
H   H123      1.0  0.70860  0.78450  0.30260  1.0000 0.1194810669
H   H124      1.0  0.70860  0.71550  0.80260  1.0000 0.1194810669
H   H125      1.0  0.94650  0.88780  0.36200  1.0000 0.129319231
H   H126      1.0  0.94650  0.61220  0.86200  1.0000 0.129319231
H   H127      1.0  0.01210  0.80970  0.44540  1.0000 0.129319231
H   H128      1.0  0.01210  0.69030  0.94540  1.0000 0.129319231
C   C1        1.0  0.32399  0.56670  0.22619  1.0000 0.5767376149
C   C2        1.0  0.32399  0.93330  0.72619  1.0000 0.5767376149
C   C3        1.0  0.36612  0.59390  0.18512  1.0000 -0.0346892144
C   C4        1.0  0.36612  0.90610  0.68512  1.0000 -0.0346892144
C   C5        1.0  0.44438  0.56180  0.18748  1.0000 -0.0804873755
C   C6        1.0  0.44438  0.93820  0.68748  1.0000 -0.0804873755
C   C7        1.0  0.48859  0.58890  0.15379  1.0000 -0.1919939739
C   C8        1.0  0.48859  0.91110  0.65379  1.0000 -0.1919939739
C   C9        1.0  0.45696  0.65031  0.11656  1.0000 0.1901354889
C   C10       1.0  0.45696  0.84969  0.61656  1.0000 0.1901354889
C   C11       1.0  0.37630  0.68052  0.11150  1.0000 -0.2007421081
C   C12       1.0  0.37630  0.81948  0.61150  1.0000 -0.2007421081
C   C13       1.0  0.33224  0.65270  0.14564  1.0000 -0.0922221405
C   C14       1.0  0.33224  0.84730  0.64564  1.0000 -0.0922221405
C   C15       1.0  0.60418  0.66910  0.11308  1.0000 0.1528424943
C   C16       1.0  0.60418  0.83090  0.61308  1.0000 0.1528424943
C   C17       1.0  0.65907  0.68410  0.17597  1.0000 -0.1639808764
C   C18       1.0  0.65907  0.81590  0.67597  1.0000 -0.1639808764
C   C19       1.0  0.75230  0.67200  0.20160  1.0000 -0.1300975321
C   C20       1.0  0.75230  0.82800  0.70160  1.0000 -0.1300975321
C   C21       1.0  0.79239  0.64590  0.16489  1.0000 0.0504286221
C   C22       1.0  0.79239  0.85410  0.66489  1.0000 0.0504286221
C   C23       1.0  0.73642  0.63520  0.10102  1.0000 -0.1300975321
C   C24       1.0  0.73642  0.86480  0.60102  1.0000 -0.1300975321
C   C25       1.0  0.64416  0.64550  0.07576  1.0000 -0.1639808764
C   C26       1.0  0.64416  0.85450  0.57576  1.0000 -0.1639808764
C   C27       1.0  0.89103  0.62770  0.19303  1.0000 0.1194810669
C   C28       1.0  0.89103  0.87230  0.69303  1.0000 0.1194810669
C   C29       1.0  0.93907  0.60800  0.25527  1.0000 -0.2007421081
C   C30       1.0  0.93907  0.89200  0.75527  1.0000 -0.2007421081
C   C31       1.0  0.02886  0.58610  0.27866  1.0000 0.0870716298
C   C32       1.0  0.02886  0.91390  0.77866  1.0000 0.0870716298
C   C33       1.0  0.03229  0.60940  0.18599  1.0000 0.0870716298
C   C34       1.0  0.03229  0.89060  0.68599  1.0000 0.0870716298
C   C35       1.0  0.94132  0.63160  0.15872  1.0000 -0.2092893769
C   C36       1.0  0.94132  0.86840  0.65872  1.0000 -0.2092893769
C   C37       1.0  0.46807  0.72987  0.03427  1.0000 0.1787596631
C   C38       1.0  0.46807  0.77013  0.53427  1.0000 0.1787596631
C   C39       1.0  0.51855  0.79012  0.03505  1.0000 -0.1792800007
C   C40       1.0  0.51855  0.70988  0.53505  1.0000 -0.1792800007
C   C41       1.0  0.48163  0.84055  0.98713  1.0000 -0.0922221405
C   C42       1.0  0.48163  0.65945  0.48713  1.0000 -0.0922221405
C   C43       1.0  0.39329  0.83267  0.93812  1.0000 -0.0417582629
C   C44       1.0  0.39329  0.66733  0.43812  1.0000 -0.0417582629
C   C45       1.0  0.34496  0.77151  0.93766  1.0000 -0.0922221405
C   C46       1.0  0.34496  0.72849  0.43766  1.0000 -0.0922221405
C   C47       1.0  0.38132  0.72082  0.98472  1.0000 -0.1919939739
C   C48       1.0  0.38132  0.77918  0.48472  1.0000 -0.1919939739
C   C49       1.0  0.35154  0.89048  0.88994  1.0000 0.5711191917
C   C50       1.0  0.35154  0.60952  0.38994  1.0000 0.5711191917
C   C51       1.0  0.23754  0.06244  0.89054  1.0000 0.5644658232
C   C52       1.0  0.23754  0.43756  0.39054  1.0000 0.5644658232
C   C53       1.0  0.19481  0.09862  0.92810  1.0000 -0.0417582629
C   C54       1.0  0.19481  0.40138  0.42810  1.0000 -0.0417582629
C   C55       1.0  0.22060  0.16610  0.95360  1.0000 -0.0922221405
C   C56       1.0  0.22060  0.33390  0.45360  1.0000 -0.0922221405
C   C57       1.0  0.17625  0.20080  0.98465  1.0000 -0.2007421081
C   C58       1.0  0.17625  0.29920  0.48465  1.0000 -0.2007421081
C   C59       1.0  0.10595  0.16626  0.99275  1.0000 0.1901354889
C   C60       1.0  0.10595  0.33374  0.49275  1.0000 0.1901354889
C   C61       1.0  0.08146  0.09770  0.96846  1.0000 -0.1919939739
C   C62       1.0  0.08146  0.40230  0.46846  1.0000 -0.1919939739
C   C63       1.0  0.12393  0.06480  0.93583  1.0000 -0.0966048626
C   C64       1.0  0.12393  0.43520  0.43583  1.0000 -0.0966048626
C   C65       1.0  0.96154  0.18360  0.99934  1.0000 0.1614136869
C   C66       1.0  0.96154  0.31640  0.49934  1.0000 0.1614136869
C   C67       1.0  0.90413  0.18900  0.93463  1.0000 -0.1792800007
C   C68       1.0  0.90413  0.31100  0.43463  1.0000 -0.1792800007
C   C69       1.0  0.81418  0.16667  0.91128  1.0000 -0.1300975321
C   C70       1.0  0.81418  0.33333  0.41128  1.0000 -0.1300975321
C   C71       1.0  0.77845  0.14041  0.95135  1.0000 0.0504286221
C   C72       1.0  0.77845  0.35959  0.45135  1.0000 0.0504286221
C   C73       1.0  0.83663  0.13860  0.01723  1.0000 -0.1300975321
C   C74       1.0  0.83663  0.36140  0.51723  1.0000 -0.1300975321
C   C75       1.0  0.92731  0.15960  0.04111  1.0000 -0.1792800007
C   C76       1.0  0.92731  0.34040  0.54111  1.0000 -0.1792800007
C   C77       1.0  0.68278  0.11448  0.92548  1.0000 0.112537981
C   C78       1.0  0.68278  0.38552  0.42548  1.0000 0.112537981
C   C79       1.0  0.61534  0.13730  0.86694  1.0000 -0.2092893769
C   C80       1.0  0.61534  0.36270  0.36694  1.0000 -0.2092893769
C   C81       1.0  0.52654  0.11348  0.84464  1.0000 0.0807813505
C   C82       1.0  0.52654  0.38652  0.34464  1.0000 0.0807813505
C   C83       1.0  0.65504  0.06480  0.95734  1.0000 -0.1919939739
C   C84       1.0  0.65504  0.43520  0.45734  1.0000 -0.1919939739
C   C85       1.0  0.56541  0.04283  0.93211  1.0000 0.0995792845
C   C86       1.0  0.56541  0.45717  0.43211  1.0000 0.0995792845
C   C87       1.0  0.09933  0.24850  0.07493  1.0000 0.1787596631
C   C88       1.0  0.09933  0.25150  0.57493  1.0000 0.1787596631
C   C89       1.0  0.19019  0.24190  0.11879  1.0000 -0.2007421081
C   C90       1.0  0.19019  0.25810  0.61879  1.0000 -0.2007421081
C   C91       1.0  0.22974  0.28981  0.16874  1.0000 -0.0966048626
C   C92       1.0  0.22974  0.21019  0.66874  1.0000 -0.0966048626
C   C93       1.0  0.18026  0.34548  0.17736  1.0000 -0.0417582629
C   C94       1.0  0.18026  0.15452  0.67736  1.0000 -0.0417582629
C   C95       1.0  0.08888  0.35110  0.13338  1.0000 -0.0804873755
C   C96       1.0  0.08888  0.14890  0.63338  1.0000 -0.0804873755
C   C97       1.0  0.04938  0.30420  0.08338  1.0000 -0.1919939739
C   C98       1.0  0.04938  0.19580  0.58338  1.0000 -0.1919939739
C   C99       1.0  0.22346  0.39797  0.23036  1.0000 0.5767376149
C   C100      1.0  0.22346  0.10203  0.73036  1.0000 0.5767376149
C   C101      1.0  0.67601  0.06670  0.27381  1.0000 0.5767376149
C   C102      1.0  0.67601  0.43330  0.77381  1.0000 0.5767376149
C   C103      1.0  0.63388  0.09390  0.31488  1.0000 -0.0346892144
C   C104      1.0  0.63388  0.40610  0.81488  1.0000 -0.0346892144
C   C105      1.0  0.55562  0.06180  0.31252  1.0000 -0.0804873755
C   C106      1.0  0.55562  0.43820  0.81252  1.0000 -0.0804873755
C   C107      1.0  0.51141  0.08890  0.34621  1.0000 -0.1919939739
C   C108      1.0  0.51141  0.41110  0.84621  1.0000 -0.1919939739
C   C109      1.0  0.54304  0.15031  0.38344  1.0000 0.1901354889
C   C110      1.0  0.54304  0.34969  0.88344  1.0000 0.1901354889
C   C111      1.0  0.62370  0.18052  0.38850  1.0000 -0.2007421081
C   C112      1.0  0.62370  0.31948  0.88850  1.0000 -0.2007421081
C   C113      1.0  0.66776  0.15270  0.35436  1.0000 -0.0922221405
C   C114      1.0  0.66776  0.34730  0.85436  1.0000 -0.0922221405
C   C115      1.0  0.39582  0.16910  0.38692  1.0000 0.1528424943
C   C116      1.0  0.39582  0.33090  0.88692  1.0000 0.1528424943
C   C117      1.0  0.34093  0.18410  0.32403  1.0000 -0.1639808764
C   C118      1.0  0.34093  0.31590  0.82403  1.0000 -0.1639808764
C   C119      1.0  0.24770  0.17200  0.29840  1.0000 -0.1300975321
C   C120      1.0  0.24770  0.32800  0.79840  1.0000 -0.1300975321
C   C121      1.0  0.20761  0.14590  0.33511  1.0000 0.0504286221
C   C122      1.0  0.20761  0.35410  0.83511  1.0000 0.0504286221
C   C123      1.0  0.26358  0.13520  0.39898  1.0000 -0.1300975321
C   C124      1.0  0.26358  0.36480  0.89898  1.0000 -0.1300975321
C   C125      1.0  0.35584  0.14550  0.42424  1.0000 -0.1639808764
C   C126      1.0  0.35584  0.35450  0.92424  1.0000 -0.1639808764
C   C127      1.0  0.10897  0.12770  0.30697  1.0000 0.1194810669
C   C128      1.0  0.10897  0.37230  0.80697  1.0000 0.1194810669
C   C129      1.0  0.06093  0.10800  0.24473  1.0000 -0.2007421081
C   C130      1.0  0.06093  0.39200  0.74473  1.0000 -0.2007421081
C   C131      1.0  0.97114  0.08610  0.22134  1.0000 0.0870716298
C   C132      1.0  0.97114  0.41390  0.72134  1.0000 0.0870716298
C   C133      1.0  0.96771  0.10940  0.31401  1.0000 0.0870716298
C   C134      1.0  0.96771  0.39060  0.81401  1.0000 0.0870716298
C   C135      1.0  0.05868  0.13160  0.34128  1.0000 -0.2092893769
C   C136      1.0  0.05868  0.36840  0.84128  1.0000 -0.2092893769
C   C137      1.0  0.53193  0.22987  0.46573  1.0000 0.1787596631
C   C138      1.0  0.53193  0.27013  0.96573  1.0000 0.1787596631
C   C139      1.0  0.48145  0.29012  0.46495  1.0000 -0.1792800007
C   C140      1.0  0.48145  0.20988  0.96495  1.0000 -0.1792800007
C   C141      1.0  0.51837  0.34055  0.51287  1.0000 -0.0922221405
C   C142      1.0  0.51837  0.15945  0.01287  1.0000 -0.0922221405
C   C143      1.0  0.60671  0.33267  0.56188  1.0000 -0.0417582629
C   C144      1.0  0.60671  0.16733  0.06188  1.0000 -0.0417582629
C   C145      1.0  0.65504  0.27151  0.56234  1.0000 -0.0922221405
C   C146      1.0  0.65504  0.22849  0.06234  1.0000 -0.0922221405
C   C147      1.0  0.61868  0.22082  0.51528  1.0000 -0.1919939739
C   C148      1.0  0.61868  0.27918  0.01528  1.0000 -0.1919939739
C   C149      1.0  0.64846  0.39048  0.61006  1.0000 0.5711191917
C   C150      1.0  0.64846  0.10952  0.11006  1.0000 0.5711191917
C   C151      1.0  0.76246  0.56244  0.60946  1.0000 0.5644658232
C   C152      1.0  0.76246  0.93756  0.10946  1.0000 0.5644658232
C   C153      1.0  0.80519  0.59862  0.57190  1.0000 -0.0417582629
C   C154      1.0  0.80519  0.90138  0.07190  1.0000 -0.0417582629
C   C155      1.0  0.77940  0.66610  0.54640  1.0000 -0.0922221405
C   C156      1.0  0.77940  0.83390  0.04640  1.0000 -0.0922221405
C   C157      1.0  0.82375  0.70080  0.51535  1.0000 -0.2007421081
C   C158      1.0  0.82375  0.79920  0.01535  1.0000 -0.2007421081
C   C159      1.0  0.89405  0.66626  0.50725  1.0000 0.1901354889
C   C160      1.0  0.89405  0.83374  0.00725  1.0000 0.1901354889
C   C161      1.0  0.91854  0.59770  0.53154  1.0000 -0.1919939739
C   C162      1.0  0.91854  0.90230  0.03154  1.0000 -0.1919939739
C   C163      1.0  0.87607  0.56480  0.56417  1.0000 -0.0966048626
C   C164      1.0  0.87607  0.93520  0.06417  1.0000 -0.0966048626
C   C165      1.0  0.03846  0.68360  0.50066  1.0000 0.1614136869
C   C166      1.0  0.03846  0.81640  0.00066  1.0000 0.1614136869
C   C167      1.0  0.09587  0.68900  0.56537  1.0000 -0.1792800007
C   C168      1.0  0.09587  0.81100  0.06537  1.0000 -0.1792800007
C   C169      1.0  0.18582  0.66667  0.58872  1.0000 -0.1300975321
C   C170      1.0  0.18582  0.83333  0.08872  1.0000 -0.1300975321
C   C171      1.0  0.22155  0.64041  0.54865  1.0000 0.0504286221
C   C172      1.0  0.22155  0.85959  0.04865  1.0000 0.0504286221
C   C173      1.0  0.16337  0.63860  0.48277  1.0000 -0.1300975321
C   C174      1.0  0.16337  0.86140  0.98277  1.0000 -0.1300975321
C   C175      1.0  0.07269  0.65960  0.45889  1.0000 -0.1792800007
C   C176      1.0  0.07269  0.84040  0.95889  1.0000 -0.1792800007
C   C177      1.0  0.31722  0.61448  0.57452  1.0000 0.112537981
C   C178      1.0  0.31722  0.88552  0.07452  1.0000 0.112537981
C   C179      1.0  0.38466  0.63730  0.63306  1.0000 -0.2092893769
C   C180      1.0  0.38466  0.86270  0.13306  1.0000 -0.2092893769
C   C181      1.0  0.47346  0.61348  0.65536  1.0000 0.0807813505
C   C182      1.0  0.47346  0.88652  0.15536  1.0000 0.0807813505
C   C183      1.0  0.34496  0.56480  0.54266  1.0000 -0.1919939739
C   C184      1.0  0.34496  0.93520  0.04266  1.0000 -0.1919939739
C   C185      1.0  0.43459  0.54283  0.56789  1.0000 0.0995792845
C   C186      1.0  0.43459  0.95717  0.06789  1.0000 0.0995792845
C   C187      1.0  0.90067  0.74850  0.42507  1.0000 0.1787596631
C   C188      1.0  0.90067  0.75150  0.92507  1.0000 0.1787596631
C   C189      1.0  0.80981  0.74190  0.38121  1.0000 -0.2007421081
C   C190      1.0  0.80981  0.75810  0.88121  1.0000 -0.2007421081
C   C191      1.0  0.77026  0.78981  0.33126  1.0000 -0.0966048626
C   C192      1.0  0.77026  0.71019  0.83126  1.0000 -0.0966048626
C   C193      1.0  0.81974  0.84548  0.32264  1.0000 -0.0417582629
C   C194      1.0  0.81974  0.65452  0.82264  1.0000 -0.0417582629
C   C195      1.0  0.91112  0.85110  0.36662  1.0000 -0.0804873755
C   C196      1.0  0.91112  0.64890  0.86662  1.0000 -0.0804873755
C   C197      1.0  0.95062  0.80420  0.41662  1.0000 -0.1919939739
C   C198      1.0  0.95062  0.69580  0.91662  1.0000 -0.1919939739
C   C199      1.0  0.77654  0.89797  0.26964  1.0000 0.5767376149
C   C200      1.0  0.77654  0.60203  0.76964  1.0000 0.5767376149
N   N1        1.0  0.07489  0.58377  0.24459  1.0000 -0.2092893769
N   N2        1.0  0.07489  0.91623  0.74459  1.0000 -0.2092893769
N   N3        1.0  0.50005  0.06698  0.87691  1.0000 -0.2262209182
N   N4        1.0  0.50005  0.43302  0.37691  1.0000 -0.2262209182
N   N5        1.0  0.50669  0.68015  0.08555  1.0000 -0.1792800007
N   N6        1.0  0.50669  0.81985  0.58555  1.0000 -0.1792800007
N   N7        1.0  0.05708  0.20052  0.02273  1.0000 -0.1792800007
N   N8        1.0  0.05708  0.29948  0.52273  1.0000 -0.1792800007
N   N9        1.0  0.92511  0.08377  0.25541  1.0000 -0.2092893769
N   N10       1.0  0.92511  0.41623  0.75541  1.0000 -0.2092893769
N   N11       1.0  0.49995  0.56698  0.62309  1.0000 -0.2262209182
N   N12       1.0  0.49995  0.93302  0.12309  1.0000 -0.2262209182
N   N13       1.0  0.49331  0.18015  0.41445  1.0000 -0.1792800007
N   N14       1.0  0.49331  0.31985  0.91445  1.0000 -0.1792800007
N   N15       1.0  0.94292  0.70052  0.47727  1.0000 -0.1792800007
N   N16       1.0  0.94292  0.79948  0.97727  1.0000 -0.1792800007
O   O1        1.0  0.27185  0.87984  0.84564  1.0000 -0.5390361324
O   O2        1.0  0.27185  0.62016  0.34564  1.0000 -0.5390361324
O   O3        1.0  0.39687  0.94712  0.89706  1.0000 -0.5611809666
O   O4        1.0  0.39687  0.55288  0.39706  1.0000 -0.5611809666
O   O5        1.0  0.24477  0.58808  0.21512  1.0000 -0.5390361324
O   O6        1.0  0.24477  0.91192  0.71512  1.0000 -0.5390361324
O   O7        1.0  0.37149  0.52472  0.27054  1.0000 -0.5611809666
O   O8        1.0  0.37149  0.97528  0.77054  1.0000 -0.5611809666
O   O9        1.0  0.19491  0.01123  0.85475  1.0000 -0.5685089802
O   O10       1.0  0.19491  0.48877  0.35475  1.0000 -0.5685089802
O   O11       1.0  0.31441  0.08561  0.89668  1.0000 -0.5390361324
O   O12       1.0  0.31441  0.41439  0.39668  1.0000 -0.5390361324
O   O13       1.0  0.17525  0.45086  0.23041  1.0000 -0.5611809666
O   O14       1.0  0.17525  0.04914  0.73041  1.0000 -0.5611809666
O   O15       1.0  0.30511  0.38734  0.27122  1.0000 -0.5480810379
O   O16       1.0  0.30511  0.11266  0.77122  1.0000 -0.5480810379
O   O17       1.0  0.72815  0.37984  0.65436  1.0000 -0.5390361324
O   O18       1.0  0.72815  0.12016  0.15436  1.0000 -0.5390361324
O   O19       1.0  0.60313  0.44712  0.60294  1.0000 -0.5611809666
O   O20       1.0  0.60313  0.05288  0.10294  1.0000 -0.5611809666
O   O21       1.0  0.75523  0.08808  0.28488  1.0000 -0.5390361324
O   O22       1.0  0.75523  0.41192  0.78488  1.0000 -0.5390361324
O   O23       1.0  0.62851  0.02472  0.22946  1.0000 -0.5611809666
O   O24       1.0  0.62851  0.47528  0.72946  1.0000 -0.5611809666
O   O25       1.0  0.80509  0.51123  0.64525  1.0000 -0.5685089802
O   O26       1.0  0.80509  0.98877  0.14525  1.0000 -0.5685089802
O   O27       1.0  0.68559  0.58561  0.60332  1.0000 -0.5390361324
O   O28       1.0  0.68559  0.91439  0.10332  1.0000 -0.5390361324
O   O29       1.0  0.82475  0.95086  0.26959  1.0000 -0.5611809666
O   O30       1.0  0.82475  0.54914  0.76959  1.0000 -0.5611809666
O   O31       1.0  0.69489  0.88734  0.22878  1.0000 -0.5480810379
O   O32       1.0  0.69489  0.61266  0.72878  1.0000 -0.5480810379
