# DDEC6 charges by PACMAN v1.1 (https://github.com/mtap-research/PACMAN-charge/)
data_2014[Zn][ths]3[FSR]4
_chemical_formula_sum              "Zn12 H96 C144 I24 N48"
_cell_length_a       18.569
_cell_length_b       18.569
_cell_length_c       30.963
_cell_angle_alpha    80.2138
_cell_angle_beta     99.7862
_cell_angle_gamma    131.9

_symmetry_space_group_name_H-M    "P 1"
_symmetry_Int_Tables_number       1

loop_
  _symmetry_equiv_pos_as_xyz
  'x, y, z'

loop_
  _atom_site_type_symbol
  _atom_site_label
  _atom_site_symmetry_multiplicity
  _atom_site_fract_x
  _atom_site_fract_y
  _atom_site_fract_z
  _atom_site_occupancy
  _atom_site_charge
Zn  Zn1       1.0  0.62820  0.08980  0.96310  1.0000 0.4358891043
Zn  Zn2       1.0  0.91020  0.37180  0.46310  1.0000 0.4358891043
Zn  Zn3       1.0  0.16880  0.00660  0.76910  1.0000 0.4636667911
Zn  Zn4       1.0  0.99340  0.83120  0.26910  1.0000 0.4636667911
Zn  Zn5       1.0  0.22940  0.51740  0.63720  1.0000 0.4717553574
Zn  Zn6       1.0  0.48260  0.77060  0.13720  1.0000 0.4717553574
Zn  Zn7       1.0  0.25030  0.00950  0.51260  1.0000 0.4519419614
Zn  Zn8       1.0  0.99050  0.74970  0.01260  1.0000 0.4519419614
Zn  Zn9       1.0  0.70060  0.09200  0.67659  1.0000 0.4519419614
Zn  Zn10      1.0  0.90800  0.29940  0.17659  1.0000 0.4519419614
Zn  Zn11      1.0  0.63810  0.60010  0.81740  1.0000 0.4717553574
Zn  Zn12      1.0  0.39990  0.36190  0.31740  1.0000 0.4717553574
H   H1        1.0  0.78230  0.15810  0.90190  1.0000 0.1030153538
H   H2        1.0  0.84190  0.21770  0.40190  1.0000 0.1030153538
H   H3        1.0  0.80510  0.10370  0.84790  1.0000 0.1392425282
H   H4        1.0  0.89630  0.19490  0.34790  1.0000 0.1392425282
H   H5        1.0  0.52590  0.85190  0.85610  1.0000 0.1302130576
H   H6        1.0  0.14810  0.47410  0.35610  1.0000 0.1302130576
H   H7        1.0  0.51420  0.91280  0.91110  1.0000 0.1100221045
H   H8        1.0  0.08720  0.48580  0.41110  1.0000 0.1209560452
H   H9        1.0  0.97700  0.93120  0.71450  1.0000 0.1100221045
H   H10       1.0  0.06880  0.02300  0.21450  1.0000 0.1100221045
H   H11       1.0  0.83620  0.90240  0.71290  1.0000 0.1392425282
H   H12       1.0  0.09760  0.16380  0.21290  1.0000 0.1392425282
H   H13       1.0  0.92690  0.00750  0.83220  1.0000 0.1392425282
H   H14       1.0  0.99250  0.07310  0.33220  1.0000 0.1392425282
H   H15       1.0  0.06240  0.02880  0.82970  1.0000 0.1100221045
H   H16       1.0  0.97120  0.93760  0.32970  1.0000 0.1100221045
H   H17       1.0  0.28590  0.64250  0.70970  1.0000 0.1100221045
H   H18       1.0  0.35750  0.71410  0.20970  1.0000 0.1100221045
H   H19       1.0  0.42130  0.75850  0.75130  1.0000 0.1392425282
H   H20       1.0  0.24150  0.57870  0.25130  1.0000 0.1392425282
H   H21       1.0  0.56690  0.70370  0.70460  1.0000 0.1392425282
H   H22       1.0  0.29630  0.43310  0.20460  1.0000 0.1392425282
H   H23       1.0  0.42520  0.58080  0.66810  1.0000 0.1030153538
H   H24       1.0  0.41920  0.57480  0.16810  1.0000 0.1100221045
H   H25       1.0  0.12970  0.56090  0.56440  1.0000 0.1100221045
H   H26       1.0  0.43910  0.87030  0.06440  1.0000 0.1100221045
H   H27       1.0  0.16410  0.67590  0.50840  1.0000 0.1302130576
H   H28       1.0  0.32410  0.83590  0.00840  1.0000 0.1302130576
H   H29       1.0  0.45010  0.83870  0.54620  1.0000 0.1302130576
H   H30       1.0  0.16130  0.54990  0.04620  1.0000 0.1302130576
H   H31       1.0  0.40690  0.71570  0.59930  1.0000 0.1030153538
H   H32       1.0  0.28430  0.59310  0.09930  1.0000 0.1100221045
H   H33       1.0  0.20910  0.97990  0.29220  1.0000 0.1100221045
H   H34       1.0  0.02010  0.79090  0.79220  1.0000 0.1100221045
H   H35       1.0  0.32020  0.02060  0.35140  1.0000 0.1392425282
H   H36       1.0  0.97940  0.67980  0.85140  1.0000 0.1392425282
H   H37       1.0  0.11560  0.76060  0.41300  1.0000 0.1302130576
H   H38       1.0  0.23940  0.88440  0.91300  1.0000 0.1302130576
H   H39       1.0  0.00640  0.73580  0.35550  1.0000 0.1100221045
H   H40       1.0  0.26420  0.99360  0.85550  1.0000 0.1100221045
H   H41       1.0  0.77300  0.17820  0.50810  1.0000 0.1030153538
H   H42       1.0  0.82180  0.22700  0.00810  1.0000 0.1030153538
H   H43       1.0  0.61530  0.03710  0.49890  1.0000 0.1392425282
H   H44       1.0  0.96290  0.38470  0.99890  1.0000 0.1392425282
H   H45       1.0  0.56380  0.16800  0.40090  1.0000 0.1392425282
H   H46       1.0  0.83200  0.43620  0.90090  1.0000 0.1392425282
H   H47       1.0  0.72500  0.30440  0.40690  1.0000 0.1100221045
H   H48       1.0  0.69560  0.27500  0.90690  1.0000 0.1100221045
H   H49       1.0  0.35740  0.12860  0.58750  1.0000 0.1030153538
H   H50       1.0  0.87140  0.64260  0.08750  1.0000 0.1030153538
H   H51       1.0  0.34590  0.20570  0.63510  1.0000 0.1302130576
H   H52       1.0  0.79430  0.65410  0.13510  1.0000 0.1302130576
H   H53       1.0  0.06170  0.05650  0.59200  1.0000 0.1302130576
H   H54       1.0  0.94350  0.93830  0.09200  1.0000 0.1302130576
H   H55       1.0  0.08600  0.99240  0.54310  1.0000 0.1100221045
H   H56       1.0  0.00760  0.91400  0.04310  1.0000 0.1100221045
H   H57       1.0  0.79120  0.05700  0.62640  1.0000 0.1030153538
H   H58       1.0  0.94300  0.20880  0.12640  1.0000 0.1030153538
H   H59       1.0  0.95580  0.14840  0.61560  1.0000 0.1392425282
H   H60       1.0  0.85160  0.04420  0.11560  1.0000 0.1392425282
H   H61       1.0  0.03960  0.23000  0.73660  1.0000 0.1392425282
H   H62       1.0  0.77000  0.96040  0.23660  1.0000 0.1392425282
H   H63       1.0  0.88620  0.17560  0.73960  1.0000 0.1100221045
H   H64       1.0  0.82440  0.11380  0.23960  1.0000 0.1100221045
H   H65       1.0  0.42360  0.51240  0.79780  1.0000 0.1100221045
H   H66       1.0  0.48760  0.57640  0.29780  1.0000 0.1100221045
H   H67       1.0  0.28410  0.38750  0.76050  1.0000 0.1392425282
H   H68       1.0  0.61250  0.71590  0.26050  1.0000 0.1392425282
H   H69       1.0  0.44620  0.37180  0.69970  1.0000 0.1392425282
H   H70       1.0  0.62820  0.55380  0.19970  1.0000 0.1392425282
H   H71       1.0  0.58150  0.50190  0.73610  1.0000 0.1100221045
H   H72       1.0  0.49810  0.41850  0.23610  1.0000 0.1100221045
H   H73       1.0  0.47990  0.38450  0.84020  1.0000 0.1030153538
H   H74       1.0  0.61550  0.52010  0.34020  1.0000 0.1030153538
H   H75       1.0  0.42740  0.26980  0.90030  1.0000 0.1302130576
H   H76       1.0  0.73020  0.57260  0.40030  1.0000 0.1302130576
H   H77       1.0  0.71280  0.44220  0.94640  1.0000 0.1209560452
H   H78       1.0  0.55780  0.28720  0.44640  1.0000 0.1209560452
H   H79       1.0  0.73560  0.56480  0.89800  1.0000 0.1100221045
H   H80       1.0  0.43520  0.26440  0.39800  1.0000 0.1100221045
H   H81       1.0  0.19350  0.84750  0.06340  1.0000 0.1100221045
H   H82       1.0  0.15250  0.80650  0.56340  1.0000 0.1100221045
H   H83       1.0  0.34160  0.00480  0.07210  1.0000 0.1392425282
H   H84       1.0  0.99520  0.65840  0.57210  1.0000 0.1392425282
H   H85       1.0  0.27840  0.07120  0.94720  1.0000 0.1392425282
H   H86       1.0  0.92880  0.72160  0.44720  1.0000 0.1392425282
H   H87       1.0  0.11800  0.93520  0.95750  1.0000 0.1030153538
H   H88       1.0  0.06480  0.88200  0.45750  1.0000 0.1030153538
H   H89       1.0  0.89240  0.41000  0.09680  1.0000 0.1030153538
H   H90       1.0  0.59000  0.10760  0.59680  1.0000 0.1030153538
H   H91       1.0  0.77380  0.38240  0.04310  1.0000 0.1302130576
H   H92       1.0  0.61760  0.22620  0.54310  1.0000 0.1302130576
H   H93       1.0  0.58010  0.14270  0.11060  1.0000 0.1392425282
H   H94       1.0  0.85730  0.41990  0.61060  1.0000 0.1392425282
H   H95       1.0  0.70010  0.13510  0.14520  1.0000 0.1100221045
H   H96       1.0  0.86490  0.29990  0.64520  1.0000 0.1100221045
C   C1        1.0  0.72940  0.09460  0.89240  1.0000 0.0708561094
C   C2        1.0  0.90540  0.27060  0.39240  1.0000 0.0708561094
C   C3        1.0  0.74420  0.06380  0.86030  1.0000 -0.1395651638
C   C4        1.0  0.93620  0.25580  0.36030  1.0000 -0.1395651638
C   C5        1.0  0.66700  0.97300  0.84690  1.0000 0.0608220237
C   C6        1.0  0.02700  0.33300  0.34690  1.0000 0.0608220237
C   C7        1.0  0.57930  0.91470  0.86530  1.0000 -0.1395651638
C   C8        1.0  0.08530  0.42070  0.36530  1.0000 -0.1395651638
C   C9        1.0  0.57350  0.95250  0.89750  1.0000 0.0708561094
C   C10       1.0  0.04750  0.42650  0.39750  1.0000 0.0708561094
C   C11       1.0  0.67720  0.93820  0.81060  1.0000 0.4000723723
C   C12       1.0  0.06180  0.32280  0.31060  1.0000 0.4000723723
C   C13       1.0  0.76820  0.91960  0.77680  1.0000 0.4000723723
C   C14       1.0  0.08040  0.23180  0.27680  1.0000 0.4000723723
C   C15       1.0  0.60050  0.82470  0.75740  1.0000 0.4000723723
C   C16       1.0  0.17530  0.39950  0.25740  1.0000 0.4000723723
C   C17       1.0  0.96710  0.94690  0.73930  1.0000 0.0708561094
C   C18       1.0  0.05310  0.03290  0.23930  1.0000 0.0708561094
C   C19       1.0  0.88170  0.92830  0.73790  1.0000 -0.151040356
C   C20       1.0  0.07170  0.11830  0.23790  1.0000 -0.151040356
C   C21       1.0  0.86260  0.94740  0.77340  1.0000 0.0492245584
C   C22       1.0  0.05260  0.13740  0.27340  1.0000 0.0492245584
C   C23       1.0  0.93460  0.98940  0.80760  1.0000 -0.151040356
C   C24       1.0  0.01060  0.06540  0.30760  1.0000 -0.151040356
C   C25       1.0  0.01550  0.00250  0.80520  1.0000 0.0708561094
C   C26       1.0  0.99750  0.98450  0.30520  1.0000 0.0708561094
C   C27       1.0  0.34390  0.65410  0.70900  1.0000 0.0708561094
C   C28       1.0  0.34590  0.65610  0.20900  1.0000 0.0708561094
C   C29       1.0  0.42440  0.72360  0.73360  1.0000 -0.151040356
C   C30       1.0  0.27640  0.57560  0.23360  1.0000 -0.151040356
C   C31       1.0  0.51080  0.74520  0.73300  1.0000 0.0608220237
C   C32       1.0  0.25480  0.48920  0.23300  1.0000 0.0608220237
C   C33       1.0  0.50890  0.69110  0.70700  1.0000 -0.151040356
C   C34       1.0  0.30890  0.49110  0.20700  1.0000 -0.151040356
C   C35       1.0  0.42470  0.61930  0.68440  1.0000 0.0608220237
C   C36       1.0  0.38070  0.57530  0.18440  1.0000 0.0608220237
C   C37       1.0  0.19550  0.61650  0.56060  1.0000 0.0796684281
C   C38       1.0  0.38350  0.80450  0.06060  1.0000 0.0796684281
C   C39       1.0  0.21510  0.68350  0.52680  1.0000 -0.151040356
C   C40       1.0  0.31650  0.78490  0.02680  1.0000 -0.151040356
C   C41       1.0  0.31000  0.76180  0.52010  1.0000 0.0492245584
C   C42       1.0  0.23820  0.69000  0.02010  1.0000 0.0492245584
C   C43       1.0  0.38450  0.78050  0.54850  1.0000 -0.1302715559
C   C44       1.0  0.21950  0.61550  0.04850  1.0000 -0.1302715559
C   C45       1.0  0.35630  0.70790  0.58050  1.0000 0.0492245584
C   C46       1.0  0.29210  0.64370  0.08050  1.0000 0.0492245584
C   C47       1.0  0.34420  0.83460  0.48240  1.0000 0.3910587932
C   C48       1.0  0.16540  0.65580  0.98240  1.0000 0.3910587932
C   C49       1.0  0.30230  0.89970  0.42070  1.0000 0.3910587932
C   C50       1.0  0.10030  0.69770  0.92070  1.0000 0.3910587932
C   C51       1.0  0.46480  0.99740  0.45320  1.0000 0.3807863313
C   C52       1.0  0.00260  0.53520  0.95320  1.0000 0.3807863313
C   C53       1.0  0.18890  0.93590  0.31760  1.0000 0.0865761047
C   C54       1.0  0.06410  0.81110  0.81760  1.0000 0.0865761047
C   C55       1.0  0.25670  0.95930  0.35200  1.0000 -0.1395651638
C   C56       1.0  0.04070  0.74330  0.85200  1.0000 -0.1395651638
C   C57       1.0  0.23130  0.89270  0.38740  1.0000 0.0492245584
C   C58       1.0  0.10730  0.76870  0.88740  1.0000 0.0492245584
C   C59       1.0  0.13640  0.80780  0.38880  1.0000 -0.1395651638
C   C60       1.0  0.19220  0.86360  0.88880  1.0000 -0.1395651638
C   C61       1.0  0.07240  0.79360  0.35400  1.0000 0.0708561094
C   C62       1.0  0.20640  0.92760  0.85400  1.0000 0.0708561094
C   C63       1.0  0.73020  0.17680  0.48580  1.0000 0.0708561094
C   C64       1.0  0.82320  0.26980  0.98580  1.0000 0.0708561094
C   C65       1.0  0.63570  0.09430  0.48110  1.0000 -0.1693060107
C   C66       1.0  0.90570  0.36430  0.98110  1.0000 -0.1693060107
C   C67       1.0  0.56740  0.08760  0.45210  1.0000 0.0708561094
C   C68       1.0  0.91240  0.43260  0.95210  1.0000 0.0708561094
C   C69       1.0  0.60530  0.16850  0.42380  1.0000 -0.1792086479
C   C70       1.0  0.83150  0.39470  0.92380  1.0000 -0.1792086479
C   C71       1.0  0.70140  0.25020  0.42750  1.0000 0.0708561094
C   C72       1.0  0.74980  0.29860  0.92750  1.0000 0.0708561094
C   C73       1.0  0.29840  0.11560  0.58800  1.0000 0.0865761047
C   C74       1.0  0.88440  0.70160  0.08800  1.0000 0.0865761047
C   C75       1.0  0.29170  0.16030  0.61590  1.0000 -0.1302715559
C   C76       1.0  0.83970  0.70830  0.11590  1.0000 -0.1302715559
C   C77       1.0  0.20570  0.13830  0.61540  1.0000 0.0309933582
C   C78       1.0  0.86170  0.79430  0.11540  1.0000 0.0309933582
C   C79       1.0  0.12240  0.07360  0.59050  1.0000 -0.1395651638
C   C80       1.0  0.92640  0.87760  0.09050  1.0000 -0.1395651638
C   C81       1.0  0.13870  0.03610  0.56310  1.0000 0.0608220237
C   C82       1.0  0.96390  0.86130  0.06310  1.0000 0.0608220237
C   C83       1.0  0.19410  0.18130  0.64660  1.0000 0.4070054087
C   C84       1.0  0.81870  0.80590  0.14660  1.0000 0.4070054087
C   C85       1.0  0.26490  0.29150  0.69960  1.0000 0.4000723723
C   C86       1.0  0.70850  0.73510  0.19960  1.0000 0.4000723723
C   C87       1.0  0.09950  0.19550  0.67850  1.0000 0.4000723723
C   C88       1.0  0.80450  0.90050  0.17850  1.0000 0.4000723723
C   C89       1.0  0.84290  0.09910  0.64700  1.0000 0.0796684281
C   C90       1.0  0.90090  0.15710  0.14700  1.0000 0.0796684281
C   C91       1.0  0.93640  0.13960  0.64390  1.0000 -0.1693060107
C   C92       1.0  0.86040  0.06360  0.14390  1.0000 -0.1693060107
C   C93       1.0  0.00580  0.17020  0.67950  1.0000 0.0492245584
C   C94       1.0  0.82980  0.99420  0.17950  1.0000 0.0492245584
C   C95       1.0  0.98980  0.19420  0.71390  1.0000 -0.151040356
C   C96       1.0  0.80580  0.01020  0.21390  1.0000 -0.151040356
C   C97       1.0  0.90040  0.16560  0.71420  1.0000 0.0796684281
C   C98       1.0  0.83440  0.09960  0.21420  1.0000 0.0796684281
C   C99       1.0  0.42910  0.48370  0.77740  1.0000 0.0492245584
C   C100      1.0  0.51630  0.57090  0.27740  1.0000 0.0492245584
C   C101      1.0  0.34540  0.41060  0.75480  1.0000 -0.151040356
C   C102      1.0  0.58940  0.65460  0.25480  1.0000 -0.151040356
C   C103      1.0  0.35320  0.37200  0.72380  1.0000 0.0492245584
C   C104      1.0  0.62800  0.64680  0.22380  1.0000 0.0492245584
C   C105      1.0  0.43990  0.40190  0.71890  1.0000 -0.1395651638
C   C106      1.0  0.59810  0.56010  0.21890  1.0000 -0.1395651638
C   C107      1.0  0.51980  0.47700  0.74230  1.0000 0.0608220237
C   C108      1.0  0.52300  0.48020  0.24230  1.0000 0.0608220237
C   C109      1.0  0.52480  0.40000  0.86500  1.0000 0.0608220237
C   C110      1.0  0.60000  0.47520  0.36500  1.0000 0.0608220237
C   C111      1.0  0.49280  0.32900  0.89880  1.0000 -0.1395651638
C   C112      1.0  0.67100  0.50720  0.39880  1.0000 -0.1395651638
C   C113      1.0  0.56600  0.35300  0.93010  1.0000 0.0309933582
C   C114      1.0  0.64700  0.43400  0.43010  1.0000 0.0309933582
C   C115      1.0  0.66150  0.43390  0.92800  1.0000 -0.1566395592
C   C116      1.0  0.56610  0.33850  0.42800  1.0000 -0.1566395592
C   C117      1.0  0.67430  0.50090  0.89640  1.0000 0.0608220237
C   C118      1.0  0.49910  0.32570  0.39640  1.0000 0.0608220237
C   C119      1.0  0.54840  0.28540  0.96820  1.0000 0.3910587932
C   C120      1.0  0.71460  0.45160  0.46820  1.0000 0.3910587932
C   C121      1.0  0.42540  0.14260  0.00920  1.0000 0.3807863313
C   C122      1.0  0.85740  0.57460  0.50920  1.0000 0.3807863313
C   C123      1.0  0.59070  0.22390  0.03080  1.0000 0.3910587932
C   C124      1.0  0.77610  0.40930  0.53080  1.0000 0.3910587932
C   C125      1.0  0.20760  0.89840  0.04250  1.0000 0.0608220237
C   C126      1.0  0.10160  0.79240  0.54250  1.0000 0.0608220237
C   C127      1.0  0.29890  0.98710  0.04620  1.0000 -0.151040356
C   C128      1.0  0.01290  0.70110  0.54620  1.0000 -0.151040356
C   C129      1.0  0.32420  0.04940  0.00900  1.0000 0.0492245584
C   C130      1.0  0.95060  0.67580  0.50900  1.0000 0.0492245584
C   C131      1.0  0.25970  0.02990  0.97350  1.0000 -0.151040356
C   C132      1.0  0.97010  0.74030  0.47350  1.0000 -0.151040356
C   C133      1.0  0.16650  0.94590  0.97920  1.0000 0.0492245584
C   C134      1.0  0.05410  0.83350  0.47920  1.0000 0.0492245584
C   C135      1.0  0.82770  0.34830  0.09630  1.0000 0.0865761047
C   C136      1.0  0.65170  0.17230  0.59630  1.0000 0.0865761047
C   C137      1.0  0.75720  0.33280  0.06550  1.0000 -0.1566395592
C   C138      1.0  0.66720  0.24280  0.56550  1.0000 -0.1566395592
C   C139      1.0  0.66720  0.25080  0.06610  1.0000 0.0492245584
C   C140      1.0  0.74920  0.33280  0.56610  1.0000 0.0492245584
C   C141      1.0  0.64530  0.18870  0.10250  1.0000 -0.1792086479
C   C142      1.0  0.81130  0.35470  0.60250  1.0000 -0.1792086479
C   C143      1.0  0.71420  0.18980  0.12780  1.0000 0.1030153538
C   C144      1.0  0.81020  0.28580  0.62780  1.0000 0.1030153538
I   I1        1.0  0.46814  0.05126  0.93707  1.0000 -0.4203401003
I   I2        1.0  0.94874  0.53186  0.43707  1.0000 -0.4203401003
I   I3        1.0  0.64903  0.01657  0.03640  1.0000 -0.4098390049
I   I4        1.0  0.98343  0.35097  0.53640  1.0000 -0.4098390049
I   I5        1.0  0.30310  0.17090  0.79900  1.0000 -0.4203401003
I   I6        1.0  0.82910  0.69690  0.29900  1.0000 -0.4203401003
I   I7        1.0  0.16660  0.93800  0.70030  1.0000 -0.4295720763
I   I8        1.0  0.06200  0.83340  0.20030  1.0000 -0.4295720763
I   I9        1.0  0.07673  0.44827  0.67151  1.0000 -0.437440021
I   I10       1.0  0.55173  0.92327  0.17151  1.0000 -0.437440021
I   I11       1.0  0.25664  0.42396  0.60150  1.0000 -0.4203401003
I   I12       1.0  0.57604  0.74336  0.10150  1.0000 -0.4203401003
I   I13       1.0  0.38152  0.00548  0.55220  1.0000 -0.400179511
I   I14       1.0  0.99452  0.61848  0.05220  1.0000 -0.4098390049
I   I15       1.0  0.25280  0.09300  0.43791  1.0000 -0.4203401003
I   I16       1.0  0.90700  0.74720  0.93791  1.0000 -0.4203401003
I   I17       1.0  0.69379  0.13541  0.74712  1.0000 -0.4295720763
I   I18       1.0  0.86459  0.30621  0.24712  1.0000 -0.4295720763
I   I19       1.0  0.57077  0.93283  0.64361  1.0000 -0.437440021
I   I20       1.0  0.06717  0.42923  0.14361  1.0000 -0.437440021
I   I21       1.0  0.60915  0.68745  0.85701  1.0000 -0.4295720763
I   I22       1.0  0.31255  0.39085  0.35701  1.0000 -0.4295720763
I   I23       1.0  0.79040  0.67520  0.78050  1.0000 -0.446042439
I   I24       1.0  0.32480  0.20960  0.28050  1.0000 -0.446042439
N   N1        1.0  0.64620  0.04160  0.91110  1.0000 -0.1884543903
N   N2        1.0  0.95840  0.35380  0.41110  1.0000 -0.1884543903
N   N3        1.0  0.76350  0.96370  0.80580  1.0000 -0.400179511
N   N4        1.0  0.03630  0.23650  0.30580  1.0000 -0.400179511
N   N5        1.0  0.68670  0.85010  0.75260  1.0000 -0.388147805
N   N6        1.0  0.14990  0.31330  0.25260  1.0000 -0.3840921727
N   N7        1.0  0.59570  0.86870  0.78630  1.0000 -0.388147805
N   N8        1.0  0.13130  0.40430  0.28630  1.0000 -0.388147805
N   N9        1.0  0.03650  0.98350  0.77200  1.0000 -0.1983996463
N   N10       1.0  0.01650  0.96350  0.27200  1.0000 -0.1983996463
N   N11       1.0  0.34250  0.60150  0.68420  1.0000 -0.1792086479
N   N12       1.0  0.39850  0.65750  0.18420  1.0000 -0.1792086479
N   N13       1.0  0.26340  0.62480  0.58860  1.0000 -0.1884543903
N   N14       1.0  0.37520  0.73660  0.08860  1.0000 -0.1884543903
N   N15       1.0  0.27610  0.82370  0.45100  1.0000 -0.388147805
N   N16       1.0  0.17630  0.72390  0.95100  1.0000 -0.388147805
N   N17       1.0  0.39670  0.98650  0.42180  1.0000 -0.400179511
N   N18       1.0  0.01350  0.60330  0.92180  1.0000 -0.388147805
N   N19       1.0  0.43860  0.92140  0.48350  1.0000 -0.388147805
N   N20       1.0  0.07860  0.56140  0.98350  1.0000 -0.388147805
N   N21       1.0  0.09610  0.85450  0.31820  1.0000 -0.1792086479
N   N22       1.0  0.14550  0.90390  0.81820  1.0000 -0.1792086479
N   N23       1.0  0.76260  0.25580  0.45920  1.0000 -0.1693060107
N   N24       1.0  0.74420  0.23740  0.95920  1.0000 -0.1693060107
N   N25       1.0  0.22140  0.05480  0.56150  1.0000 -0.1884543903
N   N26       1.0  0.94520  0.77860  0.06150  1.0000 -0.1884543903
N   N27       1.0  0.27280  0.25000  0.67130  1.0000 -0.3725641427
N   N28       1.0  0.75000  0.72720  0.17130  1.0000 -0.3725641427
N   N29       1.0  0.17830  0.26430  0.70320  1.0000 -0.388147805
N   N30       1.0  0.73570  0.82170  0.20320  1.0000 -0.388147805
N   N31       1.0  0.10760  0.15400  0.65020  1.0000 -0.388147805
N   N32       1.0  0.84600  0.89240  0.15020  1.0000 -0.388147805
N   N33       1.0  0.83060  0.12340  0.68150  1.0000 -0.1884543903
N   N34       1.0  0.87660  0.16940  0.18150  1.0000 -0.1884543903
N   N35       1.0  0.51770  0.51770  0.77300  1.0000 -0.1884543903
N   N36       1.0  0.48230  0.48230  0.27300  1.0000 -0.1884543903
N   N37       1.0  0.61190  0.48830  0.86350  1.0000 -0.1983996463
N   N38       1.0  0.51170  0.38810  0.36350  1.0000 -0.1983996463
N   N39       1.0  0.45230  0.21070  0.97460  1.0000 -0.3840921727
N   N40       1.0  0.78930  0.54770  0.47460  1.0000 -0.3840921727
N   N41       1.0  0.49460  0.14920  0.03730  1.0000 -0.388147805
N   N42       1.0  0.85080  0.50540  0.53730  1.0000 -0.388147805
N   N43       1.0  0.61760  0.29200  0.99630  1.0000 -0.388147805
N   N44       1.0  0.70800  0.38240  0.49630  1.0000 -0.388147805
N   N45       1.0  0.13680  0.87720  0.01220  1.0000 -0.1884543903
N   N46       1.0  0.12280  0.86320  0.51220  1.0000 -0.1884543903
N   N47       1.0  0.80410  0.27570  0.12570  1.0000 -0.1792086479
N   N48       1.0  0.72430  0.19590  0.62570  1.0000 -0.1792086479
