# DDEC6 charges by PACMAN v1.1 (https://github.com/mtap-research/PACMAN-charge/)
data_2014[Cu][bcu]3[FSR]3
_chemical_formula_sum              "Cu6 H32 C48 N52"
_cell_length_a       13.244
_cell_length_b       14.521
_cell_length_c       20.0454
_cell_angle_alpha    90
_cell_angle_beta     128.549
_cell_angle_gamma    90

_symmetry_space_group_name_H-M    "P 1"
_symmetry_Int_Tables_number       1

loop_
  _symmetry_equiv_pos_as_xyz
  'x, y, z'

loop_
  _atom_site_type_symbol
  _atom_site_label
  _atom_site_symmetry_multiplicity
  _atom_site_fract_x
  _atom_site_fract_y
  _atom_site_fract_z
  _atom_site_occupancy
  _atom_site_charge
Cu  Cu1       1.0  0.00000  0.00000  0.50000  1.0000 0.5636538357
Cu  Cu2       1.0  0.00000  0.50000  0.00000  1.0000 0.5636538357
Cu  Cu3       1.0  0.86032  0.20030  0.39005  1.0000 0.5000822336
Cu  Cu4       1.0  0.13968  0.70030  0.10995  1.0000 0.5000822336
Cu  Cu5       1.0  0.13968  0.79970  0.60995  1.0000 0.5000822336
Cu  Cu6       1.0  0.86032  0.29970  0.89005  1.0000 0.5000822336
H   H1        1.0  0.22700  0.86980  0.07340  1.0000 0.1087421169
H   H2        1.0  0.77300  0.36980  0.42660  1.0000 0.1087421169
H   H3        1.0  0.77300  0.13020  0.92660  1.0000 0.1087421169
H   H4        1.0  0.22700  0.63020  0.57340  1.0000 0.1087421169
H   H5        1.0  0.40190  0.96530  0.13970  1.0000 0.1431857624
H   H6        1.0  0.59810  0.46530  0.36030  1.0000 0.1431857624
H   H7        1.0  0.59810  0.03470  0.86030  1.0000 0.1431857624
H   H8        1.0  0.40190  0.53470  0.63970  1.0000 0.1431857624
H   H9        1.0  0.59390  0.78270  0.33080  1.0000 0.1500323132
H   H10       1.0  0.40610  0.28270  0.16920  1.0000 0.1500323132
H   H11       1.0  0.40610  0.21730  0.66920  1.0000 0.1500323132
H   H12       1.0  0.59390  0.71730  0.83080  1.0000 0.1500323132
H   H13       1.0  0.41040  0.69480  0.25950  1.0000 0.1087421169
H   H14       1.0  0.58960  0.19480  0.24050  1.0000 0.1087421169
H   H15       1.0  0.58960  0.30520  0.74050  1.0000 0.1087421169
H   H16       1.0  0.41040  0.80520  0.75950  1.0000 0.1087421169
H   H17       1.0  0.12350  0.87050  0.18160  1.0000 0.1039523721
H   H18       1.0  0.87650  0.37050  0.31840  1.0000 0.1039523721
H   H19       1.0  0.87650  0.12950  0.81840  1.0000 0.1039523721
H   H20       1.0  0.12350  0.62950  0.68160  1.0000 0.1039523721
H   H21       1.0  0.09190  0.91870  0.27640  1.0000 0.1500323132
H   H22       1.0  0.90810  0.41870  0.22360  1.0000 0.1500323132
H   H23       1.0  0.90810  0.08130  0.72360  1.0000 0.1500323132
H   H24       1.0  0.09190  0.58130  0.77640  1.0000 0.1500323132
H   H25       1.0  0.16710  0.66590  0.36590  1.0000 0.1431857624
H   H26       1.0  0.83290  0.16590  0.13410  1.0000 0.1431857624
H   H27       1.0  0.83290  0.33410  0.63410  1.0000 0.1431857624
H   H28       1.0  0.16710  0.83410  0.86590  1.0000 0.1431857624
H   H29       1.0  0.16960  0.62170  0.25670  1.0000 0.1087421169
H   H30       1.0  0.83040  0.12170  0.24330  1.0000 0.1087421169
H   H31       1.0  0.83040  0.37830  0.74330  1.0000 0.1087421169
H   H32       1.0  0.16960  0.87830  0.75670  1.0000 0.1087421169
C   C1        1.0  0.30190  0.85270  0.12660  1.0000 0.077091159
C   C2        1.0  0.69810  0.35270  0.37340  1.0000 0.077091159
C   C3        1.0  0.69810  0.14730  0.87340  1.0000 0.077091159
C   C4        1.0  0.30190  0.64730  0.62660  1.0000 0.077091159
C   C5        1.0  0.40690  0.91020  0.16530  1.0000 -0.1811688005
C   C6        1.0  0.59310  0.41020  0.33470  1.0000 -0.1811688005
C   C7        1.0  0.59310  0.08980  0.83470  1.0000 -0.1811688005
C   C8        1.0  0.40690  0.58980  0.66530  1.0000 -0.1811688005
C   C9        1.0  0.51900  0.88460  0.24250  1.0000 0.0909165923
C   C10       1.0  0.48100  0.38460  0.25750  1.0000 0.0909165923
C   C11       1.0  0.48100  0.11540  0.75750  1.0000 0.0909165923
C   C12       1.0  0.51900  0.61540  0.74250  1.0000 0.0909165923
C   C13       1.0  0.51960  0.80210  0.27830  1.0000 -0.1693459051
C   C14       1.0  0.48040  0.30210  0.22170  1.0000 -0.1693459051
C   C15       1.0  0.48040  0.19790  0.72170  1.0000 -0.1693459051
C   C16       1.0  0.51960  0.69790  0.77830  1.0000 -0.1693459051
C   C17       1.0  0.40930  0.74970  0.23530  1.0000 0.0705800519
C   C18       1.0  0.59070  0.24970  0.26470  1.0000 0.0705800519
C   C19       1.0  0.59070  0.25030  0.76470  1.0000 0.0705800519
C   C20       1.0  0.40930  0.75030  0.73530  1.0000 0.0705800519
C   C21       1.0  0.63480  0.94320  0.29060  1.0000 0.2188861311
C   C22       1.0  0.36520  0.44320  0.20940  1.0000 0.2188861311
C   C23       1.0  0.36520  0.05680  0.70940  1.0000 0.2188861311
C   C24       1.0  0.63480  0.55680  0.79060  1.0000 0.2188861311
C   C25       1.0  0.12510  0.82670  0.21610  1.0000 0.077091159
C   C26       1.0  0.87490  0.32670  0.28390  1.0000 0.077091159
C   C27       1.0  0.87490  0.17330  0.78390  1.0000 0.077091159
C   C28       1.0  0.12510  0.67330  0.71610  1.0000 0.077091159
C   C29       1.0  0.11150  0.85730  0.27580  1.0000 -0.1693459051
C   C30       1.0  0.88850  0.35730  0.22420  1.0000 -0.1693459051
C   C31       1.0  0.88850  0.14270  0.72420  1.0000 -0.1693459051
C   C32       1.0  0.11150  0.64270  0.77580  1.0000 -0.1693459051
C   C33       1.0  0.12690  0.79810  0.33220  1.0000 0.0909165923
C   C34       1.0  0.87310  0.29810  0.16780  1.0000 0.0909165923
C   C35       1.0  0.87310  0.20190  0.66780  1.0000 0.0909165923
C   C36       1.0  0.12690  0.70190  0.83220  1.0000 0.0909165923
C   C37       1.0  0.15220  0.70920  0.32640  1.0000 -0.1693459051
C   C38       1.0  0.84780  0.20920  0.17360  1.0000 -0.1693459051
C   C39       1.0  0.84780  0.29080  0.67360  1.0000 -0.1693459051
C   C40       1.0  0.15220  0.79080  0.82640  1.0000 -0.1693459051
C   C41       1.0  0.15560  0.68330  0.26130  1.0000 0.0705800519
C   C42       1.0  0.84440  0.18330  0.23870  1.0000 0.0705800519
C   C43       1.0  0.84440  0.31670  0.73870  1.0000 0.0705800519
C   C44       1.0  0.15560  0.81670  0.76130  1.0000 0.0705800519
C   C45       1.0  0.11380  0.82820  0.39700  1.0000 0.2328545243
C   C46       1.0  0.88620  0.32820  0.10300  1.0000 0.2328545243
C   C47       1.0  0.88620  0.17180  0.60300  1.0000 0.2328545243
C   C48       1.0  0.11380  0.67180  0.89700  1.0000 0.2328545243
N   N1        1.0  0.30010  0.77520  0.15950  1.0000 -0.2012909263
N   N2        1.0  0.69990  0.27520  0.34050  1.0000 -0.2012909263
N   N3        1.0  0.69990  0.22480  0.84050  1.0000 -0.2012909263
N   N4        1.0  0.30010  0.72480  0.65950  1.0000 -0.2012909263
N   N5        1.0  0.63740  0.03100  0.27080  1.0000 -0.2715427227
N   N6        1.0  0.36260  0.53100  0.22920  1.0000 -0.2715427227
N   N7        1.0  0.36260  0.96900  0.72920  1.0000 -0.2715427227
N   N8        1.0  0.63740  0.46900  0.77080  1.0000 -0.2715427227
N   N9        1.0  0.75790  0.05870  0.33420  1.0000 -0.0911166876
N   N10       1.0  0.24210  0.55870  0.16580  1.0000 -0.0911166876
N   N11       1.0  0.24210  0.94130  0.66580  1.0000 -0.0911166876
N   N12       1.0  0.75790  0.44130  0.83420  1.0000 -0.0911166876
N   N13       1.0  0.82140  0.98950  0.38700  1.0000 -0.0223980214
N   N14       1.0  0.17860  0.48950  0.11300  1.0000 -0.0223980214
N   N15       1.0  0.17860  0.01050  0.61300  1.0000 -0.0223980214
N   N16       1.0  0.82140  0.51050  0.88700  1.0000 -0.0223980214
N   N17       1.0  0.74770  0.91590  0.36200  1.0000 -0.2537275523
N   N18       1.0  0.25230  0.41590  0.13800  1.0000 -0.2537275523
N   N19       1.0  0.25230  0.08410  0.63800  1.0000 -0.2537275523
N   N20       1.0  0.74770  0.58410  0.86200  1.0000 -0.2537275523
N   N21       1.0  0.13970  0.74270  0.20550  1.0000 -0.1925778225
N   N22       1.0  0.86030  0.24270  0.29450  1.0000 -0.1925778225
N   N23       1.0  0.86030  0.25730  0.79450  1.0000 -0.1925778225
N   N24       1.0  0.13970  0.75730  0.70550  1.0000 -0.1925778225
N   N25       1.0  0.06250  0.90780  0.39390  1.0000 -0.2556454052
N   N26       1.0  0.93750  0.40780  0.10610  1.0000 -0.2556454052
N   N27       1.0  0.93750  0.09220  0.60610  1.0000 -0.2537275523
N   N28       1.0  0.06250  0.59220  0.89390  1.0000 -0.2556454052
N   N29       1.0  0.06780  0.90540  0.46200  1.0000 -0.0223980214
N   N30       1.0  0.93220  0.40540  0.03800  1.0000 -0.0223980214
N   N31       1.0  0.93220  0.09460  0.53800  1.0000 -0.0223980214
N   N32       1.0  0.06780  0.59460  0.96200  1.0000 -0.0223980214
N   N33       1.0  0.12040  0.82840  0.50400  1.0000 -0.0399259323
N   N34       1.0  0.87960  0.32840  0.99600  1.0000 -0.0399259323
N   N35       1.0  0.87960  0.17160  0.49600  1.0000 -0.0399259323
N   N36       1.0  0.12040  0.67160  0.00400  1.0000 -0.0399259323
N   N37       1.0  0.15140  0.77630  0.46410  1.0000 -0.2715427227
N   N38       1.0  0.84860  0.27630  0.03590  1.0000 -0.2715427227
N   N39       1.0  0.84860  0.22370  0.53590  1.0000 -0.2715427227
N   N40       1.0  0.15140  0.72370  0.96410  1.0000 -0.2715427227
N   N41       1.0  0.02190  0.13130  0.44190  1.0000 -0.45634844
N   N42       1.0  0.97810  0.63130  0.05810  1.0000 -0.45634844
N   N43       1.0  0.97810  0.86870  0.55810  1.0000 -0.45634844
N   N44       1.0  0.02190  0.36870  0.94190  1.0000 -0.45634844
N   N45       1.0  0.10390  0.15310  0.44370  1.0000 0.4094949007
N   N46       1.0  0.89610  0.65310  0.05630  1.0000 0.4094949007
N   N47       1.0  0.89610  0.84690  0.55630  1.0000 0.4094949007
N   N48       1.0  0.10390  0.34690  0.94370  1.0000 0.4094949007
N   N49       1.0  0.18250  0.16290  0.43340  1.0000 -0.3696938812
N   N50       1.0  0.81750  0.66290  0.06660  1.0000 -0.3696938812
N   N51       1.0  0.81750  0.83710  0.56660  1.0000 -0.3696938812
N   N52       1.0  0.18250  0.33710  0.93340  1.0000 -0.3696938812
