# DDEC6 charges by PACMAN v1.1 (https://github.com/mtap-research/PACMAN-charge/)
data_2014[Cu][bcu]3[FSR]1
_chemical_formula_sum              "Cu6 H32 C48 N52"
_cell_length_a       12.9517
_cell_length_b       14.733
_cell_length_c       20.052
_cell_angle_alpha    90
_cell_angle_beta     129.256
_cell_angle_gamma    90

_symmetry_space_group_name_H-M    "P 1"
_symmetry_Int_Tables_number       1

loop_
  _symmetry_equiv_pos_as_xyz
  'x, y, z'

loop_
  _atom_site_type_symbol
  _atom_site_label
  _atom_site_symmetry_multiplicity
  _atom_site_fract_x
  _atom_site_fract_y
  _atom_site_fract_z
  _atom_site_occupancy
  _atom_site_charge
Cu  Cu1       1.0  0.50000  0.00000  0.50000  1.0000 0.5915511182
Cu  Cu2       1.0  0.50000  0.50000  0.00000  1.0000 0.5915511182
Cu  Cu3       1.0  0.38656  0.79184  0.40237  1.0000 0.5187456093
Cu  Cu4       1.0  0.61344  0.29184  0.09763  1.0000 0.5187456093
Cu  Cu5       1.0  0.61344  0.20816  0.59763  1.0000 0.5187456093
Cu  Cu6       1.0  0.38656  0.70816  0.90237  1.0000 0.5187456093
H   H1        1.0  0.33720  0.66920  0.63850  1.0000 0.1419365636
H   H2        1.0  0.66280  0.16920  0.86150  1.0000 0.1419365636
H   H3        1.0  0.66280  0.33080  0.36150  1.0000 0.1419365636
H   H4        1.0  0.33720  0.83080  0.13850  1.0000 0.1419365636
H   H5        1.0  0.45930  0.86810  0.85370  1.0000 0.1084976327
H   H6        1.0  0.54070  0.36810  0.64630  1.0000 0.1084976327
H   H7        1.0  0.54070  0.13190  0.14630  1.0000 0.1084976327
H   H8        1.0  0.45930  0.63190  0.35370  1.0000 0.1084976327
H   H9        1.0  0.88610  0.03110  0.12670  1.0000 0.1419365636
H   H10       1.0  0.11390  0.53110  0.37330  1.0000 0.1419365636
H   H11       1.0  0.11390  0.96890  0.87330  1.0000 0.1419365636
H   H12       1.0  0.88610  0.46890  0.62670  1.0000 0.1419365636
H   H13       1.0  0.33430  0.62800  0.74770  1.0000 0.1155333284
H   H14       1.0  0.66570  0.12800  0.75230  1.0000 0.1155333284
H   H15       1.0  0.66570  0.37200  0.25230  1.0000 0.1155333284
H   H16       1.0  0.33430  0.87200  0.24770  1.0000 0.1155333284
H   H17       1.0  0.46820  0.91590  0.74730  1.0000 0.147809059
H   H18       1.0  0.53180  0.41590  0.75270  1.0000 0.147809059
H   H19       1.0  0.53180  0.08410  0.25270  1.0000 0.147809059
H   H20       1.0  0.46820  0.58410  0.24730  1.0000 0.147809059
H   H21       1.0  0.06900  0.19310  0.33380  1.0000 0.147809059
H   H22       1.0  0.93100  0.69310  0.16620  1.0000 0.147809059
H   H23       1.0  0.93100  0.80690  0.66620  1.0000 0.147809059
H   H24       1.0  0.06900  0.30690  0.83380  1.0000 0.147809059
H   H25       1.0  0.88400  0.28530  0.25760  1.0000 0.1084976327
H   H26       1.0  0.11600  0.78530  0.24240  1.0000 0.1084976327
H   H27       1.0  0.11600  0.71470  0.74240  1.0000 0.1084976327
H   H28       1.0  0.88400  0.21470  0.75760  1.0000 0.1084976327
H   H29       1.0  0.70390  0.12460  0.05700  1.0000 0.1084976327
H   H30       1.0  0.29610  0.62460  0.44300  1.0000 0.1084976327
H   H31       1.0  0.29610  0.87540  0.94300  1.0000 0.1084976327
H   H32       1.0  0.70390  0.37540  0.55700  1.0000 0.1084976327
C   C1        1.0  0.40990  0.82600  0.61290  1.0000 0.2233123972
C   C2        1.0  0.59010  0.32600  0.88710  1.0000 0.2233123972
C   C3        1.0  0.59010  0.17400  0.38710  1.0000 0.2233123972
C   C4        1.0  0.40990  0.67400  0.11290  1.0000 0.2233123972
C   C5        1.0  0.40310  0.79880  0.68100  1.0000 0.0963409121
C   C6        1.0  0.59690  0.29880  0.81900  1.0000 0.0963409121
C   C7        1.0  0.59690  0.20120  0.31900  1.0000 0.0963409121
C   C8        1.0  0.40310  0.70120  0.18100  1.0000 0.0963409121
C   C9        1.0  0.36190  0.71060  0.68140  1.0000 -0.1736427092
C   C10       1.0  0.63810  0.21060  0.81860  1.0000 -0.1736427092
C   C11       1.0  0.63810  0.28940  0.31860  1.0000 -0.1736427092
C   C12       1.0  0.36190  0.78940  0.18140  1.0000 -0.1736427092
C   C13       1.0  0.43340  0.82870  0.80920  1.0000 0.0610192387
C   C14       1.0  0.56660  0.32870  0.69080  1.0000 0.0610192387
C   C15       1.0  0.56660  0.17130  0.19080  1.0000 0.0610192387
C   C16       1.0  0.43340  0.67130  0.30920  1.0000 0.0610192387
C   C17       1.0  0.11740  0.04380  0.28720  1.0000 0.2121953896
C   C18       1.0  0.88260  0.54380  0.21280  1.0000 0.2121953896
C   C19       1.0  0.88260  0.95620  0.71280  1.0000 0.2121953896
C   C20       1.0  0.11740  0.45620  0.78720  1.0000 0.2121953896
C   C21       1.0  0.99820  0.10080  0.23840  1.0000 0.0918372261
C   C22       1.0  0.00180  0.60080  0.26160  1.0000 0.0918372261
C   C23       1.0  0.00180  0.89920  0.76160  1.0000 0.0918372261
C   C24       1.0  0.99820  0.39920  0.73840  1.0000 0.0918372261
C   C25       1.0  0.88720  0.08180  0.15480  1.0000 -0.1772920856
C   C26       1.0  0.11280  0.58180  0.34520  1.0000 -0.1772920856
C   C27       1.0  0.11280  0.91820  0.84520  1.0000 -0.1772920856
C   C28       1.0  0.88720  0.41820  0.65480  1.0000 -0.1772920856
C   C29       1.0  0.35900  0.68680  0.74630  1.0000 0.0785301856
C   C30       1.0  0.64100  0.18680  0.75370  1.0000 0.0785301856
C   C31       1.0  0.64100  0.31320  0.25370  1.0000 0.0785301856
C   C32       1.0  0.35900  0.81320  0.24630  1.0000 0.0785301856
C   C33       1.0  0.43960  0.85740  0.74580  1.0000 -0.1591668942
C   C34       1.0  0.56040  0.35740  0.75420  1.0000 -0.1591668942
C   C35       1.0  0.56040  0.14260  0.25420  1.0000 -0.1591668942
C   C36       1.0  0.43960  0.64260  0.24580  1.0000 -0.1591668942
C   C37       1.0  0.99590  0.17840  0.27750  1.0000 -0.1591668942
C   C38       1.0  0.00410  0.67840  0.22250  1.0000 -0.1591668942
C   C39       1.0  0.00410  0.82160  0.72250  1.0000 -0.1591668942
C   C40       1.0  0.99590  0.32160  0.77750  1.0000 -0.1591668942
C   C41       1.0  0.88420  0.23290  0.23180  1.0000 0.0736851541
C   C42       1.0  0.11580  0.73290  0.26820  1.0000 0.0736851541
C   C43       1.0  0.11580  0.76710  0.76820  1.0000 0.0736851541
C   C44       1.0  0.88420  0.26710  0.73180  1.0000 0.0736851541
C   C45       1.0  0.77820  0.13840  0.11320  1.0000 0.0736851541
C   C46       1.0  0.22180  0.63840  0.38680  1.0000 0.0736851541
C   C47       1.0  0.22180  0.86160  0.88680  1.0000 0.0736851541
C   C48       1.0  0.77820  0.36160  0.61320  1.0000 0.0736851541
N   N1        1.0  0.44590  0.90420  0.54390  1.0000 -0.0236067058
N   N2        1.0  0.55410  0.40420  0.95610  1.0000 -0.0236067058
N   N3        1.0  0.55410  0.09580  0.45610  1.0000 -0.0236067058
N   N4        1.0  0.44590  0.59580  0.04390  1.0000 -0.0236067058
N   N5        1.0  0.39530  0.82490  0.50400  1.0000 -0.0303371095
N   N6        1.0  0.60470  0.32490  0.99600  1.0000 -0.0303371095
N   N7        1.0  0.60470  0.17510  0.49600  1.0000 -0.0303371095
N   N8        1.0  0.39530  0.67510  0.00400  1.0000 -0.0303371095
N   N9        1.0  0.37160  0.77350  0.54620  1.0000 -0.2568538704
N   N10       1.0  0.62840  0.27350  0.95380  1.0000 -0.2568538704
N   N11       1.0  0.62840  0.22650  0.45380  1.0000 -0.2568538704
N   N12       1.0  0.37160  0.72650  0.04620  1.0000 -0.2568538704
N   N13       1.0  0.45560  0.90730  0.61360  1.0000 -0.2472464808
N   N14       1.0  0.54440  0.40730  0.88640  1.0000 -0.2472464808
N   N15       1.0  0.54440  0.09270  0.38640  1.0000 -0.2472464808
N   N16       1.0  0.45560  0.59270  0.11360  1.0000 -0.2472464808
N   N17       1.0  0.39040  0.74480  0.80720  1.0000 -0.1939149269
N   N18       1.0  0.60960  0.24480  0.69280  1.0000 -0.1965401614
N   N19       1.0  0.60960  0.25520  0.19280  1.0000 -0.1939149269
N   N20       1.0  0.39040  0.75520  0.30720  1.0000 -0.1965401614
N   N21       1.0  0.24950  0.93250  0.33140  1.0000 -0.0966339813
N   N22       1.0  0.75050  0.43250  0.16860  1.0000 -0.0966339813
N   N23       1.0  0.75050  0.06750  0.66860  1.0000 -0.0966339813
N   N24       1.0  0.24950  0.56750  0.83140  1.0000 -0.0966339813
N   N25       1.0  0.31390  0.00220  0.38630  1.0000 -0.0431472615
N   N26       1.0  0.68610  0.50220  0.11370  1.0000 -0.0431472615
N   N27       1.0  0.68610  0.99780  0.61370  1.0000 -0.0431472615
N   N28       1.0  0.31390  0.49780  0.88630  1.0000 -0.0431472615
N   N29       1.0  0.23340  0.07330  0.36030  1.0000 -0.2437437058
N   N30       1.0  0.76660  0.57330  0.13970  1.0000 -0.2437437058
N   N31       1.0  0.76660  0.92670  0.63970  1.0000 -0.2437437058
N   N32       1.0  0.23340  0.42670  0.86030  1.0000 -0.2437437058
N   N33       1.0  0.12600  0.95880  0.26750  1.0000 -0.2709452355
N   N34       1.0  0.87400  0.45880  0.23250  1.0000 -0.2709452355
N   N35       1.0  0.87400  0.04120  0.73250  1.0000 -0.2709452355
N   N36       1.0  0.12600  0.54120  0.76750  1.0000 -0.2709452355
N   N37       1.0  0.53870  0.87360  0.44970  1.0000 -0.5198624947
N   N38       1.0  0.46130  0.37360  0.05030  1.0000 -0.5198624947
N   N39       1.0  0.46130  0.12640  0.55030  1.0000 -0.5198624947
N   N40       1.0  0.53870  0.62640  0.94970  1.0000 -0.5198624947
N   N41       1.0  0.62910  0.85670  0.45180  1.0000 0.4148089519
N   N42       1.0  0.37090  0.35670  0.04820  1.0000 0.4148089519
N   N43       1.0  0.37090  0.14330  0.54820  1.0000 0.4148089519
N   N44       1.0  0.62910  0.64330  0.95180  1.0000 0.4148089519
N   N45       1.0  0.77450  0.21240  0.15040  1.0000 -0.2119751827
N   N46       1.0  0.22550  0.71240  0.34960  1.0000 -0.2119751827
N   N47       1.0  0.22550  0.78760  0.84960  1.0000 -0.2119751827
N   N48       1.0  0.77450  0.28760  0.65040  1.0000 -0.2119751827
N   N49       1.0  0.71820  0.84210  0.45460  1.0000 -0.3516050944
N   N50       1.0  0.28180  0.34210  0.04540  1.0000 -0.3516050944
N   N51       1.0  0.28180  0.15790  0.54540  1.0000 -0.3516050944
N   N52       1.0  0.71820  0.65790  0.95460  1.0000 -0.3516050944
