# DDEC6 charges by PACMAN v1.1 (https://github.com/mtap-research/PACMAN-charge/)
data_2014[Zn][sra]3[FSR]4
_chemical_formula_sum              "Zn4 H24 C40 N24"
_cell_length_a       7.2259
_cell_length_b       18.6983
_cell_length_c       15.142
_cell_angle_alpha    90
_cell_angle_beta     93.144
_cell_angle_gamma    90

_symmetry_space_group_name_H-M    "P 1"
_symmetry_Int_Tables_number       1

loop_
  _symmetry_equiv_pos_as_xyz
  'x, y, z'

loop_
  _atom_site_type_symbol
  _atom_site_label
  _atom_site_symmetry_multiplicity
  _atom_site_fract_x
  _atom_site_fract_y
  _atom_site_fract_z
  _atom_site_occupancy
  _atom_site_charge
Zn  Zn1       1.0  0.63753  0.42033  0.51923  1.0000 0.5837568028
Zn  Zn2       1.0  0.36247  0.92033  0.98077  1.0000 0.5837568028
Zn  Zn3       1.0  0.36247  0.57967  0.48077  1.0000 0.5837568028
Zn  Zn4       1.0  0.63753  0.07967  0.01923  1.0000 0.5837568028
H   H1        1.0  0.03380  0.98130  0.09090  1.0000 0.1111809119
H   H2        1.0  0.96620  0.48130  0.40910  1.0000 0.1111809119
H   H3        1.0  0.96620  0.01870  0.90910  1.0000 0.1111809119
H   H4        1.0  0.03380  0.51870  0.59090  1.0000 0.1111809119
H   H5        1.0  0.94030  0.32560  0.46950  1.0000 0.0996923532
H   H6        1.0  0.05970  0.82560  0.03050  1.0000 0.0996923532
H   H7        1.0  0.05970  0.67440  0.53050  1.0000 0.0996923532
H   H8        1.0  0.94030  0.17440  0.96950  1.0000 0.0996923532
H   H9        1.0  0.30310  0.16530  0.09500  1.0000 0.1221673919
H   H10       1.0  0.69690  0.66530  0.40500  1.0000 0.1221673919
H   H11       1.0  0.69690  0.83470  0.90500  1.0000 0.1221673919
H   H12       1.0  0.30310  0.33470  0.59500  1.0000 0.1221673919
H   H13       1.0  0.01260  0.24390  0.36460  1.0000 0.1417772008
H   H14       1.0  0.98740  0.74390  0.13540  1.0000 0.1417772008
H   H15       1.0  0.98740  0.75610  0.63540  1.0000 0.1417772008
H   H16       1.0  0.01260  0.25610  0.86460  1.0000 0.1417772008
H   H17       1.0  0.43110  0.33420  0.37540  1.0000 0.1111809119
H   H18       1.0  0.56890  0.83420  0.12460  1.0000 0.1111809119
H   H19       1.0  0.56890  0.66580  0.62460  1.0000 0.1111809119
H   H20       1.0  0.43110  0.16580  0.87540  1.0000 0.1111809119
H   H21       1.0  0.48930  0.25100  0.27060  1.0000 0.1454255117
H   H22       1.0  0.51070  0.75100  0.22940  1.0000 0.1454255117
H   H23       1.0  0.51070  0.74900  0.72940  1.0000 0.1454255117
H   H24       1.0  0.48930  0.24900  0.77060  1.0000 0.1454255117
C   C1        1.0  0.10810  0.08675  0.11030  1.0000 -0.0777990519
C   C2        1.0  0.89190  0.58675  0.38970  1.0000 -0.0777990519
C   C3        1.0  0.89190  0.91325  0.88970  1.0000 -0.0777990519
C   C4        1.0  0.10810  0.41325  0.61030  1.0000 -0.0777990519
C   C5        1.0  0.12210  0.01654  0.08290  1.0000 -0.0515560748
C   C6        1.0  0.87790  0.51654  0.41710  1.0000 -0.0515560748
C   C7        1.0  0.87790  0.98346  0.91710  1.0000 -0.0515560748
C   C8        1.0  0.12210  0.48346  0.58290  1.0000 -0.0515560748
C   C9        1.0  0.76000  0.23830  0.30470  1.0000 0.0996923532
C   C10       1.0  0.24000  0.73830  0.19530  1.0000 0.0996923532
C   C11       1.0  0.24000  0.76170  0.69530  1.0000 0.0996923532
C   C12       1.0  0.76000  0.26170  0.80470  1.0000 0.0996923532
C   C13       1.0  0.95610  0.12192  0.15410  1.0000 0.2861213071
C   C14       1.0  0.04390  0.62192  0.34590  1.0000 0.2861213071
C   C15       1.0  0.04390  0.87808  0.84590  1.0000 0.2861213071
C   C16       1.0  0.95610  0.37808  0.65410  1.0000 0.2861213071
C   C17       1.0  0.84790  0.31100  0.42810  1.0000 0.0584187463
C   C18       1.0  0.15210  0.81100  0.07190  1.0000 0.0584187463
C   C19       1.0  0.15210  0.68900  0.57190  1.0000 0.0584187463
C   C20       1.0  0.84790  0.18900  0.92810  1.0000 0.0584187463
C   C21       1.0  0.27020  0.11780  0.08500  1.0000 -0.0353568623
C   C22       1.0  0.72980  0.61780  0.41500  1.0000 -0.0353568623
C   C23       1.0  0.72980  0.88220  0.91500  1.0000 -0.03474153
C   C24       1.0  0.27020  0.38220  0.58500  1.0000 -0.03474153
C   C25       1.0  0.80370  0.18622  0.23600  1.0000 0.2367151959
C   C26       1.0  0.19630  0.68622  0.26400  1.0000 0.2367151959
C   C27       1.0  0.19630  0.81378  0.76400  1.0000 0.2367151959
C   C28       1.0  0.80370  0.31378  0.73600  1.0000 0.2367151959
C   C29       1.0  0.89240  0.26150  0.36540  1.0000 -0.1712376623
C   C30       1.0  0.10760  0.76150  0.13460  1.0000 -0.1712376623
C   C31       1.0  0.10760  0.73850  0.63460  1.0000 -0.1712376623
C   C32       1.0  0.89240  0.23850  0.86540  1.0000 -0.1712376623
C   C33       1.0  0.55040  0.31580  0.37350  1.0000 0.0584187463
C   C34       1.0  0.44960  0.81580  0.12650  1.0000 0.0584187463
C   C35       1.0  0.44960  0.68420  0.62650  1.0000 0.0584187463
C   C36       1.0  0.55040  0.18420  0.87350  1.0000 0.0584187463
C   C37       1.0  0.58460  0.26600  0.31000  1.0000 -0.1810730713
C   C38       1.0  0.41540  0.76600  0.19000  1.0000 -0.1810730713
C   C39       1.0  0.41540  0.73400  0.69000  1.0000 -0.1810730713
C   C40       1.0  0.58460  0.23400  0.81000  1.0000 -0.1810730713
N   N1        1.0  0.37250  0.07039  0.04420  1.0000 -0.1712376623
N   N2        1.0  0.62750  0.57039  0.45580  1.0000 -0.1712376623
N   N3        1.0  0.62750  0.92961  0.95580  1.0000 -0.1712376623
N   N4        1.0  0.37250  0.42961  0.54420  1.0000 -0.1712376623
N   N5        1.0  0.28030  0.00672  0.04344  1.0000 -0.1855380515
N   N6        1.0  0.71970  0.50672  0.45656  1.0000 -0.1855380515
N   N7        1.0  0.71970  0.99328  0.95656  1.0000 -0.1855380515
N   N8        1.0  0.28030  0.49328  0.54344  1.0000 -0.1855380515
N   N9        1.0  0.67960  0.33907  0.43250  1.0000 -0.2052774744
N   N10       1.0  0.32040  0.83907  0.06750  1.0000 -0.2052774744
N   N11       1.0  0.32040  0.66093  0.56750  1.0000 -0.2052774744
N   N12       1.0  0.67960  0.16093  0.93250  1.0000 -0.2052774744
N   N13       1.0  0.77680  0.11464  0.12789  1.0000 -0.2591430786
N   N14       1.0  0.22320  0.61464  0.37211  1.0000 -0.2591430786
N   N15       1.0  0.22320  0.88536  0.87211  1.0000 -0.2591430786
N   N16       1.0  0.77680  0.38536  0.62789  1.0000 -0.2591430786
N   N17       1.0  0.67740  0.15661  0.18180  1.0000 -0.2733451145
N   N18       1.0  0.32260  0.65661  0.31820  1.0000 -0.2733451145
N   N19       1.0  0.32260  0.84339  0.81820  1.0000 -0.2733451145
N   N20       1.0  0.67740  0.34339  0.68180  1.0000 -0.2733451145
N   N21       1.0  0.98140  0.16681  0.22180  1.0000 -0.4432909953
N   N22       1.0  0.01860  0.66681  0.27820  1.0000 -0.4432909953
N   N23       1.0  0.01860  0.83319  0.77820  1.0000 -0.4432909953
N   N24       1.0  0.98140  0.33319  0.72180  1.0000 -0.4432909953
