# DDEC6 charges by PACMAN v1.1 (https://github.com/mtap-research/PACMAN-charge/)
data_2014[Cu][bcu]3[FSR]4
_chemical_formula_sum              "Cu6 H32 C48 N52"
_cell_length_a       13.598
_cell_length_b       15.095
_cell_length_c       19.7829
_cell_angle_alpha    90
_cell_angle_beta     129.701
_cell_angle_gamma    90

_symmetry_space_group_name_H-M    "P 1"
_symmetry_Int_Tables_number       1

loop_
  _symmetry_equiv_pos_as_xyz
  'x, y, z'

loop_
  _atom_site_type_symbol
  _atom_site_label
  _atom_site_symmetry_multiplicity
  _atom_site_fract_x
  _atom_site_fract_y
  _atom_site_fract_z
  _atom_site_occupancy
  _atom_site_charge
Cu  Cu1       1.0  0.50000  0.00000  0.50000  1.0000 0.5893076782
Cu  Cu2       1.0  0.50000  0.50000  0.00000  1.0000 0.5893076782
Cu  Cu3       1.0  0.34135  0.81385  0.39589  1.0000 0.5049027924
Cu  Cu4       1.0  0.65865  0.31385  0.10411  1.0000 0.5049027924
Cu  Cu5       1.0  0.65865  0.18615  0.60411  1.0000 0.5049027924
Cu  Cu6       1.0  0.34135  0.68615  0.89589  1.0000 0.5056601887
H   H1        1.0  0.72860  0.14290  0.06770  1.0000 0.1090036275
H   H2        1.0  0.27140  0.64290  0.43230  1.0000 0.1090036275
H   H3        1.0  0.27140  0.85710  0.93230  1.0000 0.1090036275
H   H4        1.0  0.72860  0.35710  0.56770  1.0000 0.1090036275
H   H5        1.0  0.89670  0.04560  0.13810  1.0000 0.143518197
H   H6        1.0  0.10330  0.54560  0.36190  1.0000 0.143518197
H   H7        1.0  0.10330  0.95440  0.86190  1.0000 0.143518197
H   H8        1.0  0.89670  0.45440  0.63810  1.0000 0.143518197
H   H9        1.0  0.10383  0.22020  0.33333  1.0000 0.143518197
H   H10       1.0  0.89617  0.72020  0.16667  1.0000 0.143518197
H   H11       1.0  0.89617  0.77980  0.66667  1.0000 0.143518197
H   H12       1.0  0.10383  0.27980  0.83333  1.0000 0.143518197
H   H13       1.0  0.93080  0.31110  0.26010  1.0000 0.1090036275
H   H14       1.0  0.06920  0.81110  0.23990  1.0000 0.1090036275
H   H15       1.0  0.06920  0.68890  0.73990  1.0000 0.1090036275
H   H16       1.0  0.93080  0.18890  0.76010  1.0000 0.1090036275
H   H17       1.0  0.59130  0.15000  0.14760  1.0000 0.1090036275
H   H18       1.0  0.40870  0.65000  0.35240  1.0000 0.1090036275
H   H19       1.0  0.40870  0.85000  0.85240  1.0000 0.1090036275
H   H20       1.0  0.59130  0.35000  0.64760  1.0000 0.1090036275
H   H21       1.0  0.57220  0.09680  0.24710  1.0000 0.148043414
H   H22       1.0  0.42780  0.59680  0.25290  1.0000 0.148043414
H   H23       1.0  0.42780  0.90320  0.75290  1.0000 0.148043414
H   H24       1.0  0.57220  0.40320  0.74710  1.0000 0.148043414
H   H25       1.0  0.70850  0.32580  0.37330  1.0000 0.143518197
H   H26       1.0  0.29150  0.82580  0.12670  1.0000 0.143518197
H   H27       1.0  0.29150  0.67420  0.62670  1.0000 0.143518197
H   H28       1.0  0.70850  0.17420  0.87330  1.0000 0.143518197
H   H29       1.0  0.71330  0.37620  0.26740  1.0000 0.1090036275
H   H30       1.0  0.28670  0.87620  0.23260  1.0000 0.1090036275
H   H31       1.0  0.28670  0.62380  0.73260  1.0000 0.1090036275
H   H32       1.0  0.71330  0.12380  0.76740  1.0000 0.1090036275
C   C1        1.0  0.80510  0.15850  0.12210  1.0000 0.0770293151
C   C2        1.0  0.19490  0.65850  0.37790  1.0000 0.0770293151
C   C3        1.0  0.19490  0.84150  0.87790  1.0000 0.0770293151
C   C4        1.0  0.80510  0.34150  0.62210  1.0000 0.0770293151
C   C5        1.0  0.90580  0.09980  0.16390  1.0000 -0.1800080488
C   C6        1.0  0.09420  0.59980  0.33610  1.0000 -0.1800080488
C   C7        1.0  0.09420  0.90020  0.83610  1.0000 -0.1800080488
C   C8        1.0  0.90580  0.40020  0.66390  1.0000 -0.1800080488
C   C9        1.0  0.02020  0.12210  0.24430  1.0000 0.0873634772
C   C10       1.0  0.97980  0.62210  0.25570  1.0000 0.0873634772
C   C11       1.0  0.97980  0.87790  0.75570  1.0000 0.0873634772
C   C12       1.0  0.02020  0.37790  0.74430  1.0000 0.0873634772
C   C13       1.0  0.02800  0.20270  0.27940  1.0000 -0.1557713474
C   C14       1.0  0.97200  0.70270  0.22060  1.0000 -0.1543450381
C   C15       1.0  0.97200  0.79730  0.72060  1.0000 -0.1543450381
C   C16       1.0  0.02800  0.29730  0.77940  1.0000 -0.1543450381
C   C17       1.0  0.92420  0.25710  0.23490  1.0000 0.0671490331
C   C18       1.0  0.07580  0.75710  0.26510  1.0000 0.0671490331
C   C19       1.0  0.07580  0.74290  0.76510  1.0000 0.0671490331
C   C20       1.0  0.92420  0.24290  0.73490  1.0000 0.0671490331
C   C21       1.0  0.13070  0.06190  0.29350  1.0000 0.2204528277
C   C22       1.0  0.86930  0.56190  0.20650  1.0000 0.2204528277
C   C23       1.0  0.86930  0.93810  0.70650  1.0000 0.2204528277
C   C24       1.0  0.13070  0.43810  0.79350  1.0000 0.2204528277
C   C25       1.0  0.61280  0.18670  0.19300  1.0000 0.0626772263
C   C26       1.0  0.38720  0.68670  0.30700  1.0000 0.0626772263
C   C27       1.0  0.38720  0.81330  0.80700  1.0000 0.0626772263
C   C28       1.0  0.61280  0.31330  0.69300  1.0000 0.0626772263
C   C29       1.0  0.60260  0.15390  0.25300  1.0000 -0.1683463181
C   C30       1.0  0.39740  0.65390  0.24700  1.0000 -0.1683463181
C   C31       1.0  0.39740  0.84610  0.74700  1.0000 -0.1683463181
C   C32       1.0  0.60260  0.34610  0.75300  1.0000 -0.1683463181
C   C33       1.0  0.63820  0.20660  0.32180  1.0000 0.0873634772
C   C34       1.0  0.36180  0.70660  0.17820  1.0000 0.0873634772
C   C35       1.0  0.36180  0.79340  0.67820  1.0000 0.0873634772
C   C36       1.0  0.63820  0.29340  0.82180  1.0000 0.0873634772
C   C37       1.0  0.68140  0.28910  0.32650  1.0000 -0.1683463181
C   C38       1.0  0.31860  0.78910  0.17350  1.0000 -0.1683463181
C   C39       1.0  0.31860  0.71090  0.67350  1.0000 -0.1683463181
C   C40       1.0  0.68140  0.21090  0.82650  1.0000 -0.1683463181
C   C41       1.0  0.68550  0.31860  0.26350  1.0000 0.0626772263
C   C42       1.0  0.31450  0.81860  0.23650  1.0000 0.0626772263
C   C43       1.0  0.31450  0.68140  0.73650  1.0000 0.0626772263
C   C44       1.0  0.68550  0.18140  0.76350  1.0000 0.0626772263
C   C45       1.0  0.62540  0.17270  0.38650  1.0000 0.2255647902
C   C46       1.0  0.37460  0.67270  0.11350  1.0000 0.2204528277
C   C47       1.0  0.37460  0.82730  0.61350  1.0000 0.2204528277
C   C48       1.0  0.62540  0.32730  0.88650  1.0000 0.2255647902
N   N1        1.0  0.81240  0.23640  0.15600  1.0000 -0.1987011209
N   N2        1.0  0.18760  0.73640  0.34400  1.0000 -0.1987011209
N   N3        1.0  0.18760  0.76360  0.84400  1.0000 -0.1987011209
N   N4        1.0  0.81240  0.26360  0.65600  1.0000 -0.1987011209
N   N5        1.0  0.12540  0.97640  0.27530  1.0000 -0.2775064657
N   N6        1.0  0.87460  0.47640  0.22470  1.0000 -0.2775064657
N   N7        1.0  0.87460  0.02360  0.72470  1.0000 -0.2775064657
N   N8        1.0  0.12540  0.52360  0.77530  1.0000 -0.2775064657
N   N9        1.0  0.24530  0.94790  0.33750  1.0000 -0.0857877309
N   N10       1.0  0.75470  0.44790  0.16250  1.0000 -0.0857877309
N   N11       1.0  0.75470  0.05210  0.66250  1.0000 -0.0840145226
N   N12       1.0  0.24530  0.55210  0.83750  1.0000 -0.0857877309
N   N13       1.0  0.31670  0.01410  0.38980  1.0000 -0.0163721113
N   N14       1.0  0.68330  0.51410  0.11020  1.0000 -0.0163721113
N   N15       1.0  0.68330  0.98590  0.61020  1.0000 -0.0163721113
N   N16       1.0  0.31670  0.48590  0.88980  1.0000 -0.0163721113
N   N17       1.0  0.24780  0.08690  0.36430  1.0000 -0.244507211
N   N18       1.0  0.75220  0.58690  0.13570  1.0000 -0.244507211
N   N19       1.0  0.75220  0.91310  0.63570  1.0000 -0.2460797156
N   N20       1.0  0.24780  0.41310  0.86430  1.0000 -0.244507211
N   N21       1.0  0.65150  0.26800  0.19670  1.0000 -0.1938269014
N   N22       1.0  0.34850  0.76800  0.30330  1.0000 -0.1987011209
N   N23       1.0  0.34850  0.73200  0.80330  1.0000 -0.1938269014
N   N24       1.0  0.65150  0.23200  0.69670  1.0000 -0.1987011209
N   N25       1.0  0.56990  0.09620  0.37780  1.0000 -0.2615809316
N   N26       1.0  0.43010  0.59620  0.12220  1.0000 -0.2615809316
N   N27       1.0  0.43010  0.90380  0.62220  1.0000 -0.2615809316
N   N28       1.0  0.56990  0.40380  0.87780  1.0000 -0.2615809316
N   N29       1.0  0.57860  0.09170  0.44820  1.0000 -0.0514402117
N   N30       1.0  0.42140  0.59170  0.05180  1.0000 -0.0514402117
N   N31       1.0  0.42140  0.90830  0.55180  1.0000 -0.0514402117
N   N32       1.0  0.57860  0.40830  0.94820  1.0000 -0.0514402117
N   N33       1.0  0.63440  0.16480  0.49500  1.0000 -0.0341579976
N   N34       1.0  0.36560  0.66480  0.00500  1.0000 -0.0341579976
N   N35       1.0  0.36560  0.83520  0.50500  1.0000 -0.0356467633
N   N36       1.0  0.63440  0.33520  0.99500  1.0000 -0.0356467633
N   N37       1.0  0.66710  0.21710  0.45800  1.0000 -0.2775064657
N   N38       1.0  0.33290  0.71710  0.04200  1.0000 -0.2775064657
N   N39       1.0  0.33290  0.78290  0.54200  1.0000 -0.2775064657
N   N40       1.0  0.66710  0.28290  0.95800  1.0000 -0.2775064657
N   N41       1.0  0.50230  0.88290  0.45030  1.0000 -0.4835867087
N   N42       1.0  0.49770  0.38290  0.04970  1.0000 -0.4835867087
N   N43       1.0  0.49770  0.11710  0.54970  1.0000 -0.4835867087
N   N44       1.0  0.50230  0.61710  0.95030  1.0000 -0.4835867087
N   N45       1.0  0.58070  0.86370  0.44490  1.0000 0.4157292743
N   N46       1.0  0.41930  0.36370  0.05510  1.0000 0.4157292743
N   N47       1.0  0.41930  0.13630  0.55510  1.0000 0.4157292743
N   N48       1.0  0.58070  0.63630  0.94490  1.0000 0.4157292743
N   N49       1.0  0.65710  0.84330  0.43910  1.0000 -0.3183016876
N   N50       1.0  0.34290  0.34330  0.06090  1.0000 -0.3183016876
N   N51       1.0  0.34290  0.15670  0.56090  1.0000 -0.3183016876
N   N52       1.0  0.65710  0.65670  0.93910  1.0000 -0.3183016876
