# DDEC6 charges by PACMAN v1.1 (https://github.com/mtap-research/PACMAN-charge/)
data_2014[Cd][dia]3[FSR]6
_chemical_formula_sum              "Cd2 H28 C40 N8 O8"
_cell_length_a       15.2411
_cell_length_b       15.2411
_cell_length_c       7.641
_cell_angle_alpha    76.2614
_cell_angle_beta     103.739
_cell_angle_gamma    51.3295

_symmetry_space_group_name_H-M    "P 1"
_symmetry_Int_Tables_number       1

loop_
  _symmetry_equiv_pos_as_xyz
  'x, y, z'

loop_
  _atom_site_type_symbol
  _atom_site_label
  _atom_site_symmetry_multiplicity
  _atom_site_fract_x
  _atom_site_fract_y
  _atom_site_fract_z
  _atom_site_occupancy
  _atom_site_charge
Cd  Cd1       1.0  0.44682  0.74904  0.56084  1.0000 0.8002341
Cd  Cd2       1.0  0.25096  0.55318  0.06084  1.0000 0.8002341
H   H1        1.0  0.74080  0.63500  0.53910  1.0000 0.1204569054
H   H2        1.0  0.36500  0.25920  0.03910  1.0000 0.1204569054
H   H3        1.0  0.90110  0.59770  0.78230  1.0000 0.1204569054
H   H4        1.0  0.40230  0.09890  0.28230  1.0000 0.1204569054
H   H5        1.0  0.98120  0.68120  0.34610  1.0000 0.1115046648
H   H6        1.0  0.31880  0.01880  0.84610  1.0000 0.1115046648
H   H7        1.0  0.81840  0.71900  0.10080  1.0000 0.1204569054
H   H8        1.0  0.28100  0.18160  0.60080  1.0000 0.1204569054
H   H9        1.0  0.64610  0.75410  0.86430  1.0000 0.1305463818
H   H10       1.0  0.24590  0.35390  0.36430  1.0000 0.1305463818
H   H11       1.0  0.51450  0.62610  0.04930  1.0000 0.1115046648
H   H12       1.0  0.37390  0.48550  0.54930  1.0000 0.1115046648
H   H13       1.0  0.86100  0.96420  0.35980  1.0000 0.1204569054
H   H14       1.0  0.03580  0.13900  0.85980  1.0000 0.1204569054
H   H15       1.0  0.63970  0.14570  0.21600  1.0000 0.1115046648
H   H16       1.0  0.85430  0.36030  0.71600  1.0000 0.1115046648
H   H17       1.0  0.69860  0.36880  0.21010  1.0000 0.1115046648
H   H18       1.0  0.63120  0.30140  0.71010  1.0000 0.1115046648
H   H19       1.0  0.91540  0.18980  0.36620  1.0000 0.1115046648
H   H20       1.0  0.81020  0.08460  0.86620  1.0000 0.1115046648
H   H21       1.0  0.12780  0.02300  0.38130  1.0000 0.1204569054
H   H22       1.0  0.97700  0.87220  0.88130  1.0000 0.1204569054
H   H23       1.0  0.30290  0.65810  0.63340  1.0000 0.1115046648
H   H24       1.0  0.34190  0.69710  0.13340  1.0000 0.1115046648
H   H25       1.0  0.64780  0.59660  0.34100  1.0000 0.2921101806
H   H26       1.0  0.40340  0.35220  0.84100  1.0000 0.2921101806
H   H27       1.0  0.07760  0.79780  0.52870  1.0000 0.2834629623
H   H28       1.0  0.20220  0.92240  0.02870  1.0000 0.2834629623
C   C1        1.0  0.79140  0.64140  0.50260  1.0000 -0.1508328932
C   C2        1.0  0.35860  0.20860  0.00260  1.0000 -0.1508328932
C   C3        1.0  0.88460  0.62260  0.64570  1.0000 -0.0965101066
C   C4        1.0  0.37740  0.11540  0.14570  1.0000 -0.0965101066
C   C5        1.0  0.95410  0.64070  0.58680  1.0000 -0.0195173732
C   C6        1.0  0.35930  0.04590  0.08680  1.0000 -0.0195173732
C   C7        1.0  0.93250  0.67250  0.38490  1.0000 -0.1239037531
C   C8        1.0  0.32750  0.06750  0.88490  1.0000 -0.1239037531
C   C9        1.0  0.83720  0.69180  0.23870  1.0000 -0.1426111849
C   C10       1.0  0.30820  0.16280  0.73870  1.0000 -0.1426111849
C   C11       1.0  0.77380  0.67020  0.30190  1.0000 0.0702047852
C   C12       1.0  0.32980  0.22620  0.80190  1.0000 0.0702047852
C   C13       1.0  0.67900  0.67800  0.15470  1.0000 0.0936092568
C   C14       1.0  0.32200  0.32100  0.65470  1.0000 0.0936092568
C   C15       1.0  0.62980  0.71880  0.95090  1.0000 -0.0916841551
C   C16       1.0  0.28120  0.37020  0.45090  1.0000 -0.0916841551
C   C17       1.0  0.55800  0.64960  0.04770  1.0000 0.1591017155
C   C18       1.0  0.35040  0.44200  0.54770  1.0000 0.1591017155
C   C19       1.0  0.06070  0.61830  0.73480  1.0000 0.5095745531
C   C20       1.0  0.38170  0.93930  0.23480  1.0000 0.5095745531
C   C21       1.0  0.82820  0.04560  0.32480  1.0000 -0.1666941139
C   C22       1.0  0.95440  0.17180  0.82480  1.0000 -0.1666941139
C   C23       1.0  0.69650  0.15350  0.24620  1.0000 -0.1137675213
C   C24       1.0  0.84650  0.30350  0.74620  1.0000 -0.1137675213
C   C25       1.0  0.64650  0.27730  0.21070  1.0000 -0.0195173732
C   C26       1.0  0.72270  0.35350  0.71070  1.0000 -0.0195173732
C   C27       1.0  0.73020  0.28800  0.24370  1.0000 -0.0916841551
C   C28       1.0  0.71200  0.26980  0.74370  1.0000 -0.0916841551
C   C29       1.0  0.85920  0.18180  0.32520  1.0000 -0.1426111849
C   C30       1.0  0.81820  0.14080  0.82520  1.0000 -0.1426111849
C   C31       1.0  0.91310  0.06170  0.35130  1.0000 0.0425259454
C   C32       1.0  0.93830  0.08690  0.85130  1.0000 0.0425259454
C   C33       1.0  0.05020  0.95260  0.43740  1.0000 0.0936092568
C   C34       1.0  0.04740  0.94980  0.93740  1.0000 0.0936092568
C   C35       1.0  0.14290  0.95030  0.43330  1.0000 -0.083082253
C   C36       1.0  0.04970  0.85710  0.93330  1.0000 -0.083082253
C   C37       1.0  0.23880  0.74860  0.57020  1.0000 0.1115046648
C   C38       1.0  0.25140  0.76120  0.07020  1.0000 0.1115046648
C   C39       1.0  0.50280  0.39260  0.13890  1.0000 0.5306418148
C   C40       1.0  0.60740  0.49720  0.63890  1.0000 0.5306418148
N   N1        1.0  0.55270  0.70190  0.88590  1.0000 -0.2847009393
N   N2        1.0  0.29810  0.44730  0.38590  1.0000 -0.2847009393
N   N3        1.0  0.63210  0.63130  0.21620  1.0000 -0.2256397548
N   N4        1.0  0.36870  0.36790  0.71620  1.0000 -0.2256397548
N   N5        1.0  0.25820  0.82500  0.51760  1.0000 -0.3072645756
N   N6        1.0  0.17500  0.74180  0.01760  1.0000 -0.3072645756
N   N7        1.0  0.11300  0.82420  0.51640  1.0000 -0.251122305
N   N8        1.0  0.17580  0.88700  0.01640  1.0000 -0.251122305
O   O1        1.0  0.09580  0.55980  0.93240  1.0000 -0.5277596505
O   O2        1.0  0.44020  0.90420  0.43240  1.0000 -0.5277596505
O   O3        1.0  0.10450  0.65170  0.69150  1.0000 -0.4541376325
O   O4        1.0  0.34830  0.89550  0.19150  1.0000 -0.4550525936
O   O5        1.0  0.46540  0.48720  0.15000  1.0000 -0.5277596505
O   O6        1.0  0.51280  0.53460  0.65000  1.0000 -0.5277596505
O   O7        1.0  0.43050  0.37710  0.07790  1.0000 -0.5671800765
O   O8        1.0  0.62290  0.56950  0.57790  1.0000 -0.5671800765
