# DDEC6 charges by PACMAN v1.1 (https://github.com/mtap-research/PACMAN-charge/)
data_2015[Fe][lvt]3[FSR]1
_chemical_formula_sum              "Fe8 H64 C72 N56 O8"
_cell_length_a       16.8577
_cell_length_b       16.8577
_cell_length_c       16.8577
_cell_angle_alpha    108.815
_cell_angle_beta     108.815
_cell_angle_gamma    110.792

_symmetry_space_group_name_H-M    "P 1"
_symmetry_Int_Tables_number       1

loop_
  _symmetry_equiv_pos_as_xyz
  'x, y, z'

loop_
  _atom_site_type_symbol
  _atom_site_label
  _atom_site_symmetry_multiplicity
  _atom_site_fract_x
  _atom_site_fract_y
  _atom_site_fract_z
  _atom_site_occupancy
  _atom_site_charge
Fe  Fe1       1.0  0.04127  0.41679  0.16800  1.0000 0.5111074284
Fe  Fe2       1.0  0.24879  0.87327  0.83200  1.0000 0.5111074284
Fe  Fe3       1.0  0.12327  0.79127  0.12448  1.0000 0.5111074284
Fe  Fe4       1.0  0.66679  0.99879  0.87552  1.0000 0.5156928223
Fe  Fe5       1.0  0.20873  0.33321  0.33200  1.0000 0.5111074284
Fe  Fe6       1.0  0.00121  0.87673  0.66800  1.0000 0.5111074284
Fe  Fe7       1.0  0.12673  0.95873  0.37552  1.0000 0.5111074284
Fe  Fe8       1.0  0.58321  0.75121  0.62448  1.0000 0.5111074284
H   H1        1.0  0.10650  0.56970  0.97100  1.0000 0.2735982757
H   H2        1.0  0.59870  0.13550  0.02900  1.0000 0.2735982757
H   H3        1.0  0.38550  0.85650  0.03680  1.0000 0.2735982757
H   H4        1.0  0.81970  0.34870  0.96320  1.0000 0.2735982757
H   H5        1.0  0.14350  0.18030  0.52900  1.0000 0.2735982757
H   H6        1.0  0.65130  0.61450  0.47100  1.0000 0.2735982757
H   H7        1.0  0.86450  0.89350  0.46320  1.0000 0.2735982757
H   H8        1.0  0.43030  0.40130  0.53680  1.0000 0.2735982757
H   H9        1.0  0.08930  0.25060  0.05250  1.0000 0.0929547619
H   H10       1.0  0.19810  0.03680  0.94750  1.0000 0.0929547619
H   H11       1.0  0.28680  0.83930  0.33870  1.0000 0.0929547619
H   H12       1.0  0.50060  0.94810  0.66130  1.0000 0.0929547619
H   H13       1.0  0.16070  0.49940  0.44750  1.0000 0.0929547619
H   H14       1.0  0.05190  0.71320  0.55250  1.0000 0.0929547619
H   H15       1.0  0.96320  0.91070  0.16130  1.0000 0.0929547619
H   H16       1.0  0.74940  0.80190  0.83870  1.0000 0.0929547619
H   H17       1.0  0.10860  0.20500  0.92120  1.0000 0.1280645344
H   H18       1.0  0.28380  0.18740  0.07880  1.0000 0.1280645344
H   H19       1.0  0.43740  0.85860  0.40360  1.0000 0.1280645344
H   H20       1.0  0.45500  0.03380  0.59640  1.0000 0.1280645344
H   H21       1.0  0.14140  0.54500  0.57880  1.0000 0.1280645344
H   H22       1.0  0.96620  0.56260  0.42120  1.0000 0.1280645344
H   H23       1.0  0.81260  0.89140  0.09640  1.0000 0.1280645344
H   H24       1.0  0.79500  0.71620  0.90360  1.0000 0.1280645344
H   H25       1.0  0.11880  0.28880  0.84260  1.0000 0.11943729
H   H26       1.0  0.44620  0.27620  0.15740  1.0000 0.11943729
H   H27       1.0  0.52620  0.86880  0.33000  1.0000 0.11943729
H   H28       1.0  0.53880  0.19620  0.67000  1.0000 0.11943729
H   H29       1.0  0.13120  0.46120  0.65740  1.0000 0.11943729
H   H30       1.0  0.80380  0.47380  0.34260  1.0000 0.11943729
H   H31       1.0  0.72380  0.88120  0.17000  1.0000 0.11943729
H   H32       1.0  0.71120  0.55380  0.83000  1.0000 0.11943729
H   H33       1.0  0.09560  0.41750  0.88890  1.0000 0.1280645344
H   H34       1.0  0.52860  0.20670  0.11110  1.0000 0.1280645344
H   H35       1.0  0.45670  0.84560  0.17810  1.0000 0.1280645344
H   H36       1.0  0.66750  0.27860  0.82190  1.0000 0.1280645344
H   H37       1.0  0.15440  0.33250  0.61110  1.0000 0.1280645344
H   H38       1.0  0.72140  0.54330  0.38890  1.0000 0.1280645344
H   H39       1.0  0.79330  0.90440  0.32190  1.0000 0.1280645344
H   H40       1.0  0.58250  0.47140  0.67810  1.0000 0.1280645344
H   H41       1.0  0.04740  0.75590  0.38930  1.0000 0.1005388048
H   H42       1.0  0.36660  0.65810  0.61070  1.0000 0.1005388048
H   H43       1.0  0.90810  0.79740  0.79150  1.0000 0.1005388048
H   H44       1.0  0.00590  0.11660  0.20850  1.0000 0.1005388048
H   H45       1.0  0.20260  0.99410  0.11070  1.0000 0.1005388048
H   H46       1.0  0.88340  0.09190  0.88930  1.0000 0.1005388048
H   H47       1.0  0.34190  0.95260  0.70850  1.0000 0.1005388048
H   H48       1.0  0.24410  0.63340  0.29150  1.0000 0.1005388048
H   H49       1.0  0.02640  0.47560  0.31680  1.0000 0.3233298879
H   H50       1.0  0.15880  0.70960  0.68320  1.0000 0.3233298879
H   H51       1.0  0.95960  0.77640  0.05080  1.0000 0.3233298879
H   H52       1.0  0.72560  0.90880  0.94920  1.0000 0.3233298879
H   H53       1.0  0.22360  0.27440  0.18320  1.0000 0.3233298879
H   H54       1.0  0.09120  0.04040  0.81680  1.0000 0.3233298879
H   H55       1.0  0.29040  0.97360  0.44920  1.0000 0.3233298879
H   H56       1.0  0.52440  0.84120  0.55080  1.0000 0.3233298879
H   H57       1.0  0.01990  0.53710  0.27980  1.0000 0.3105170351
H   H58       1.0  0.25730  0.74010  0.72020  1.0000 0.3105170351
H   H59       1.0  0.99010  0.76990  0.98280  1.0000 0.3105170351
H   H60       1.0  0.78710  0.00730  0.01720  1.0000 0.3105170351
H   H61       1.0  0.23010  0.21290  0.22020  1.0000 0.3105170351
H   H62       1.0  0.99270  0.00990  0.77980  1.0000 0.3105170351
H   H63       1.0  0.25990  0.98010  0.51720  1.0000 0.3105170351
H   H64       1.0  0.46290  0.74270  0.48280  1.0000 0.3105170351
C   C1        1.0  0.09040  0.28620  0.02020  1.0000 0.0237043918
C   C2        1.0  0.26600  0.07020  0.97980  1.0000 0.0237043918
C   C3        1.0  0.32020  0.84040  0.30420  1.0000 0.0237043918
C   C4        1.0  0.53620  0.01600  0.69580  1.0000 0.0237043918
C   C5        1.0  0.15960  0.46380  0.47980  1.0000 0.0237043918
C   C6        1.0  0.98400  0.67980  0.52020  1.0000 0.0237043918
C   C7        1.0  0.92980  0.90960  0.19580  1.0000 0.0237043918
C   C8        1.0  0.71380  0.73400  0.80420  1.0000 0.0237043918
C   C9        1.0  0.10300  0.26000  0.94200  1.0000 -0.1827359129
C   C10       1.0  0.31800  0.16100  0.05800  1.0000 -0.1827359129
C   C11       1.0  0.41100  0.85300  0.34300  1.0000 -0.1827359129
C   C12       1.0  0.51000  0.06800  0.65700  1.0000 -0.1827359129
C   C13       1.0  0.14700  0.49000  0.55800  1.0000 -0.1827359129
C   C14       1.0  0.93200  0.58900  0.44200  1.0000 -0.1827359129
C   C15       1.0  0.83900  0.89700  0.15700  1.0000 -0.1827359129
C   C16       1.0  0.74000  0.68200  0.84300  1.0000 -0.1827359129
C   C17       1.0  0.10770  0.30750  0.89440  1.0000 -0.0692384405
C   C18       1.0  0.41310  0.21330  0.10560  1.0000 -0.0692384405
C   C19       1.0  0.46330  0.85770  0.30020  1.0000 -0.0692384405
C   C20       1.0  0.55750  0.16310  0.69980  1.0000 -0.0692384405
C   C21       1.0  0.14230  0.44250  0.60560  1.0000 -0.0692384405
C   C22       1.0  0.83690  0.53670  0.39440  1.0000 -0.0692384405
C   C23       1.0  0.78670  0.89230  0.19980  1.0000 -0.0692384405
C   C24       1.0  0.69250  0.58690  0.80020  1.0000 -0.0692384405
C   C25       1.0  0.09610  0.38400  0.92310  1.0000 -0.199530909
C   C26       1.0  0.46090  0.17300  0.07690  1.0000 -0.199530909
C   C27       1.0  0.42300  0.84610  0.21210  1.0000 -0.199530909
C   C28       1.0  0.63400  0.21090  0.78790  1.0000 -0.199530909
C   C29       1.0  0.15390  0.36600  0.57690  1.0000 -0.199530909
C   C30       1.0  0.78910  0.57700  0.42310  1.0000 -0.199530909
C   C31       1.0  0.82700  0.90390  0.28790  1.0000 -0.199530909
C   C32       1.0  0.61600  0.53910  0.71210  1.0000 -0.199530909
C   C33       1.0  0.08470  0.41460  0.00370  1.0000 0.1356127333
C   C34       1.0  0.41090  0.08100  0.99630  1.0000 0.1280645344
C   C35       1.0  0.33100  0.83470  0.17010  1.0000 0.1356127333
C   C36       1.0  0.66460  0.16090  0.82990  1.0000 0.1356127333
C   C37       1.0  0.16530  0.33540  0.49630  1.0000 0.1356127333
C   C38       1.0  0.83910  0.66900  0.50370  1.0000 0.1280645344
C   C39       1.0  0.91900  0.91530  0.32990  1.0000 0.1280645344
C   C40       1.0  0.58540  0.58910  0.67010  1.0000 0.1356127333
C   C41       1.0  0.07780  0.50060  0.04260  1.0000 0.2110612482
C   C42       1.0  0.45800  0.03520  0.95740  1.0000 0.2110612482
C   C43       1.0  0.28520  0.82780  0.07720  1.0000 0.2110612482
C   C44       1.0  0.75060  0.20800  0.92280  1.0000 0.2110612482
C   C45       1.0  0.17220  0.24940  0.45740  1.0000 0.2110612482
C   C46       1.0  0.79200  0.71480  0.54260  1.0000 0.2110612482
C   C47       1.0  0.96480  0.92220  0.42280  1.0000 0.2110612482
C   C48       1.0  0.49940  0.54200  0.57720  1.0000 0.2110612482
C   C49       1.0  0.06756  0.60793  0.13669  1.0000 0.2339935448
C   C50       1.0  0.47124  0.93087  0.86331  1.0000 0.2339935448
C   C51       1.0  0.18087  0.81756  0.95963  1.0000 0.2339935448
C   C52       1.0  0.85793  0.22124  0.04037  1.0000 0.2339935448
C   C53       1.0  0.18244  0.14207  0.36331  1.0000 0.2339935448
C   C54       1.0  0.77876  0.81913  0.63669  1.0000 0.2339935448
C   C55       1.0  0.06913  0.93244  0.54037  1.0000 0.2339935448
C   C56       1.0  0.39207  0.52876  0.45963  1.0000 0.2339935448
C   C57       1.0  0.06347  0.67250  0.21533  1.0000 0.2216938209
C   C58       1.0  0.45717  0.84814  0.78467  1.0000 0.2216938209
C   C59       1.0  0.09814  0.81347  0.89097  1.0000 0.2216938209
C   C60       1.0  0.92250  0.20717  0.10903  1.0000 0.2216938209
C   C61       1.0  0.18653  0.07750  0.28467  1.0000 0.2216938209
C   C62       1.0  0.79283  0.90186  0.71533  1.0000 0.2216938209
C   C63       1.0  0.15186  0.93653  0.60903  1.0000 0.2216938209
C   C64       1.0  0.32750  0.54283  0.39097  1.0000 0.2216938209
C   C65       1.0  0.05670  0.74300  0.33610  1.0000 0.11943729
C   C66       1.0  0.40690  0.72060  0.66390  1.0000 0.11943729
C   C67       1.0  0.97060  0.80670  0.81370  1.0000 0.11943729
C   C68       1.0  0.99300  0.15690  0.18630  1.0000 0.11943729
C   C69       1.0  0.19330  0.00700  0.16390  1.0000 0.11943729
C   C70       1.0  0.84310  0.02940  0.83610  1.0000 0.11943729
C   C71       1.0  0.27940  0.94330  0.68630  1.0000 0.11943729
C   C72       1.0  0.25700  0.59310  0.31370  1.0000 0.11943729
N   N1        1.0  0.07933  0.36394  0.05047  1.0000 -0.2292404784
N   N2        1.0  0.31347  0.02886  0.94953  1.0000 -0.2292404784
N   N3        1.0  0.27886  0.82933  0.21539  1.0000 -0.2292404784
N   N4        1.0  0.61394  0.06347  0.78461  1.0000 -0.2292404784
N   N5        1.0  0.17067  0.38606  0.44953  1.0000 -0.2292404784
N   N6        1.0  0.93653  0.72114  0.55047  1.0000 -0.2292404784
N   N7        1.0  0.97114  0.92067  0.28461  1.0000 -0.2292404784
N   N8        1.0  0.63606  0.68653  0.71539  1.0000 -0.2292404784
N   N9        1.0  0.06135  0.52174  0.11877  1.0000 -0.3846657354
N   N10       1.0  0.40297  0.94258  0.88123  1.0000 -0.3853738386
N   N11       1.0  0.19258  0.81135  0.03961  1.0000 -0.3853738386
N   N12       1.0  0.77174  0.15297  0.96039  1.0000 -0.3846657354
N   N13       1.0  0.18865  0.22826  0.38123  1.0000 -0.3853738386
N   N14       1.0  0.84703  0.80742  0.61877  1.0000 -0.3846657354
N   N15       1.0  0.05742  0.93865  0.46039  1.0000 -0.3846657354
N   N16       1.0  0.47826  0.59703  0.53961  1.0000 -0.3846657354
N   N17       1.0  0.09390  0.56938  0.01648  1.0000 -0.2134801585
N   N18       1.0  0.55290  0.07742  0.98352  1.0000 -0.2202986408
N   N19       1.0  0.32742  0.84390  0.02452  1.0000 -0.2134801585
N   N20       1.0  0.81938  0.30290  0.97548  1.0000 -0.2134801585
N   N21       1.0  0.15610  0.18062  0.48352  1.0000 -0.2134801585
N   N22       1.0  0.69710  0.67258  0.51648  1.0000 -0.199530909
N   N23       1.0  0.92258  0.90610  0.47548  1.0000 -0.199530909
N   N24       1.0  0.43062  0.44710  0.52452  1.0000 -0.2134801585
N   N25       1.0  0.08623  0.63866  0.07723  1.0000 -0.2292404784
N   N26       1.0  0.56143  0.00900  0.92277  1.0000 -0.2292404784
N   N27       1.0  0.25900  0.83623  0.94757  1.0000 -0.2292404784
N   N28       1.0  0.88866  0.31143  0.05243  1.0000 -0.2202986408
N   N29       1.0  0.16377  0.11134  0.42277  1.0000 -0.2292404784
N   N30       1.0  0.68857  0.74100  0.57723  1.0000 -0.2292404784
N   N31       1.0  0.99100  0.91377  0.55243  1.0000 -0.2292404784
N   N32       1.0  0.36134  0.43857  0.44757  1.0000 -0.2292404784
N   N33       1.0  0.04489  0.65671  0.28182  1.0000 -0.3692059148
N   N34       1.0  0.37489  0.76307  0.71818  1.0000 -0.3692059148
N   N35       1.0  0.01307  0.79489  0.88818  1.0000 -0.3692059148
N   N36       1.0  0.90671  0.12489  0.11182  1.0000 -0.3692059148
N   N37       1.0  0.20511  0.09329  0.21818  1.0000 -0.3692059148
N   N38       1.0  0.87511  0.98693  0.78182  1.0000 -0.3692059148
N   N39       1.0  0.23693  0.95511  0.61182  1.0000 -0.3692059148
N   N40       1.0  0.34329  0.62511  0.38818  1.0000 -0.3692059148
N   N41       1.0  0.08625  0.76133  0.22772  1.0000 -0.2292404784
N   N42       1.0  0.53361  0.85853  0.77228  1.0000 -0.2292404784
N   N43       1.0  0.10853  0.83625  0.82492  1.0000 -0.2292404784
N   N44       1.0  0.01133  0.28361  0.17508  1.0000 -0.2292404784
N   N45       1.0  0.16375  0.98867  0.27228  1.0000 -0.2292404784
N   N46       1.0  0.71639  0.89147  0.72772  1.0000 -0.2292404784
N   N47       1.0  0.14147  0.91375  0.67508  1.0000 -0.2292404784
N   N48       1.0  0.23867  0.46639  0.32492  1.0000 -0.2292404784
N   N49       1.0  0.08235  0.80823  0.30784  1.0000 -0.199530909
N   N50       1.0  0.50039  0.77451  0.69216  1.0000 -0.199530909
N   N51       1.0  0.02451  0.83235  0.77412  1.0000 -0.199530909
N   N52       1.0  0.05823  0.25039  0.22588  1.0000 -0.199530909
N   N53       1.0  0.16765  0.94177  0.19216  1.0000 -0.199530909
N   N54       1.0  0.74961  0.97549  0.80784  1.0000 -0.199530909
N   N55       1.0  0.22549  0.91765  0.72588  1.0000 -0.199530909
N   N56       1.0  0.19177  0.49961  0.27412  1.0000 -0.199530909
O   O1        1.0  0.00039  0.47795  0.26580  1.0000 -0.6282359589
O   O2        1.0  0.21215  0.73459  0.73420  1.0000 -0.6282359589
O   O3        1.0  0.98459  0.75039  0.02244  1.0000 -0.6282359589
O   O4        1.0  0.72795  0.96215  0.97756  1.0000 -0.6282359589
O   O5        1.0  0.24961  0.27205  0.23420  1.0000 -0.6282359589
O   O6        1.0  0.03785  0.01541  0.76580  1.0000 -0.6282359589
O   O7        1.0  0.26541  0.99961  0.47756  1.0000 -0.6282359589
O   O8        1.0  0.52205  0.78785  0.52244  1.0000 -0.6282359589
