# DDEC6 charges by PACMAN v1.1 (https://github.com/mtap-research/PACMAN-charge/)
data_2015[Zn][pcu]3[FSR]12
_chemical_formula_sum              "Zn2 H24 C24 N48"
_cell_length_a       8.186
_cell_length_b       20.16
_cell_length_c       12.0204
_cell_angle_alpha    90
_cell_angle_beta     131.874
_cell_angle_gamma    90

_symmetry_space_group_name_H-M    "P 1"
_symmetry_Int_Tables_number       1

loop_
  _symmetry_equiv_pos_as_xyz
  'x, y, z'

loop_
  _atom_site_type_symbol
  _atom_site_label
  _atom_site_symmetry_multiplicity
  _atom_site_fract_x
  _atom_site_fract_y
  _atom_site_fract_z
  _atom_site_occupancy
  _atom_site_charge
Zn  Zn1       1.0  0.50000  0.00000  0.00000  1.0000 0.5387499848
Zn  Zn2       1.0  0.50000  0.50000  0.50000  1.0000 0.5387499848
H   H1        1.0  0.68990  0.13320  0.20300  1.0000 0.1201503358
H   H2        1.0  0.31010  0.63320  0.29700  1.0000 0.1201503358
H   H3        1.0  0.31010  0.86680  0.79700  1.0000 0.1201503358
H   H4        1.0  0.68990  0.36680  0.70300  1.0000 0.1201503358
H   H5        1.0  0.13480  0.14820  0.16850  1.0000 0.113311998
H   H6        1.0  0.86520  0.64820  0.33150  1.0000 0.113311998
H   H7        1.0  0.86520  0.85180  0.83150  1.0000 0.113311998
H   H8        1.0  0.13480  0.35180  0.66850  1.0000 0.113311998
H   H9        1.0  0.35730  0.35690  0.32870  1.0000 0.1201503358
H   H10       1.0  0.64270  0.85690  0.17130  1.0000 0.1201503358
H   H11       1.0  0.64270  0.64310  0.67130  1.0000 0.1201503358
H   H12       1.0  0.35730  0.14310  0.82870  1.0000 0.1201503358
H   H13       1.0  0.93020  0.33360  0.37630  1.0000 0.113311998
H   H14       1.0  0.06980  0.83360  0.12370  1.0000 0.113311998
H   H15       1.0  0.06980  0.66640  0.62370  1.0000 0.113311998
H   H16       1.0  0.93020  0.16640  0.87630  1.0000 0.113311998
H   H17       1.0  0.24940  0.99840  0.14600  1.0000 0.1201503358
H   H18       1.0  0.75060  0.49840  0.35400  1.0000 0.1201503358
H   H19       1.0  0.75060  0.00160  0.85400  1.0000 0.1201503358
H   H20       1.0  0.24940  0.50160  0.64600  1.0000 0.1201503358
H   H21       1.0  0.85660  0.99810  0.53740  1.0000 0.113311998
H   H22       1.0  0.14340  0.49810  0.96260  1.0000 0.113311998
H   H23       1.0  0.14340  0.00190  0.46260  1.0000 0.113311998
H   H24       1.0  0.85660  0.50190  0.03740  1.0000 0.113311998
C   C1        1.0  0.77680  0.12419  0.18070  1.0000 0.0391732281
C   C2        1.0  0.22320  0.62419  0.31930  1.0000 0.0391732281
C   C3        1.0  0.22320  0.87581  0.81930  1.0000 0.0391732281
C   C4        1.0  0.77680  0.37581  0.68070  1.0000 0.0391732281
C   C5        1.0  0.02200  0.13204  0.16170  1.0000 0.0081385978
C   C6        1.0  0.97800  0.63204  0.33830  1.0000 0.0081385978
C   C7        1.0  0.97800  0.86796  0.83830  1.0000 0.0081385978
C   C8        1.0  0.02200  0.36796  0.66170  1.0000 0.0081385978
C   C9        1.0  0.27150  0.36429  0.35240  1.0000 0.0339884082
C   C10       1.0  0.72850  0.86429  0.14760  1.0000 0.0339884082
C   C11       1.0  0.72850  0.63571  0.64760  1.0000 0.0339884082
C   C12       1.0  0.27150  0.13571  0.85240  1.0000 0.0339884082
C   C13       1.0  0.03640  0.35184  0.37820  1.0000 -0.0044444183
C   C14       1.0  0.96360  0.85184  0.12180  1.0000 -0.0044444183
C   C15       1.0  0.96360  0.64816  0.62180  1.0000 -0.0044444183
C   C16       1.0  0.03640  0.14816  0.87820  1.0000 -0.0044444183
C   C17       1.0  0.40180  0.99799  0.21940  1.0000 0.0580388768
C   C18       1.0  0.59820  0.49799  0.28060  1.0000 0.0580388768
C   C19       1.0  0.59820  0.00201  0.78060  1.0000 0.0580388768
C   C20       1.0  0.40180  0.50201  0.71940  1.0000 0.0580388768
C   C21       1.0  0.73730  0.99785  0.43500  1.0000 0.0458607035
C   C22       1.0  0.26270  0.49785  0.06500  1.0000 0.0458607035
C   C23       1.0  0.26270  0.00215  0.56500  1.0000 0.0458607035
C   C24       1.0  0.73730  0.50215  0.93500  1.0000 0.0458607035
N   N1        1.0  0.76020  0.07245  0.11040  1.0000 -0.1723685494
N   N2        1.0  0.23980  0.57245  0.38960  1.0000 -0.1723685494
N   N3        1.0  0.23980  0.92755  0.88960  1.0000 -0.1723685494
N   N4        1.0  0.76020  0.42755  0.61040  1.0000 -0.1723685494
N   N5        1.0  0.91840  0.07666  0.09870  1.0000 -0.2059548577
N   N6        1.0  0.08160  0.57666  0.40130  1.0000 -0.2059548577
N   N7        1.0  0.08160  0.92334  0.90130  1.0000 -0.2059548577
N   N8        1.0  0.91840  0.42334  0.59870  1.0000 -0.2059548577
N   N9        1.0  0.94000  0.16316  0.21650  1.0000 0.0716653349
N   N10       1.0  0.06000  0.66316  0.28350  1.0000 0.0716653349
N   N11       1.0  0.06000  0.83684  0.78350  1.0000 0.0716653349
N   N12       1.0  0.94000  0.33684  0.71650  1.0000 0.0716653349
N   N13       1.0  0.97400  0.22612  0.27660  1.0000 -0.0713334139
N   N14       1.0  0.02600  0.72612  0.22340  1.0000 -0.0713334139
N   N15       1.0  0.02600  0.77388  0.72340  1.0000 -0.063386786
N   N16       1.0  0.97400  0.27388  0.77660  1.0000 -0.063386786
N   N17       1.0  0.10160  0.25718  0.27530  1.0000 -0.063386786
N   N18       1.0  0.89840  0.75718  0.22470  1.0000 -0.063386786
N   N19       1.0  0.89840  0.74282  0.72470  1.0000 -0.063386786
N   N20       1.0  0.10160  0.24282  0.77530  1.0000 -0.063386786
N   N21       1.0  0.13080  0.32031  0.33300  1.0000 0.0716653349
N   N22       1.0  0.86920  0.82031  0.16700  1.0000 0.0716653349
N   N23       1.0  0.86920  0.67969  0.66700  1.0000 0.0716653349
N   N24       1.0  0.13080  0.17969  0.83300  1.0000 0.0716653349
N   N25       1.0  0.26930  0.41846  0.40890  1.0000 -0.1645327142
N   N26       1.0  0.73070  0.91846  0.09110  1.0000 -0.1645327142
N   N27       1.0  0.73070  0.58154  0.59110  1.0000 -0.1645327142
N   N28       1.0  0.26930  0.08154  0.90890  1.0000 -0.1645327142
N   N29       1.0  0.11740  0.41152  0.42460  1.0000 -0.2059548577
N   N30       1.0  0.88260  0.91152  0.07540  1.0000 -0.2059548577
N   N31       1.0  0.88260  0.58848  0.57540  1.0000 -0.2059548577
N   N32       1.0  0.11740  0.08848  0.92460  1.0000 -0.2059548577
N   N33       1.0  0.53550  0.99677  0.19560  1.0000 -0.1819398483
N   N34       1.0  0.46450  0.49677  0.30440  1.0000 -0.1819398483
N   N35       1.0  0.46450  0.00323  0.80440  1.0000 -0.1819398483
N   N36       1.0  0.53550  0.50323  0.69560  1.0000 -0.1819398483
N   N37       1.0  0.75010  0.99665  0.33360  1.0000 -0.2190558096
N   N38       1.0  0.24990  0.49665  0.16640  1.0000 -0.2190558096
N   N39       1.0  0.24990  0.00335  0.66640  1.0000 -0.2190558096
N   N40       1.0  0.75010  0.50335  0.83360  1.0000 -0.2190558096
N   N41       1.0  0.52200  0.99861  0.36920  1.0000 0.0580388768
N   N42       1.0  0.47800  0.49861  0.13080  1.0000 0.0580388768
N   N43       1.0  0.47800  0.00139  0.63080  1.0000 0.0580388768
N   N44       1.0  0.52200  0.50139  0.86920  1.0000 0.0580388768
N   N45       1.0  0.42730  0.00008  0.43060  1.0000 -0.0713334139
N   N46       1.0  0.57270  0.50008  0.06940  1.0000 -0.0713334139
N   N47       1.0  0.57270  0.99992  0.56940  1.0000 -0.0713334139
N   N48       1.0  0.42730  0.49992  0.93060  1.0000 -0.0713334139
