# DDEC6 charges by PACMAN v1.1 (https://github.com/mtap-research/PACMAN-charge/)
data_2015[Cd][nan]3[FSR]5
_chemical_formula_sum              "Cd6 H30 C24 N54"
_cell_length_a       12.6226
_cell_length_b       12.6226
_cell_length_c       12.6226
_cell_angle_alpha    111.116
_cell_angle_beta     111.116
_cell_angle_gamma    111.116

_symmetry_space_group_name_H-M    "P 1"
_symmetry_Int_Tables_number       1

loop_
  _symmetry_equiv_pos_as_xyz
  'x, y, z'

loop_
  _atom_site_type_symbol
  _atom_site_label
  _atom_site_symmetry_multiplicity
  _atom_site_fract_x
  _atom_site_fract_y
  _atom_site_fract_z
  _atom_site_occupancy
  _atom_site_charge
Cd  Cd1       1.0  0.82340  0.76487  0.31846  1.0000 0.6851057076
Cd  Cd2       1.0  0.76487  0.31846  0.82340  1.0000 0.6851057076
Cd  Cd3       1.0  0.31846  0.82340  0.76487  1.0000 0.6851057076
Cd  Cd4       1.0  0.17660  0.23513  0.68154  1.0000 0.6851057076
Cd  Cd5       1.0  0.23513  0.68154  0.17660  1.0000 0.6851057076
Cd  Cd6       1.0  0.68154  0.17660  0.23513  1.0000 0.6851057076
H   H1        1.0  0.92930  0.37080  0.13490  1.0000 0.1211608487
H   H2        1.0  0.37080  0.13490  0.92930  1.0000 0.1211608487
H   H3        1.0  0.13490  0.92930  0.37080  1.0000 0.1211608487
H   H4        1.0  0.07070  0.62920  0.86510  1.0000 0.1211608487
H   H5        1.0  0.62920  0.86510  0.07070  1.0000 0.1211608487
H   H6        1.0  0.86510  0.07070  0.62920  1.0000 0.1211608487
H   H7        1.0  0.93420  0.25450  0.15030  1.0000 0.1379874014
H   H8        1.0  0.25450  0.15030  0.93420  1.0000 0.1379874014
H   H9        1.0  0.15030  0.93420  0.25450  1.0000 0.1379874014
H   H10       1.0  0.06580  0.74550  0.84970  1.0000 0.1379874014
H   H11       1.0  0.74550  0.84970  0.06580  1.0000 0.1379874014
H   H12       1.0  0.84970  0.06580  0.74550  1.0000 0.1379874014
H   H13       1.0  0.95160  0.54440  0.41030  1.0000 0.1211608487
H   H14       1.0  0.54440  0.41030  0.95160  1.0000 0.1211608487
H   H15       1.0  0.41030  0.95160  0.54440  1.0000 0.1211608487
H   H16       1.0  0.04840  0.45560  0.58970  1.0000 0.1211608487
H   H17       1.0  0.45560  0.58970  0.04840  1.0000 0.1211608487
H   H18       1.0  0.58970  0.04840  0.45560  1.0000 0.1211608487
H   H19       1.0  0.92850  0.52560  0.27250  1.0000 0.1211608487
H   H20       1.0  0.52560  0.27250  0.92850  1.0000 0.1211608487
H   H21       1.0  0.27250  0.92850  0.52560  1.0000 0.1211608487
H   H22       1.0  0.07150  0.47440  0.72750  1.0000 0.1211608487
H   H23       1.0  0.47440  0.72750  0.07150  1.0000 0.1211608487
H   H24       1.0  0.72750  0.07150  0.47440  1.0000 0.1211608487
H   H25       1.0  0.96400  0.37410  0.33900  1.0000 0.2420375907
H   H26       1.0  0.37410  0.33900  0.96400  1.0000 0.2420375907
H   H27       1.0  0.33900  0.96400  0.37410  1.0000 0.2420375907
H   H28       1.0  0.03600  0.62590  0.66100  1.0000 0.2420375907
H   H29       1.0  0.62590  0.66100  0.03600  1.0000 0.2420375907
H   H30       1.0  0.66100  0.03600  0.62590  1.0000 0.2420375907
C   C1        1.0  0.88380  0.29700  0.14350  1.0000 -0.1737006343
C   C2        1.0  0.29700  0.14350  0.88380  1.0000 -0.1737006343
C   C3        1.0  0.14350  0.88380  0.29700  1.0000 -0.1737006343
C   C4        1.0  0.11620  0.70300  0.85650  1.0000 -0.1737006343
C   C5        1.0  0.70300  0.85650  0.11620  1.0000 -0.1737006343
C   C6        1.0  0.85650  0.11620  0.70300  1.0000 -0.1737006343
C   C7        1.0  0.89100  0.48160  0.31110  1.0000 -0.1821727193
C   C8        1.0  0.48160  0.31110  0.89100  1.0000 -0.1821727193
C   C9        1.0  0.31110  0.89100  0.48160  1.0000 -0.1821727193
C   C10       1.0  0.10900  0.51840  0.68890  1.0000 -0.1821727193
C   C11       1.0  0.51840  0.68890  0.10900  1.0000 -0.1821727193
C   C12       1.0  0.68890  0.10900  0.51840  1.0000 -0.1821727193
C   C13       1.0  0.73995  0.19210  0.01695  1.0000 0.2840383016
C   C14       1.0  0.19210  0.01695  0.73995  1.0000 0.2840383016
C   C15       1.0  0.01695  0.73995  0.19210  1.0000 0.2840383016
C   C16       1.0  0.26005  0.80790  0.98305  1.0000 0.2840383016
C   C17       1.0  0.80790  0.98305  0.26005  1.0000 0.2840383016
C   C18       1.0  0.98305  0.26005  0.80790  1.0000 0.2840383016
C   C19       1.0  0.75207  0.45499  0.26484  1.0000 0.2861971819
C   C20       1.0  0.45499  0.26484  0.75207  1.0000 0.2861971819
C   C21       1.0  0.26484  0.75207  0.45499  1.0000 0.2861971819
C   C22       1.0  0.24793  0.54501  0.73516  1.0000 0.2861971819
C   C23       1.0  0.54501  0.73516  0.24793  1.0000 0.2861971819
C   C24       1.0  0.73516  0.24793  0.54501  1.0000 0.2861971819
N   N1        1.0  0.88733  0.35486  0.26961  1.0000 -0.2629738387
N   N2        1.0  0.35486  0.26961  0.88733  1.0000 -0.2629738387
N   N3        1.0  0.26961  0.88733  0.35486  1.0000 -0.2629738387
N   N4        1.0  0.11267  0.64514  0.73039  1.0000 -0.2629738387
N   N5        1.0  0.64514  0.73039  0.11267  1.0000 -0.2629738387
N   N6        1.0  0.73039  0.11267  0.64514  1.0000 -0.2629738387
N   N7        1.0  0.69547  0.17901  0.89812  1.0000 -0.2629738387
N   N8        1.0  0.17901  0.89812  0.69547  1.0000 -0.2629738387
N   N9        1.0  0.89812  0.69547  0.17901  1.0000 -0.2629738387
N   N10       1.0  0.30453  0.82099  0.10188  1.0000 -0.2629738387
N   N11       1.0  0.82099  0.10188  0.30453  1.0000 -0.2629738387
N   N12       1.0  0.10188  0.30453  0.82099  1.0000 -0.2629738387
N   N13       1.0  0.56538  0.06715  0.81037  1.0000 -0.0993875252
N   N14       1.0  0.06715  0.81037  0.56538  1.0000 -0.0993875252
N   N15       1.0  0.81037  0.56538  0.06715  1.0000 -0.0993875252
N   N16       1.0  0.43462  0.93285  0.18963  1.0000 -0.0993875252
N   N17       1.0  0.93285  0.18963  0.43462  1.0000 -0.0993875252
N   N18       1.0  0.18963  0.43462  0.93285  1.0000 -0.0993875252
N   N19       1.0  0.53434  0.01860  0.87766  1.0000 -0.0478089935
N   N20       1.0  0.01860  0.87766  0.53434  1.0000 -0.0478089935
N   N21       1.0  0.87766  0.53434  0.01860  1.0000 -0.0478089935
N   N22       1.0  0.46566  0.98140  0.12234  1.0000 -0.0478089935
N   N23       1.0  0.98140  0.12234  0.46566  1.0000 -0.0478089935
N   N24       1.0  0.12234  0.46566  0.98140  1.0000 -0.0478089935
N   N25       1.0  0.64314  0.09508  0.00978  1.0000 -0.2696517627
N   N26       1.0  0.09508  0.00978  0.64314  1.0000 -0.2696517627
N   N27       1.0  0.00978  0.64314  0.09508  1.0000 -0.2696517627
N   N28       1.0  0.35686  0.90492  0.99022  1.0000 -0.2696517627
N   N29       1.0  0.90492  0.99022  0.35686  1.0000 -0.2696517627
N   N30       1.0  0.99022  0.35686  0.90492  1.0000 -0.2696517627
N   N31       1.0  0.64416  0.33681  0.22003  1.0000 -0.2696517627
N   N32       1.0  0.33681  0.22003  0.64416  1.0000 -0.2696517627
N   N33       1.0  0.22003  0.64416  0.33681  1.0000 -0.2696517627
N   N34       1.0  0.35584  0.66319  0.77997  1.0000 -0.2696517627
N   N35       1.0  0.66319  0.77997  0.35584  1.0000 -0.2696517627
N   N36       1.0  0.77997  0.35584  0.66319  1.0000 -0.2696517627
N   N37       1.0  0.54039  0.35411  0.19520  1.0000 -0.0675334594
N   N38       1.0  0.35411  0.19520  0.54039  1.0000 -0.0675334594
N   N39       1.0  0.19520  0.54039  0.35411  1.0000 -0.0675334594
N   N40       1.0  0.45961  0.64589  0.80480  1.0000 -0.0675334594
N   N41       1.0  0.64589  0.80480  0.45961  1.0000 -0.0675334594
N   N42       1.0  0.80480  0.45961  0.64589  1.0000 -0.0675334594
N   N43       1.0  0.58396  0.47761  0.22313  1.0000 -0.093342432
N   N44       1.0  0.47761  0.22313  0.58396  1.0000 -0.093342432
N   N45       1.0  0.22313  0.58396  0.47761  1.0000 -0.093342432
N   N46       1.0  0.41604  0.52239  0.77687  1.0000 -0.093342432
N   N47       1.0  0.52239  0.77687  0.41604  1.0000 -0.093342432
N   N48       1.0  0.77687  0.41604  0.52239  1.0000 -0.093342432
N   N49       1.0  0.71861  0.54426  0.26783  1.0000 -0.2696517627
N   N50       1.0  0.54426  0.26783  0.71861  1.0000 -0.2696517627
N   N51       1.0  0.26783  0.71861  0.54426  1.0000 -0.2696517627
N   N52       1.0  0.28139  0.45574  0.73217  1.0000 -0.2696517627
N   N53       1.0  0.45574  0.73217  0.28139  1.0000 -0.2696517627
N   N54       1.0  0.73217  0.28139  0.45574  1.0000 -0.2696517627
