# DDEC6 charges by PACMAN v1.1 (https://github.com/mtap-research/PACMAN-charge/)
data_2016[CuSi][pcu]3[FSR]1
_chemical_formula_sum              "Cu2 Si2 H32 C40 N8 F12"
_cell_length_a       11.1037
_cell_length_b       11.1037
_cell_length_c       15.9395
_cell_angle_alpha    90
_cell_angle_beta     90
_cell_angle_gamma    90

_symmetry_space_group_name_H-M    "P 1"
_symmetry_Int_Tables_number       1

loop_
  _symmetry_equiv_pos_as_xyz
  'x, y, z'

loop_
  _atom_site_type_symbol
  _atom_site_label
  _atom_site_symmetry_multiplicity
  _atom_site_fract_x
  _atom_site_fract_y
  _atom_site_fract_z
  _atom_site_occupancy
  _atom_site_charge
Cu  Cu1       1.0  0.00000  0.00000  0.25000  1.0000 0.702345504
Cu  Cu2       1.0  0.00000  0.00000  0.75000  1.0000 0.702345504
Si  Si1       1.0  0.00000  0.00000  0.50000  1.0000 1.7335155742
Si  Si2       1.0  0.00000  0.00000  0.00000  1.0000 1.7359103696
H   H1        1.0  0.93680  0.19150  0.36990  1.0000 0.1137108492
H   H2        1.0  0.80850  0.93680  0.36990  1.0000 0.1137108492
H   H3        1.0  0.06320  0.80850  0.36990  1.0000 0.1137108492
H   H4        1.0  0.19150  0.06320  0.36990  1.0000 0.1137108492
H   H5        1.0  0.93680  0.80850  0.13010  1.0000 0.1137108492
H   H6        1.0  0.19150  0.93680  0.13010  1.0000 0.1137108492
H   H7        1.0  0.06320  0.19150  0.13010  1.0000 0.1137108492
H   H8        1.0  0.80850  0.06320  0.13010  1.0000 0.1137108492
H   H9        1.0  0.06320  0.80850  0.63010  1.0000 0.1137108492
H   H10       1.0  0.19150  0.06320  0.63010  1.0000 0.1137108492
H   H11       1.0  0.93680  0.19150  0.63010  1.0000 0.1137108492
H   H12       1.0  0.80850  0.93680  0.63010  1.0000 0.1137108492
H   H13       1.0  0.06320  0.19150  0.86990  1.0000 0.1137108492
H   H14       1.0  0.80850  0.06320  0.86990  1.0000 0.1137108492
H   H15       1.0  0.93680  0.80850  0.86990  1.0000 0.1137108492
H   H16       1.0  0.19150  0.93680  0.86990  1.0000 0.1137108492
H   H17       1.0  0.93120  0.41430  0.37710  1.0000 0.1250968711
H   H18       1.0  0.58570  0.93120  0.37710  1.0000 0.1250968711
H   H19       1.0  0.06880  0.58570  0.37710  1.0000 0.1250968711
H   H20       1.0  0.41430  0.06880  0.37710  1.0000 0.1250968711
H   H21       1.0  0.93120  0.58570  0.12290  1.0000 0.1250968711
H   H22       1.0  0.41430  0.93120  0.12290  1.0000 0.1250968711
H   H23       1.0  0.06880  0.41430  0.12290  1.0000 0.1250968711
H   H24       1.0  0.58570  0.06880  0.12290  1.0000 0.1250968711
H   H25       1.0  0.06880  0.58570  0.62290  1.0000 0.1250968711
H   H26       1.0  0.41430  0.06880  0.62290  1.0000 0.1250968711
H   H27       1.0  0.93120  0.41430  0.62290  1.0000 0.1250968711
H   H28       1.0  0.58570  0.93120  0.62290  1.0000 0.1250968711
H   H29       1.0  0.06880  0.41430  0.87710  1.0000 0.1250968711
H   H30       1.0  0.58570  0.06880  0.87710  1.0000 0.1250968711
H   H31       1.0  0.93120  0.58570  0.87710  1.0000 0.1250968711
H   H32       1.0  0.41430  0.93120  0.87710  1.0000 0.1250968711
C   C1        1.0  0.96360  0.24630  0.31708  1.0000 0.1036520144
C   C2        1.0  0.75370  0.96360  0.31708  1.0000 0.1036520144
C   C3        1.0  0.03640  0.75370  0.31708  1.0000 0.1036520144
C   C4        1.0  0.24630  0.03640  0.31708  1.0000 0.1036520144
C   C5        1.0  0.96360  0.75370  0.18292  1.0000 0.1036520144
C   C6        1.0  0.24630  0.96360  0.18292  1.0000 0.1036520144
C   C7        1.0  0.03640  0.24630  0.18292  1.0000 0.1036520144
C   C8        1.0  0.75370  0.03640  0.18292  1.0000 0.1036520144
C   C9        1.0  0.03640  0.75370  0.68292  1.0000 0.1036520144
C   C10       1.0  0.24630  0.03640  0.68292  1.0000 0.1036520144
C   C11       1.0  0.96360  0.24630  0.68292  1.0000 0.1036520144
C   C12       1.0  0.75370  0.96360  0.68292  1.0000 0.1036520144
C   C13       1.0  0.03640  0.24630  0.81708  1.0000 0.1036520144
C   C14       1.0  0.75370  0.03640  0.81708  1.0000 0.1036520144
C   C15       1.0  0.96360  0.75370  0.81708  1.0000 0.1036520144
C   C16       1.0  0.24630  0.96360  0.81708  1.0000 0.1036520144
C   C17       1.0  0.96450  0.37130  0.32101  1.0000 -0.1677992841
C   C18       1.0  0.62870  0.96450  0.32101  1.0000 -0.1677992841
C   C19       1.0  0.03550  0.62870  0.32101  1.0000 -0.1677992841
C   C20       1.0  0.37130  0.03550  0.32101  1.0000 -0.1677992841
C   C21       1.0  0.96450  0.62870  0.17899  1.0000 -0.1677992841
C   C22       1.0  0.37130  0.96450  0.17899  1.0000 -0.1677992841
C   C23       1.0  0.03550  0.37130  0.17899  1.0000 -0.1677992841
C   C24       1.0  0.62870  0.03550  0.17899  1.0000 -0.1677992841
C   C25       1.0  0.03550  0.62870  0.67899  1.0000 -0.1677992841
C   C26       1.0  0.37130  0.03550  0.67899  1.0000 -0.1677992841
C   C27       1.0  0.96450  0.37130  0.67899  1.0000 -0.1677992841
C   C28       1.0  0.62870  0.96450  0.67899  1.0000 -0.1677992841
C   C29       1.0  0.03550  0.37130  0.82101  1.0000 -0.1677992841
C   C30       1.0  0.62870  0.03550  0.82101  1.0000 -0.1677992841
C   C31       1.0  0.96450  0.62870  0.82101  1.0000 -0.1677992841
C   C32       1.0  0.37130  0.96450  0.82101  1.0000 -0.1677992841
C   C33       1.0  0.00000  0.43390  0.25000  1.0000 0.0926996531
C   C34       1.0  0.56610  0.00000  0.25000  1.0000 0.0926996531
C   C35       1.0  0.00000  0.56610  0.25000  1.0000 0.0926996531
C   C36       1.0  0.43390  0.00000  0.25000  1.0000 0.0926996531
C   C37       1.0  0.00000  0.56610  0.75000  1.0000 0.0926996531
C   C38       1.0  0.43390  0.00000  0.75000  1.0000 0.0926996531
C   C39       1.0  0.00000  0.43390  0.75000  1.0000 0.0926996531
C   C40       1.0  0.56610  0.00000  0.75000  1.0000 0.0926996531
N   N1        1.0  0.00000  0.18210  0.25000  1.0000 -0.2233254029
N   N2        1.0  0.81790  0.00000  0.25000  1.0000 -0.2233254029
N   N3        1.0  0.00000  0.81790  0.25000  1.0000 -0.2233254029
N   N4        1.0  0.18210  0.00000  0.25000  1.0000 -0.2233254029
N   N5        1.0  0.00000  0.81790  0.75000  1.0000 -0.2233254029
N   N6        1.0  0.18210  0.00000  0.75000  1.0000 -0.2233254029
N   N7        1.0  0.00000  0.18210  0.75000  1.0000 -0.2233254029
N   N8        1.0  0.81790  0.00000  0.75000  1.0000 -0.2233254029
F   F1        1.0  0.10910  0.10600  0.50000  1.0000 -0.5582318915
F   F2        1.0  0.89400  0.10910  0.50000  1.0000 -0.5582318915
F   F3        1.0  0.89090  0.89400  0.50000  1.0000 -0.5582318915
F   F4        1.0  0.10600  0.89090  0.50000  1.0000 -0.5582318915
F   F5        1.0  0.10910  0.89400  0.00000  1.0000 -0.5582318915
F   F6        1.0  0.10600  0.10910  0.00000  1.0000 -0.5582318915
F   F7        1.0  0.89090  0.10600  0.00000  1.0000 -0.5582318915
F   F8        1.0  0.89400  0.89090  0.00000  1.0000 -0.5582318915
F   F9        1.0  0.00000  0.00000  0.39170  1.0000 -0.5394557579
F   F10       1.0  0.00000  0.00000  0.10830  1.0000 -0.5394557579
F   F11       1.0  0.00000  0.00000  0.60830  1.0000 -0.5394557579
F   F12       1.0  0.00000  0.00000  0.89170  1.0000 -0.5394557579
