# DDEC6 charges by PACMAN v1.1 (https://github.com/mtap-research/PACMAN-charge/)
data_2016[Ag][lvt]3[FSR]1
_chemical_formula_sum              "Ag8 H96 C136 N56 O16"
_cell_length_a       22.3275
_cell_length_b       22.3275
_cell_length_c       22.3275
_cell_angle_alpha    91.8394
_cell_angle_beta     91.8394
_cell_angle_gamma    159.359

_symmetry_space_group_name_H-M    "P 1"
_symmetry_Int_Tables_number       1

loop_
  _symmetry_equiv_pos_as_xyz
  'x, y, z'

loop_
  _atom_site_type_symbol
  _atom_site_label
  _atom_site_symmetry_multiplicity
  _atom_site_fract_x
  _atom_site_fract_y
  _atom_site_fract_z
  _atom_site_occupancy
  _atom_site_charge
Ag  Ag1       1.0  0.90061  0.26993  0.74192  1.0000 0.2486104239
Ag  Ag2       1.0  0.52801  0.15869  0.25808  1.0000 0.2486104239
Ag  Ag3       1.0  0.40869  0.65061  0.13068  1.0000 0.2486104239
Ag  Ag4       1.0  0.51993  0.27801  0.86932  1.0000 0.2486104239
Ag  Ag5       1.0  0.34939  0.48007  0.75808  1.0000 0.2486104239
Ag  Ag6       1.0  0.72199  0.59131  0.24192  1.0000 0.2486104239
Ag  Ag7       1.0  0.84131  0.09939  0.36932  1.0000 0.2486104239
Ag  Ag8       1.0  0.73007  0.47199  0.63068  1.0000 0.2486104239
H   H1        1.0  0.71940  0.24890  0.71150  1.0000 0.1409391803
H   H2        1.0  0.53740  0.00790  0.28850  1.0000 0.1409391803
H   H3        1.0  0.25790  0.46940  0.97050  1.0000 0.1409391803
H   H4        1.0  0.49890  0.28740  0.02950  1.0000 0.1409391803
H   H5        1.0  0.53060  0.50110  0.78850  1.0000 0.1409391803
H   H6        1.0  0.71260  0.74210  0.21150  1.0000 0.1409391803
H   H7        1.0  0.99210  0.28060  0.52950  1.0000 0.1409391803
H   H8        1.0  0.75110  0.46260  0.47050  1.0000 0.1409391803
H   H9        1.0  0.79060  0.41510  0.70870  1.0000 0.1007856038
H   H10       1.0  0.70640  0.08190  0.29130  1.0000 0.1007856038
H   H11       1.0  0.33190  0.54060  0.87550  1.0000 0.1007856038
H   H12       1.0  0.66510  0.45640  0.12450  1.0000 0.1007856038
H   H13       1.0  0.45940  0.33490  0.79130  1.0000 0.1007856038
H   H14       1.0  0.54360  0.66810  0.20870  1.0000 0.1007856038
H   H15       1.0  0.91810  0.20940  0.62450  1.0000 0.1007856038
H   H16       1.0  0.58490  0.29360  0.37550  1.0000 0.1007856038
H   H17       1.0  0.54360  0.19260  0.54220  1.0000 0.1067838092
H   H18       1.0  0.65040  0.00140  0.45780  1.0000 0.1067838092
H   H19       1.0  0.25140  0.29360  0.85100  1.0000 0.1067838092
H   H20       1.0  0.44260  0.40040  0.14900  1.0000 0.1067838092
H   H21       1.0  0.70640  0.55740  0.95780  1.0000 0.1067838092
H   H22       1.0  0.59960  0.74860  0.04220  1.0000 0.1067838092
H   H23       1.0  0.99860  0.45640  0.64900  1.0000 0.1067838092
H   H24       1.0  0.80740  0.34960  0.35100  1.0000 0.1067838092
H   H25       1.0  0.46580  0.02160  0.53980  1.0000 0.1409391803
H   H26       1.0  0.48180  0.92600  0.46020  1.0000 0.1409391803
H   H27       1.0  0.17600  0.21580  0.94420  1.0000 0.1409391803
H   H28       1.0  0.27160  0.23180  0.05580  1.0000 0.1409391803
H   H29       1.0  0.78420  0.72840  0.96020  1.0000 0.1409391803
H   H30       1.0  0.76820  0.82400  0.03980  1.0000 0.1409391803
H   H31       1.0  0.07400  0.53420  0.55580  1.0000 0.1409391803
H   H32       1.0  0.97840  0.51820  0.44420  1.0000 0.1409391803
H   H33       1.0  0.59110  0.85940  0.62810  1.0000 0.1293787968
H   H34       1.0  0.23130  0.96300  0.37190  1.0000 0.1293787968
H   H35       1.0  0.21300  0.34110  0.23170  1.0000 0.1293787968
H   H36       1.0  0.10940  0.98130  0.76830  1.0000 0.1293787968
H   H37       1.0  0.65890  0.89060  0.87190  1.0000 0.1293787968
H   H38       1.0  0.01870  0.78700  0.12810  1.0000 0.1293787968
H   H39       1.0  0.03700  0.40890  0.26830  1.0000 0.1293787968
H   H40       1.0  0.14060  0.76870  0.73170  1.0000 0.1293787968
H   H41       1.0  0.53290  0.71750  0.67000  1.0000 0.1007856038
H   H42       1.0  0.04750  0.86290  0.33000  1.0000 0.1007856038
H   H43       1.0  0.11290  0.28290  0.31540  1.0000 0.1007856038
H   H44       1.0  0.96750  0.79750  0.68460  1.0000 0.1007856038
H   H45       1.0  0.71710  0.03250  0.83000  1.0000 0.1007856038
H   H46       1.0  0.20250  0.88710  0.17000  1.0000 0.1007856038
H   H47       1.0  0.13710  0.46710  0.18460  1.0000 0.1007856038
H   H48       1.0  0.28250  0.95250  0.81540  1.0000 0.1007856038
H   H49       1.0  0.25870  0.54330  0.77560  1.0000 0.1007856038
H   H50       1.0  0.76770  0.48310  0.22440  1.0000 0.1007856038
H   H51       1.0  0.73310  0.00870  0.21540  1.0000 0.1007856038
H   H52       1.0  0.79330  0.51770  0.78460  1.0000 0.1007856038
H   H53       1.0  0.99130  0.20670  0.72440  1.0000 0.1007856038
H   H54       1.0  0.48230  0.26690  0.27560  1.0000 0.1007856038
H   H55       1.0  0.51690  0.74130  0.28460  1.0000 0.1007856038
H   H56       1.0  0.45670  0.23230  0.71540  1.0000 0.1007856038
H   H57       1.0  0.30930  0.68170  0.73620  1.0000 0.1293787968
H   H58       1.0  0.94550  0.57310  0.26380  1.0000 0.1293787968
H   H59       1.0  0.82310  0.05930  0.12760  1.0000 0.1293787968
H   H60       1.0  0.93170  0.69550  0.87240  1.0000 0.1293787968
H   H61       1.0  0.94070  0.06830  0.76380  1.0000 0.1293787968
H   H62       1.0  0.30450  0.17690  0.23620  1.0000 0.1293787968
H   H63       1.0  0.42690  0.69070  0.37240  1.0000 0.1293787968
H   H64       1.0  0.31830  0.05450  0.62760  1.0000 0.1293787968
H   H65       1.0  0.74330  0.17370  0.85880  1.0000 0.1007856038
H   H66       1.0  0.31490  0.88450  0.14120  1.0000 0.1007856038
H   H67       1.0  0.13450  0.49330  0.06960  1.0000 0.1007856038
H   H68       1.0  0.42370  0.06490  0.93040  1.0000 0.1007856038
H   H69       1.0  0.50670  0.57630  0.64120  1.0000 0.1007856038
H   H70       1.0  0.93510  0.86550  0.35880  1.0000 0.1007856038
H   H71       1.0  0.11550  0.25670  0.43040  1.0000 0.1007856038
H   H72       1.0  0.82630  0.68510  0.56960  1.0000 0.1007856038
H   H73       1.0  0.53420  0.03670  0.88950  1.0000 0.1409391803
H   H74       1.0  0.14720  0.64470  0.11050  1.0000 0.1409391803
H   H75       1.0  0.89470  0.28420  0.99750  1.0000 0.1409391803
H   H76       1.0  0.28670  0.89720  0.00250  1.0000 0.1409391803
H   H77       1.0  0.71580  0.71330  0.61050  1.0000 0.1409391803
H   H78       1.0  0.10280  0.10530  0.38950  1.0000 0.1409391803
H   H79       1.0  0.35530  0.46580  0.50250  1.0000 0.1409391803
H   H80       1.0  0.96330  0.85280  0.49750  1.0000 0.1409391803
H   H81       1.0  0.30340  0.85060  0.81840  1.0000 0.1187191191
H   H82       1.0  0.03220  0.48500  0.18160  1.0000 0.1187191191
H   H83       1.0  0.73500  0.05340  0.95280  1.0000 0.1187191191
H   H84       1.0  0.10060  0.78220  0.04720  1.0000 0.1187191191
H   H85       1.0  0.94660  0.89940  0.68160  1.0000 0.1187191191
H   H86       1.0  0.21780  0.26500  0.31840  1.0000 0.1187191191
H   H87       1.0  0.51500  0.69660  0.54720  1.0000 0.1187191191
H   H88       1.0  0.14940  0.96780  0.45280  1.0000 0.1187191191
H   H89       1.0  0.29020  0.80820  0.71660  1.0000 0.1409391803
H   H90       1.0  0.09160  0.57360  0.28340  1.0000 0.1409391803
H   H91       1.0  0.82360  0.04020  0.98200  1.0000 0.1409391803
H   H92       1.0  0.05820  0.84160  0.01800  1.0000 0.1409391803
H   H93       1.0  0.95980  0.94180  0.78340  1.0000 0.1409391803
H   H94       1.0  0.15840  0.17640  0.21660  1.0000 0.1409391803
H   H95       1.0  0.42640  0.70980  0.51800  1.0000 0.1409391803
H   H96       1.0  0.19180  0.90840  0.48200  1.0000 0.1409391803
C   C1        1.0  0.68168  0.23492  0.67660  1.0000 -0.1777564585
C   C2        1.0  0.55832  0.00508  0.32340  1.0000 -0.1777564585
C   C3        1.0  0.25508  0.43168  0.94676  1.0000 -0.1777564585
C   C4        1.0  0.48492  0.30832  0.05324  1.0000 -0.1777564585
C   C5        1.0  0.56832  0.51508  0.82340  1.0000 -0.1777564585
C   C6        1.0  0.69168  0.74492  0.17660  1.0000 -0.1777564585
C   C7        1.0  0.99492  0.31832  0.55324  1.0000 -0.1777564585
C   C8        1.0  0.76508  0.44168  0.44676  1.0000 -0.1777564585
C   C9        1.0  0.72432  0.33473  0.67445  1.0000 0.0789849484
C   C10       1.0  0.66028  0.04987  0.32555  1.0000 0.0789849484
C   C11       1.0  0.29987  0.47432  0.88959  1.0000 0.0789849484
C   C12       1.0  0.58473  0.41028  0.11041  1.0000 0.0789849484
C   C13       1.0  0.52568  0.41527  0.82555  1.0000 0.0789849484
C   C14       1.0  0.58972  0.70013  0.17445  1.0000 0.0789849484
C   C15       1.0  0.95013  0.27568  0.61041  1.0000 0.0789849484
C   C16       1.0  0.66527  0.33972  0.38959  1.0000 0.0789849484
C   C17       1.0  0.57915  0.20373  0.57668  1.0000 0.0688710637
C   C18       1.0  0.62705  0.00247  0.42332  1.0000 0.0688710637
C   C19       1.0  0.25247  0.32915  0.87542  1.0000 0.0688710637
C   C20       1.0  0.45373  0.37705  0.12458  1.0000 0.0688710637
C   C21       1.0  0.67085  0.54627  0.92332  1.0000 0.0688710637
C   C22       1.0  0.62295  0.74753  0.07668  1.0000 0.0688710637
C   C23       1.0  0.99753  0.42085  0.62458  1.0000 0.0688710637
C   C24       1.0  0.79627  0.37295  0.37542  1.0000 0.0688710637
C   C25       1.0  0.53139  0.10027  0.57486  1.0000 -0.1494638743
C   C26       1.0  0.52541  0.95653  0.42514  1.0000 -0.1494638743
C   C27       1.0  0.20653  0.28139  0.93112  1.0000 -0.1494638743
C   C28       1.0  0.35027  0.27541  0.06888  1.0000 -0.1494638743
C   C29       1.0  0.71861  0.64973  0.92514  1.0000 -0.1494638743
C   C30       1.0  0.72459  0.79347  0.07486  1.0000 -0.1494638743
C   C31       1.0  0.04347  0.46861  0.56888  1.0000 -0.1494638743
C   C32       1.0  0.89973  0.47459  0.43112  1.0000 -0.1494638743
C   C33       1.0  0.58224  0.11409  0.62613  1.0000 0.0688710637
C   C34       1.0  0.48796  0.95611  0.37387  1.0000 0.0688710637
C   C35       1.0  0.20611  0.33224  0.96815  1.0000 0.0688710637
C   C36       1.0  0.36409  0.23796  0.03185  1.0000 0.0688710637
C   C37       1.0  0.66776  0.63591  0.87387  1.0000 0.0688710637
C   C38       1.0  0.76204  0.79389  0.12613  1.0000 0.0688710637
C   C39       1.0  0.04389  0.41776  0.53185  1.0000 0.0688710637
C   C40       1.0  0.88591  0.51204  0.46815  1.0000 0.0688710637
C   C41       1.0  0.53790  0.00853  0.62283  1.0000 0.2216432411
C   C42       1.0  0.38570  0.91507  0.37717  1.0000 0.2216432411
C   C43       1.0  0.16507  0.28790  0.02937  1.0000 0.2216432411
C   C44       1.0  0.25853  0.13570  0.97063  1.0000 0.2216432411
C   C45       1.0  0.71210  0.74147  0.87717  1.0000 0.2216432411
C   C46       1.0  0.86430  0.83493  0.12283  1.0000 0.2216432411
C   C47       1.0  0.08493  0.46210  0.47063  1.0000 0.2216432411
C   C48       1.0  0.99147  0.61430  0.52937  1.0000 0.2216432411
C   C49       1.0  0.48696  0.86962  0.64558  1.0000 0.2118409742
C   C50       1.0  0.22404  0.84138  0.35442  1.0000 0.2118409742
C   C51       1.0  0.09138  0.23696  0.11734  1.0000 0.2118409742
C   C52       1.0  0.11962  0.97404  0.88266  1.0000 0.2118409742
C   C53       1.0  0.76304  0.88038  0.85442  1.0000 0.2118409742
C   C54       1.0  0.02596  0.90862  0.14558  1.0000 0.2118409742
C   C55       1.0  0.15862  0.51304  0.38266  1.0000 0.2118409742
C   C56       1.0  0.13038  0.77596  0.61734  1.0000 0.2118409742
C   C57       1.0  0.45411  0.78439  0.67650  1.0000 0.0614802186
C   C58       1.0  0.10789  0.77761  0.32350  1.0000 0.0614802186
C   C59       1.0  0.02761  0.20411  0.16972  1.0000 0.0614802186
C   C60       1.0  0.03439  0.85789  0.83028  1.0000 0.0614802186
C   C61       1.0  0.79589  0.96561  0.82350  1.0000 0.0614802186
C   C62       1.0  0.14211  0.97239  0.17650  1.0000 0.0614802186
C   C63       1.0  0.22239  0.54589  0.33028  1.0000 0.0614802186
C   C64       1.0  0.21561  0.89211  0.66972  1.0000 0.0614802186
C   C65       1.0  0.52180  0.79463  0.65783  1.0000 -0.1777564585
C   C66       1.0  0.13680  0.86397  0.34217  1.0000 -0.1777564585
C   C67       1.0  0.11397  0.27180  0.22717  1.0000 -0.1777564585
C   C68       1.0  0.04463  0.88680  0.77283  1.0000 -0.1777564585
C   C69       1.0  0.72820  0.95537  0.84217  1.0000 -0.1777564585
C   C70       1.0  0.11320  0.88603  0.15783  1.0000 -0.1777564585
C   C71       1.0  0.13603  0.47820  0.27283  1.0000 -0.1777564585
C   C72       1.0  0.20537  0.86320  0.72717  1.0000 -0.1777564585
C   C73       1.0  0.48639  0.70930  0.68329  1.0000 0.0688710637
C   C74       1.0  0.02601  0.80310  0.31671  1.0000 0.0688710637
C   C75       1.0  0.05310  0.23639  0.27709  1.0000 0.0688710637
C   C76       1.0  0.95930  0.77601  0.72291  1.0000 0.0688710637
C   C77       1.0  0.76361  0.04070  0.81671  1.0000 0.0688710637
C   C78       1.0  0.22399  0.94690  0.18329  1.0000 0.0688710637
C   C79       1.0  0.19690  0.51361  0.22291  1.0000 0.0688710637
C   C80       1.0  0.29070  0.97399  0.77709  1.0000 0.0688710637
C   C81       1.0  0.32548  0.60696  0.74524  1.0000 0.0688710637
C   C82       1.0  0.86172  0.58024  0.25476  1.0000 0.0688710637
C   C83       1.0  0.83024  0.07548  0.21852  1.0000 0.0688710637
C   C84       1.0  0.85696  0.61172  0.78148  1.0000 0.0688710637
C   C85       1.0  0.92452  0.14304  0.75476  1.0000 0.0688710637
C   C86       1.0  0.38828  0.16976  0.24524  1.0000 0.0688710637
C   C87       1.0  0.41976  0.67452  0.28148  1.0000 0.0688710637
C   C88       1.0  0.39304  0.13828  0.71852  1.0000 0.0688710637
C   C89       1.0  0.35520  0.68979  0.72179  1.0000 -0.1719082724
C   C90       1.0  0.96800  0.63341  0.27821  1.0000 -0.1719082724
C   C91       1.0  0.88341  0.10520  0.16541  1.0000 -0.1719082724
C   C92       1.0  0.93979  0.71800  0.83459  1.0000 -0.1719082724
C   C93       1.0  0.89480  0.06021  0.77821  1.0000 -0.1719082724
C   C94       1.0  0.28200  0.11659  0.22179  1.0000 -0.1719082724
C   C95       1.0  0.36659  0.64480  0.33459  1.0000 -0.1719082724
C   C96       1.0  0.31021  0.03200  0.66541  1.0000 -0.1719082724
C   C97       1.0  0.51274  0.96979  0.73253  1.0000 0.2744218279
C   C98       1.0  0.23726  0.78021  0.26747  1.0000 0.2744218279
C   C99       1.0  0.03021  0.26274  0.04295  1.0000 0.2744218279
C   C100      1.0  0.21979  0.98726  0.95705  1.0000 0.2754475642
C   C101      1.0  0.73726  0.78021  0.76747  1.0000 0.2744218279
C   C102      1.0  0.01274  0.96979  0.23253  1.0000 0.2744218279
C   C103      1.0  0.21979  0.48726  0.45705  1.0000 0.2744218279
C   C104      1.0  0.03021  0.76274  0.54295  1.0000 0.2744218279
C   C105      1.0  0.65068  0.09884  0.82992  1.0000 0.0789849484
C   C106      1.0  0.26892  0.82076  0.17008  1.0000 0.0789849484
C   C107      1.0  0.07076  0.40068  0.05184  1.0000 0.0789849484
C   C108      1.0  0.34884  0.01892  0.94816  1.0000 0.0789849484
C   C109      1.0  0.59932  0.65116  0.67008  1.0000 0.0789849484
C   C110      1.0  0.98108  0.92924  0.32992  1.0000 0.0789849484
C   C111      1.0  0.17924  0.34932  0.44816  1.0000 0.0789849484
C   C112      1.0  0.90116  0.73108  0.55184  1.0000 0.0789849484
C   C113      1.0  0.52595  0.01737  0.84872  1.0000 -0.1494638743
C   C114      1.0  0.16865  0.67723  0.15128  1.0000 -0.1494638743
C   C115      1.0  0.92723  0.27595  0.00858  1.0000 -0.1494638743
C   C116      1.0  0.26737  0.91865  0.99142  1.0000 -0.1494638743
C   C117      1.0  0.72405  0.73263  0.65128  1.0000 -0.1494638743
C   C118      1.0  0.08135  0.07277  0.34872  1.0000 -0.1494638743
C   C119      1.0  0.32277  0.47405  0.49142  1.0000 -0.1494638743
C   C120      1.0  0.98263  0.83135  0.50858  1.0000 -0.1494638743
C   C121      1.0  0.38955  0.90748  0.80663  1.0000 -0.0171996297
C   C122      1.0  0.10085  0.58292  0.19337  1.0000 -0.0171996297
C   C123      1.0  0.83292  0.13955  0.98207  1.0000 -0.0171996297
C   C124      1.0  0.15748  0.85085  0.01793  1.0000 -0.0171996297
C   C125      1.0  0.86045  0.84252  0.69337  1.0000 -0.0171996297
C   C126      1.0  0.14915  0.16708  0.30663  1.0000 -0.0171996297
C   C127      1.0  0.41708  0.61045  0.51793  1.0000 -0.0171996297
C   C128      1.0  0.09252  0.89915  0.48207  1.0000 -0.0171996297
C   C129      1.0  0.38115  0.88188  0.74643  1.0000 -0.201382064
C   C130      1.0  0.13545  0.63472  0.25357  1.0000 -0.201382064
C   C131      1.0  0.88472  0.13115  0.99927  1.0000 -0.201382064
C   C132      1.0  0.13188  0.88545  0.00073  1.0000 -0.201382064
C   C133      1.0  0.86885  0.86812  0.75357  1.0000 -0.201382064
C   C134      1.0  0.11455  0.11528  0.24643  1.0000 -0.201382064
C   C135      1.0  0.36528  0.61885  0.50073  1.0000 -0.201382064
C   C136      1.0  0.11812  0.86455  0.49927  1.0000 -0.201382064
N   N1        1.0  0.67473  0.32084  0.62537  1.0000 -0.201382064
N   N2        1.0  0.69547  0.04936  0.37463  1.0000 -0.1946903895
N   N3        1.0  0.29936  0.42473  0.85389  1.0000 -0.201382064
N   N4        1.0  0.57084  0.44547  0.14611  1.0000 -0.1946903895
N   N5        1.0  0.57527  0.42916  0.87463  1.0000 -0.201382064
N   N6        1.0  0.55453  0.70064  0.12537  1.0000 -0.201382064
N   N7        1.0  0.95064  0.32527  0.64611  1.0000 -0.1946903895
N   N8        1.0  0.67916  0.30453  0.35389  1.0000 -0.201382064
N   N9        1.0  0.52705  0.96518  0.57303  1.0000 -0.2310610208
N   N10       1.0  0.39215  0.95402  0.42697  1.0000 -0.2310610208
N   N11       1.0  0.20402  0.27705  0.06187  1.0000 -0.2310610208
N   N12       1.0  0.21518  0.14215  0.93813  1.0000 -0.2310610208
N   N13       1.0  0.72295  0.78482  0.92697  1.0000 -0.2310610208
N   N14       1.0  0.85785  0.79598  0.07303  1.0000 -0.2310610208
N   N15       1.0  0.04598  0.47295  0.43813  1.0000 -0.2310610208
N   N16       1.0  0.03482  0.60785  0.56187  1.0000 -0.2310610208
N   N17       1.0  0.49558  0.87762  0.58740  1.0000 -0.2515629958
N   N18       1.0  0.29022  0.90818  0.41260  1.0000 -0.2515629958
N   N19       1.0  0.15818  0.24558  0.11796  1.0000 -0.2515629958
N   N20       1.0  0.12762  0.04022  0.88204  1.0000 -0.2515629958
N   N21       1.0  0.75442  0.87238  0.91260  1.0000 -0.2515629958
N   N22       1.0  0.95978  0.84182  0.08740  1.0000 -0.2515629958
N   N23       1.0  0.09182  0.50442  0.38204  1.0000 -0.2515629958
N   N24       1.0  0.12238  0.70978  0.61796  1.0000 -0.2515629958
N   N25       1.0  0.51164  0.94961  0.67025  1.0000 -0.1384185981
N   N26       1.0  0.27936  0.84139  0.32975  1.0000 -0.1384185981
N   N27       1.0  0.09139  0.26164  0.06203  1.0000 -0.1384185981
N   N28       1.0  0.19961  0.02936  0.93797  1.0000 -0.1384185981
N   N29       1.0  0.73836  0.80039  0.82975  1.0000 -0.1384185981
N   N30       1.0  0.97064  0.90861  0.17025  1.0000 -0.1384185981
N   N31       1.0  0.15861  0.48836  0.43797  1.0000 -0.1384185981
N   N32       1.0  0.05039  0.72064  0.56203  1.0000 -0.1384185981
N   N33       1.0  0.38801  0.61401  0.72642  1.0000 -0.201382064
N   N34       1.0  0.88759  0.66159  0.27358  1.0000 -0.201382064
N   N35       1.0  0.91159  0.13801  0.27400  1.0000 -0.201382064
N   N36       1.0  0.86401  0.63759  0.72600  1.0000 -0.201382064
N   N37       1.0  0.86199  0.13599  0.77358  1.0000 -0.201382064
N   N38       1.0  0.36241  0.08841  0.22642  1.0000 -0.201382064
N   N39       1.0  0.33841  0.61199  0.22600  1.0000 -0.201382064
N   N40       1.0  0.38599  0.11241  0.77400  1.0000 -0.201382064
N   N41       1.0  0.64535  0.07569  0.77204  1.0000 -0.2763459328
N   N42       1.0  0.30365  0.87331  0.22796  1.0000 -0.2763459328
N   N43       1.0  0.12331  0.39535  0.06966  1.0000 -0.2763459328
N   N44       1.0  0.32569  0.05365  0.93034  1.0000 -0.2763459328
N   N45       1.0  0.60465  0.67431  0.72796  1.0000 -0.2763459328
N   N46       1.0  0.94635  0.87669  0.27204  1.0000 -0.2763459328
N   N47       1.0  0.12669  0.35465  0.43034  1.0000 -0.2763459328
N   N48       1.0  0.92431  0.69635  0.56966  1.0000 -0.2763459328
N   N49       1.0  0.10621  0.54335  0.83696  1.0000 0.1293787968
N   N50       1.0  0.70639  0.26925  0.16304  1.0000 0.1293787968
N   N51       1.0  0.51925  0.85621  0.06286  1.0000 0.1187191191
N   N52       1.0  0.79335  0.45639  0.93714  1.0000 0.1293787968
N   N53       1.0  0.14379  0.20665  0.66304  1.0000 0.1293787968
N   N54       1.0  0.54361  0.48075  0.33696  1.0000 0.1187191191
N   N55       1.0  0.73075  0.89379  0.43714  1.0000 0.1187191191
N   N56       1.0  0.45665  0.29361  0.56286  1.0000 0.1293787968
O   O1        1.0  0.01859  0.48281  0.79140  1.0000 -0.3427731003
O   O2        1.0  0.69141  0.22719  0.20860  1.0000 -0.3427731003
O   O3        1.0  0.47719  0.76859  0.03578  1.0000 -0.3427731003
O   O4        1.0  0.73281  0.44141  0.96422  1.0000 -0.3427731003
O   O5        1.0  0.23141  0.26719  0.70860  1.0000 -0.3427731003
O   O6        1.0  0.55859  0.52281  0.29140  1.0000 -0.3427731003
O   O7        1.0  0.77281  0.98141  0.46422  1.0000 -0.3427731003
O   O8        1.0  0.51719  0.30859  0.53578  1.0000 -0.3427731003
O   O9        1.0  0.10972  0.49139  0.83571  1.0000 -0.3427731003
O   O10       1.0  0.65568  0.27401  0.16429  1.0000 -0.3427731003
O   O11       1.0  0.52401  0.85972  0.11833  1.0000 -0.3427731003
O   O12       1.0  0.74139  0.40568  0.88167  1.0000 -0.3427731003
O   O13       1.0  0.14028  0.25861  0.66429  1.0000 -0.3427731003
O   O14       1.0  0.59432  0.47599  0.33571  1.0000 -0.3427731003
O   O15       1.0  0.72599  0.89028  0.38167  1.0000 -0.3427731003
O   O16       1.0  0.50861  0.34432  0.61833  1.0000 -0.3427731003
