# DDEC6 charges by PACMAN v1.1 (https://github.com/mtap-research/PACMAN-charge/)
data_2016[Cu][nan]3[FSR]7
_chemical_formula_sum              "Cu12 H84 C132 I6 N24 O24"
_cell_length_a       23.9411
_cell_length_b       23.9411
_cell_length_c       23.9411
_cell_angle_alpha    115.356
_cell_angle_beta     115.356
_cell_angle_gamma    115.356

_symmetry_space_group_name_H-M    "P 1"
_symmetry_Int_Tables_number       1

loop_
  _symmetry_equiv_pos_as_xyz
  'x, y, z'

loop_
  _atom_site_type_symbol
  _atom_site_label
  _atom_site_symmetry_multiplicity
  _atom_site_fract_x
  _atom_site_fract_y
  _atom_site_fract_z
  _atom_site_occupancy
  _atom_site_charge
Cu  Cu1       1.0  0.41071  0.93456  0.91638  1.0000 0.8110539509
Cu  Cu2       1.0  0.93456  0.91638  0.41071  1.0000 0.8110539509
Cu  Cu3       1.0  0.91638  0.41071  0.93456  1.0000 0.8110539509
Cu  Cu4       1.0  0.58929  0.06544  0.08362  1.0000 0.8110539509
Cu  Cu5       1.0  0.06544  0.08362  0.58929  1.0000 0.8110539509
Cu  Cu6       1.0  0.08362  0.58929  0.06544  1.0000 0.8110539509
Cu  Cu7       1.0  0.53878  0.54449  0.98917  1.0000 0.2097333539
Cu  Cu8       1.0  0.54449  0.98917  0.53878  1.0000 0.2097333539
Cu  Cu9       1.0  0.98917  0.53878  0.54449  1.0000 0.2097333539
Cu  Cu10      1.0  0.46122  0.45551  0.01083  1.0000 0.2097333539
Cu  Cu11      1.0  0.45551  0.01083  0.46122  1.0000 0.2097333539
Cu  Cu12      1.0  0.01083  0.46122  0.45551  1.0000 0.2097333539
H   H1        1.0  0.27290  0.83770  0.97330  1.0000 0.1310101641
H   H2        1.0  0.83770  0.97330  0.27290  1.0000 0.1310101641
H   H3        1.0  0.97330  0.27290  0.83770  1.0000 0.1310101641
H   H4        1.0  0.72710  0.16230  0.02670  1.0000 0.1310101641
H   H5        1.0  0.16230  0.02670  0.72710  1.0000 0.1310101641
H   H6        1.0  0.02670  0.72710  0.16230  1.0000 0.1310101641
H   H7        1.0  0.22260  0.79630  0.02690  1.0000 0.1192720239
H   H8        1.0  0.79630  0.02690  0.22260  1.0000 0.1192720239
H   H9        1.0  0.02690  0.22260  0.79630  1.0000 0.1192720239
H   H10       1.0  0.77740  0.20370  0.97310  1.0000 0.1192720239
H   H11       1.0  0.20370  0.97310  0.77740  1.0000 0.1192720239
H   H12       1.0  0.97310  0.77740  0.20370  1.0000 0.1192720239
H   H13       1.0  0.48600  0.95340  0.25680  1.0000 0.1192720239
H   H14       1.0  0.95340  0.25680  0.48600  1.0000 0.1192720239
H   H15       1.0  0.25680  0.48600  0.95340  1.0000 0.1192720239
H   H16       1.0  0.51400  0.04660  0.74320  1.0000 0.1192720239
H   H17       1.0  0.04660  0.74320  0.51400  1.0000 0.1192720239
H   H18       1.0  0.74320  0.51400  0.04660  1.0000 0.1192720239
H   H19       1.0  0.53620  0.99470  0.20310  1.0000 0.1310101641
H   H20       1.0  0.99470  0.20310  0.53620  1.0000 0.1310101641
H   H21       1.0  0.20310  0.53620  0.99470  1.0000 0.1310101641
H   H22       1.0  0.46380  0.00530  0.79690  1.0000 0.1310101641
H   H23       1.0  0.00530  0.79690  0.46380  1.0000 0.1310101641
H   H24       1.0  0.79690  0.46380  0.00530  1.0000 0.1310101641
H   H25       1.0  0.20430  0.70710  0.06210  1.0000 0.1192720239
H   H26       1.0  0.70710  0.06210  0.20430  1.0000 0.1192720239
H   H27       1.0  0.06210  0.20430  0.70710  1.0000 0.1192720239
H   H28       1.0  0.79570  0.29290  0.93790  1.0000 0.1192720239
H   H29       1.0  0.29290  0.93790  0.79570  1.0000 0.1192720239
H   H30       1.0  0.93790  0.79570  0.29290  1.0000 0.1192720239
H   H31       1.0  0.25130  0.79390  0.27960  1.0000 0.1124798046
H   H32       1.0  0.79390  0.27960  0.25130  1.0000 0.1124798046
H   H33       1.0  0.27960  0.25130  0.79390  1.0000 0.1124798046
H   H34       1.0  0.74870  0.20610  0.72040  1.0000 0.1124798046
H   H35       1.0  0.20610  0.72040  0.74870  1.0000 0.1124798046
H   H36       1.0  0.72040  0.74870  0.20610  1.0000 0.1124798046
H   H37       1.0  0.42680  0.98150  0.31250  1.0000 0.1124798046
H   H38       1.0  0.98150  0.31250  0.42680  1.0000 0.1124798046
H   H39       1.0  0.31250  0.42680  0.98150  1.0000 0.1124798046
H   H40       1.0  0.57320  0.01850  0.68750  1.0000 0.1124798046
H   H41       1.0  0.01850  0.68750  0.57320  1.0000 0.1124798046
H   H42       1.0  0.68750  0.57320  0.01850  1.0000 0.1124798046
H   H43       1.0  0.35160  0.69010  0.76440  1.0000 0.1310101641
H   H44       1.0  0.69010  0.76440  0.35160  1.0000 0.1310101641
H   H45       1.0  0.76440  0.35160  0.69010  1.0000 0.1310101641
H   H46       1.0  0.64840  0.30990  0.23560  1.0000 0.1310101641
H   H47       1.0  0.30990  0.23560  0.64840  1.0000 0.1310101641
H   H48       1.0  0.23560  0.64840  0.30990  1.0000 0.1310101641
H   H49       1.0  0.34520  0.57810  0.72650  1.0000 0.1192720239
H   H50       1.0  0.57810  0.72650  0.34520  1.0000 0.1192720239
H   H51       1.0  0.72650  0.34520  0.57810  1.0000 0.1192720239
H   H52       1.0  0.65480  0.42190  0.27350  1.0000 0.1192720239
H   H53       1.0  0.42190  0.27350  0.65480  1.0000 0.1192720239
H   H54       1.0  0.27350  0.65480  0.42190  1.0000 0.1192720239
H   H55       1.0  0.60400  0.77530  0.98990  1.0000 0.1192720239
H   H56       1.0  0.77530  0.98990  0.60400  1.0000 0.1192720239
H   H57       1.0  0.98990  0.60400  0.77530  1.0000 0.1192720239
H   H58       1.0  0.39600  0.22470  0.01010  1.0000 0.1192720239
H   H59       1.0  0.22470  0.01010  0.39600  1.0000 0.1192720239
H   H60       1.0  0.01010  0.39600  0.22470  1.0000 0.1192720239
H   H61       1.0  0.61040  0.88710  0.02770  1.0000 0.1192720239
H   H62       1.0  0.88710  0.02770  0.61040  1.0000 0.1192720239
H   H63       1.0  0.02770  0.61040  0.88710  1.0000 0.1192720239
H   H64       1.0  0.38960  0.11290  0.97230  1.0000 0.1192720239
H   H65       1.0  0.11290  0.97230  0.38960  1.0000 0.1192720239
H   H66       1.0  0.97230  0.38960  0.11290  1.0000 0.1192720239
H   H67       1.0  0.41630  0.52430  0.70800  1.0000 0.1124798046
H   H68       1.0  0.52430  0.70800  0.41630  1.0000 0.1124798046
H   H69       1.0  0.70800  0.41630  0.52430  1.0000 0.1124798046
H   H70       1.0  0.58370  0.47570  0.29200  1.0000 0.1124798046
H   H71       1.0  0.47570  0.29200  0.58370  1.0000 0.1124798046
H   H72       1.0  0.29200  0.58370  0.47570  1.0000 0.1124798046
H   H73       1.0  0.46510  0.42540  0.79980  1.0000 0.1045715343
H   H74       1.0  0.42540  0.79980  0.46510  1.0000 0.1045715343
H   H75       1.0  0.79980  0.46510  0.42540  1.0000 0.1045715343
H   H76       1.0  0.53490  0.57460  0.20020  1.0000 0.1045715343
H   H77       1.0  0.57460  0.20020  0.53490  1.0000 0.1045715343
H   H78       1.0  0.20020  0.53490  0.57460  1.0000 0.1045715343
H   H79       1.0  0.51510  0.64160  0.95420  1.0000 0.1124798046
H   H80       1.0  0.64160  0.95420  0.51510  1.0000 0.1124798046
H   H81       1.0  0.95420  0.51510  0.64160  1.0000 0.1124798046
H   H82       1.0  0.48490  0.35840  0.04580  1.0000 0.1124798046
H   H83       1.0  0.35840  0.04580  0.48490  1.0000 0.1124798046
H   H84       1.0  0.04580  0.48490  0.35840  1.0000 0.1124798046
C   C1        1.0  0.44176  0.94784  0.05070  1.0000 0.5799685908
C   C2        1.0  0.94784  0.05070  0.44176  1.0000 0.5799685908
C   C3        1.0  0.05070  0.44176  0.94784  1.0000 0.5799685908
C   C4        1.0  0.55824  0.05216  0.94930  1.0000 0.5799685908
C   C5        1.0  0.05216  0.94930  0.55824  1.0000 0.5799685908
C   C6        1.0  0.94930  0.55824  0.05216  1.0000 0.5799685908
C   C7        1.0  0.40933  0.92013  0.08318  1.0000 -0.0414730417
C   C8        1.0  0.92013  0.08318  0.40933  1.0000 -0.0414730417
C   C9        1.0  0.08318  0.40933  0.92013  1.0000 -0.0414730417
C   C10       1.0  0.59067  0.07987  0.91682  1.0000 -0.0414730417
C   C11       1.0  0.07987  0.91682  0.59067  1.0000 -0.0414730417
C   C12       1.0  0.91682  0.59067  0.07987  1.0000 -0.0414730417
C   C13       1.0  0.31618  0.86120  0.03087  1.0000 -0.0796031928
C   C14       1.0  0.86120  0.03087  0.31618  1.0000 -0.0796031928
C   C15       1.0  0.03087  0.31618  0.86120  1.0000 -0.0796031928
C   C16       1.0  0.68382  0.13880  0.96913  1.0000 -0.0796031928
C   C17       1.0  0.13880  0.96913  0.68382  1.0000 -0.0796031928
C   C18       1.0  0.96913  0.68382  0.13880  1.0000 -0.0796031928
C   C19       1.0  0.28629  0.83661  0.06273  1.0000 -0.1575792405
C   C20       1.0  0.83661  0.06273  0.28629  1.0000 -0.1575792405
C   C21       1.0  0.06273  0.28629  0.83661  1.0000 -0.1575792405
C   C22       1.0  0.71371  0.16339  0.93727  1.0000 -0.1575792405
C   C23       1.0  0.16339  0.93727  0.71371  1.0000 -0.1575792405
C   C24       1.0  0.93727  0.71371  0.16339  1.0000 -0.1575792405
C   C25       1.0  0.34956  0.87095  0.14692  1.0000 0.0885583666
C   C26       1.0  0.87095  0.14692  0.34956  1.0000 0.0885583666
C   C27       1.0  0.14692  0.34956  0.87095  1.0000 0.0885583666
C   C28       1.0  0.65044  0.12905  0.85308  1.0000 0.0885583666
C   C29       1.0  0.12905  0.85308  0.65044  1.0000 0.0885583666
C   C30       1.0  0.85308  0.65044  0.12905  1.0000 0.0885583666
C   C31       1.0  0.44272  0.92989  0.19924  1.0000 -0.1575792405
C   C32       1.0  0.92989  0.19924  0.44272  1.0000 -0.1575792405
C   C33       1.0  0.19924  0.44272  0.92989  1.0000 -0.1575792405
C   C34       1.0  0.55728  0.07011  0.80076  1.0000 -0.1575792405
C   C35       1.0  0.07011  0.80076  0.55728  1.0000 -0.1575792405
C   C36       1.0  0.80076  0.55728  0.07011  1.0000 -0.1575792405
C   C37       1.0  0.47260  0.95447  0.16737  1.0000 -0.0796031928
C   C38       1.0  0.95447  0.16737  0.47260  1.0000 -0.0796031928
C   C39       1.0  0.16737  0.47260  0.95447  1.0000 -0.0796031928
C   C40       1.0  0.52740  0.04553  0.83263  1.0000 -0.0796031928
C   C41       1.0  0.04553  0.83263  0.52740  1.0000 -0.0796031928
C   C42       1.0  0.83263  0.52740  0.04553  1.0000 -0.0796031928
C   C43       1.0  0.31956  0.84743  0.18145  1.0000 -0.0157358062
C   C44       1.0  0.84743  0.18145  0.31956  1.0000 -0.0157358062
C   C45       1.0  0.18145  0.31956  0.84743  1.0000 -0.0157358062
C   C46       1.0  0.68044  0.15257  0.81855  1.0000 -0.0157358062
C   C47       1.0  0.15257  0.81855  0.68044  1.0000 -0.0157358062
C   C48       1.0  0.81855  0.68044  0.15257  1.0000 -0.0157358062
C   C49       1.0  0.24078  0.75593  0.12535  1.0000 0.0576568363
C   C50       1.0  0.75593  0.12535  0.24078  1.0000 0.0576568363
C   C51       1.0  0.12535  0.24078  0.75593  1.0000 0.0576568363
C   C52       1.0  0.75922  0.24407  0.87465  1.0000 0.0576568363
C   C53       1.0  0.24407  0.87465  0.75922  1.0000 0.0576568363
C   C54       1.0  0.87465  0.75922  0.24407  1.0000 0.0576568363
C   C55       1.0  0.26867  0.80748  0.25459  1.0000 0.2441956294
C   C56       1.0  0.80748  0.25459  0.26867  1.0000 0.2466185135
C   C57       1.0  0.25459  0.26867  0.80748  1.0000 0.2441956294
C   C58       1.0  0.73133  0.19252  0.74541  1.0000 0.2441956294
C   C59       1.0  0.19252  0.74541  0.73133  1.0000 0.2466185135
C   C60       1.0  0.74541  0.73133  0.19252  1.0000 0.2441956294
C   C61       1.0  0.37290  0.91897  0.27413  1.0000 0.0576568363
C   C62       1.0  0.91897  0.27413  0.37290  1.0000 0.0576568363
C   C63       1.0  0.27413  0.37290  0.91897  1.0000 0.0576568363
C   C64       1.0  0.62710  0.08103  0.72587  1.0000 0.0576568363
C   C65       1.0  0.08103  0.72587  0.62710  1.0000 0.0576568363
C   C66       1.0  0.72587  0.62710  0.08103  1.0000 0.0576568363
C   C67       1.0  0.48665  0.87273  0.93182  1.0000 0.5799685908
C   C68       1.0  0.87273  0.93182  0.48665  1.0000 0.5799685908
C   C69       1.0  0.93182  0.48665  0.87273  1.0000 0.5799685908
C   C70       1.0  0.51335  0.12727  0.06818  1.0000 0.5799685908
C   C71       1.0  0.12727  0.06818  0.51335  1.0000 0.5799685908
C   C72       1.0  0.06818  0.51335  0.12727  1.0000 0.5799685908
C   C73       1.0  0.48154  0.79912  0.89957  1.0000 -0.0157358062
C   C74       1.0  0.79912  0.89957  0.48154  1.0000 -0.0157358062
C   C75       1.0  0.89957  0.48154  0.79912  1.0000 -0.0157358062
C   C76       1.0  0.51846  0.20088  0.10043  1.0000 -0.0157358062
C   C77       1.0  0.20088  0.10043  0.51846  1.0000 -0.0157358062
C   C78       1.0  0.10043  0.51846  0.20088  1.0000 -0.0157358062
C   C79       1.0  0.40281  0.70735  0.81012  1.0000 -0.0879740375
C   C80       1.0  0.70735  0.81012  0.40281  1.0000 -0.0879740375
C   C81       1.0  0.81012  0.40281  0.70735  1.0000 -0.0879740375
C   C82       1.0  0.59719  0.29265  0.18988  1.0000 -0.0879740375
C   C83       1.0  0.29265  0.18988  0.59719  1.0000 -0.0879740375
C   C84       1.0  0.18988  0.59719  0.29265  1.0000 -0.0879740375
C   C85       1.0  0.39903  0.64089  0.78766  1.0000 -0.1537021207
C   C86       1.0  0.64089  0.78766  0.39903  1.0000 -0.1537021207
C   C87       1.0  0.78766  0.39903  0.64089  1.0000 -0.1537021207
C   C88       1.0  0.60097  0.35911  0.21234  1.0000 -0.1537021207
C   C89       1.0  0.35911  0.21234  0.60097  1.0000 -0.1537021207
C   C90       1.0  0.21234  0.60097  0.35911  1.0000 -0.1575792405
C   C91       1.0  0.47400  0.66618  0.85465  1.0000 0.0885583666
C   C92       1.0  0.66618  0.85465  0.47400  1.0000 0.084210564
C   C93       1.0  0.85465  0.47400  0.66618  1.0000 0.0885583666
C   C94       1.0  0.52600  0.33382  0.14535  1.0000 0.0885583666
C   C95       1.0  0.33382  0.14535  0.52600  1.0000 0.0885583666
C   C96       1.0  0.14535  0.52600  0.33382  1.0000 0.0885583666
C   C97       1.0  0.55273  0.75795  0.94410  1.0000 -0.1575792405
C   C98       1.0  0.75795  0.94410  0.55273  1.0000 -0.1575792405
C   C99       1.0  0.94410  0.55273  0.75795  1.0000 -0.1575792405
C   C100      1.0  0.44727  0.24205  0.05590  1.0000 -0.1575792405
C   C101      1.0  0.24205  0.05590  0.44727  1.0000 -0.1575792405
C   C102      1.0  0.05590  0.44727  0.24205  1.0000 -0.1575792405
C   C103      1.0  0.55651  0.82441  0.96656  1.0000 -0.1015693565
C   C104      1.0  0.82441  0.96656  0.55651  1.0000 -0.1015693565
C   C105      1.0  0.96656  0.55651  0.82441  1.0000 -0.1015693565
C   C106      1.0  0.44349  0.17559  0.03344  1.0000 -0.1015693565
C   C107      1.0  0.17559  0.03344  0.44349  1.0000 -0.1015693565
C   C108      1.0  0.03344  0.44349  0.17559  1.0000 -0.1015693565
C   C109      1.0  0.46570  0.59281  0.83309  1.0000 -0.0057172267
C   C110      1.0  0.59281  0.83309  0.46570  1.0000 -0.0057172267
C   C111      1.0  0.83309  0.46570  0.59281  1.0000 -0.0057172267
C   C112      1.0  0.53430  0.40719  0.16691  1.0000 -0.0057172267
C   C113      1.0  0.40719  0.16691  0.53430  1.0000 -0.0057172267
C   C114      1.0  0.16691  0.53430  0.40719  1.0000 -0.0057172267
C   C115      1.0  0.43625  0.52674  0.75374  1.0000 0.0452305978
C   C116      1.0  0.52674  0.75374  0.43625  1.0000 0.0448309598
C   C117      1.0  0.75374  0.43625  0.52674  1.0000 0.0448309598
C   C118      1.0  0.56375  0.47326  0.24626  1.0000 0.0448309598
C   C119      1.0  0.47326  0.24626  0.56375  1.0000 0.0452305978
C   C120      1.0  0.24626  0.56375  0.47326  1.0000 0.0448309598
C   C121      1.0  0.46529  0.46802  0.80829  1.0000 0.1775019683
C   C122      1.0  0.46802  0.80829  0.46529  1.0000 0.1775019683
C   C123      1.0  0.80829  0.46529  0.46802  1.0000 0.1775019683
C   C124      1.0  0.53471  0.53198  0.19171  1.0000 0.1775019683
C   C125      1.0  0.53198  0.19171  0.53471  1.0000 0.1775019683
C   C126      1.0  0.19171  0.53471  0.53198  1.0000 0.1775019683
C   C127      1.0  0.49494  0.59649  0.90004  1.0000 0.0448309598
C   C128      1.0  0.59649  0.90004  0.49494  1.0000 0.0448309598
C   C129      1.0  0.90004  0.49494  0.59649  1.0000 0.0452305978
C   C130      1.0  0.50506  0.40351  0.09996  1.0000 0.0448309598
C   C131      1.0  0.40351  0.09996  0.50506  1.0000 0.0448309598
C   C132      1.0  0.09996  0.50506  0.40351  1.0000 0.0448309598
I   I1        1.0  0.50376  0.60527  0.07204  1.0000 -0.4678189464
I   I2        1.0  0.60527  0.07204  0.50376  1.0000 -0.4678189464
I   I3        1.0  0.07204  0.50376  0.60527  1.0000 -0.4678189464
I   I4        1.0  0.49624  0.39473  0.92796  1.0000 -0.4678189464
I   I5        1.0  0.39473  0.92796  0.49624  1.0000 -0.4678189464
I   I6        1.0  0.92796  0.49624  0.39473  1.0000 -0.4678189464
N   N1        1.0  0.21534  0.73595  0.16192  1.0000 -0.2911179371
N   N2        1.0  0.73595  0.16192  0.21534  1.0000 -0.2911179371
N   N3        1.0  0.16192  0.21534  0.73595  1.0000 -0.2911179371
N   N4        1.0  0.78466  0.26405  0.83808  1.0000 -0.2911179371
N   N5        1.0  0.26405  0.83808  0.78466  1.0000 -0.2911179371
N   N6        1.0  0.83808  0.78466  0.26405  1.0000 -0.2911179371
N   N7        1.0  0.34745  0.89899  0.31068  1.0000 -0.2340939499
N   N8        1.0  0.89899  0.31068  0.34745  1.0000 -0.2340939499
N   N9        1.0  0.31068  0.34745  0.89899  1.0000 -0.2340939499
N   N10       1.0  0.65255  0.10101  0.68932  1.0000 -0.2340939499
N   N11       1.0  0.10101  0.68932  0.65255  1.0000 -0.2340939499
N   N12       1.0  0.68932  0.65255  0.10101  1.0000 -0.2340939499
N   N13       1.0  0.43604  0.46434  0.74135  1.0000 -0.2734173246
N   N14       1.0  0.46434  0.74135  0.43604  1.0000 -0.2734173246
N   N15       1.0  0.74135  0.43604  0.46434  1.0000 -0.2734173246
N   N16       1.0  0.56396  0.53566  0.25865  1.0000 -0.2734173246
N   N17       1.0  0.53566  0.25865  0.56396  1.0000 -0.2734173246
N   N18       1.0  0.25865  0.56396  0.53566  1.0000 -0.2734173246
N   N19       1.0  0.49473  0.53410  0.88764  1.0000 -0.2094241785
N   N20       1.0  0.53410  0.88764  0.49473  1.0000 -0.2094241785
N   N21       1.0  0.88764  0.49473  0.53410  1.0000 -0.2094241785
N   N22       1.0  0.50527  0.46590  0.11236  1.0000 -0.2094241785
N   N23       1.0  0.46590  0.11236  0.50527  1.0000 -0.2094241785
N   N24       1.0  0.11236  0.50527  0.46590  1.0000 -0.2094241785
O   O1        1.0  0.37750  0.90240  0.96639  1.0000 -0.5188766526
O   O2        1.0  0.90240  0.96639  0.37750  1.0000 -0.5188766526
O   O3        1.0  0.96639  0.37750  0.90240  1.0000 -0.5188766526
O   O4        1.0  0.62250  0.09760  0.03361  1.0000 -0.5188766526
O   O5        1.0  0.09760  0.03361  0.62250  1.0000 -0.5188766526
O   O6        1.0  0.03361  0.62250  0.09760  1.0000 -0.5188766526
O   O7        1.0  0.53123  0.01494  0.10995  1.0000 -0.5296080219
O   O8        1.0  0.01494  0.10995  0.53123  1.0000 -0.5296080219
O   O9        1.0  0.10995  0.53123  0.01494  1.0000 -0.5296080219
O   O10       1.0  0.46877  0.98506  0.89005  1.0000 -0.5296080219
O   O11       1.0  0.98506  0.89005  0.46877  1.0000 -0.5296080219
O   O12       1.0  0.89005  0.46877  0.98506  1.0000 -0.5296080219
O   O13       1.0  0.41207  0.84426  0.87305  1.0000 -0.5114187705
O   O14       1.0  0.84426  0.87305  0.41207  1.0000 -0.5114187705
O   O15       1.0  0.87305  0.41207  0.84426  1.0000 -0.5114187705
O   O16       1.0  0.58793  0.15574  0.12695  1.0000 -0.5114187705
O   O17       1.0  0.15574  0.12695  0.58793  1.0000 -0.5114187705
O   O18       1.0  0.12695  0.58793  0.15574  1.0000 -0.5114187705
O   O19       1.0  0.56541  0.95754  0.01617  1.0000 -0.5576771405
O   O20       1.0  0.95754  0.01617  0.56541  1.0000 -0.5576771405
O   O21       1.0  0.01617  0.56541  0.95754  1.0000 -0.5576771405
O   O22       1.0  0.43459  0.04246  0.98383  1.0000 -0.5576771405
O   O23       1.0  0.04246  0.98383  0.43459  1.0000 -0.5576771405
O   O24       1.0  0.98383  0.43459  0.04246  1.0000 -0.5576771405
