# DDEC6 charges by PACMAN v1.1 (https://github.com/mtap-research/PACMAN-charge/)
data_2017[Ag][hcb]2[FSR]2
_chemical_formula_sum              "Ag6 H126 C168 S6 N18 O54 F18"
_cell_length_a       16.7577
_cell_length_b       17.6412
_cell_length_c       19.8905
_cell_angle_alpha    95.141
_cell_angle_beta     94.187
_cell_angle_gamma    117.531

_symmetry_space_group_name_H-M    "P 1"
_symmetry_Int_Tables_number       1

loop_
  _symmetry_equiv_pos_as_xyz
  'x, y, z'

loop_
  _atom_site_type_symbol
  _atom_site_label
  _atom_site_symmetry_multiplicity
  _atom_site_fract_x
  _atom_site_fract_y
  _atom_site_fract_z
  _atom_site_occupancy
  _atom_site_charge
Ag  Ag1       1.0  0.19117  0.15975  0.94161  1.0000 0.3077819423
Ag  Ag2       1.0  0.76799  0.14584  0.72283  1.0000 0.2886758224
Ag  Ag3       1.0  0.21340  0.49152  0.64045  1.0000 0.2886758224
Ag  Ag4       1.0  0.80883  0.84025  0.05839  1.0000 0.3077819423
Ag  Ag5       1.0  0.23201  0.85416  0.27717  1.0000 0.2886758224
Ag  Ag6       1.0  0.78660  0.50848  0.35955  1.0000 0.2886758224
H   H1        1.0  0.13150  0.30570  0.94360  1.0000 0.1024501459
H   H2        1.0  0.00990  0.33270  0.92850  1.0000 0.1307982223
H   H3        1.0  0.84410  0.07420  0.89650  1.0000 0.1379245372
H   H4        1.0  0.97040  0.05520  0.91450  1.0000 0.1095530168
H   H5        1.0  0.73340  0.28860  0.86980  1.0000 0.1095530168
H   H6        1.0  0.74530  0.30280  0.95150  1.0000 0.1190282385
H   H7        1.0  0.30360  0.05540  0.96440  1.0000 0.1095530168
H   H8        1.0  0.28560  0.91780  0.96190  1.0000 0.1379245372
H   H9        1.0  0.01700  0.82670  0.90340  1.0000 0.1379245372
H   H10       1.0  0.04440  0.96820  0.90590  1.0000 0.1095530168
H   H11       1.0  0.05590  0.60260  0.87720  1.0000 0.1095530168
H   H12       1.0  0.06560  0.61410  0.95880  1.0000 0.1024501459
H   H13       1.0  0.25490  0.31410  0.84550  1.0000 0.1024501459
H   H14       1.0  0.38180  0.43630  0.82620  1.0000 0.1379245372
H   H15       1.0  0.52020  0.40890  0.98890  1.0000 0.1307982223
H   H16       1.0  0.38630  0.29510  0.00920  1.0000 0.1190282385
H   H17       1.0  0.70410  0.58020  0.84990  1.0000 0.1190282385
H   H18       1.0  0.73210  0.62260  0.92850  1.0000 0.1095530168
H   H19       1.0  0.68720  0.40740  0.90350  1.0000 0.1190282385
H   H20       1.0  0.94800  0.45350  0.91920  1.0000 0.1190282385
H   H21       1.0  0.88840  0.65060  0.90860  1.0000 0.1379245372
H   H22       1.0  0.82140  0.99350  0.72280  1.0000 0.1095530168
H   H23       1.0  0.94470  0.96810  0.73620  1.0000 0.1307982223
H   H24       1.0  0.10840  0.22580  0.76720  1.0000 0.1307982223
H   H25       1.0  0.98170  0.24450  0.75120  1.0000 0.1095530168
H   H26       1.0  0.21750  0.00530  0.71940  1.0000 0.1190282385
H   H27       1.0  0.22080  0.01530  0.80070  1.0000 0.1095530168
H   H28       1.0  0.59700  0.01310  0.62170  1.0000 0.1190282385
H   H29       1.0  0.45350  0.89770  0.61590  1.0000 0.1307982223
H   H30       1.0  0.49540  0.90770  0.81960  1.0000 0.1379245372
H   H31       1.0  0.63890  0.02160  0.81960  1.0000 0.1095530168
H   H32       1.0  0.23170  0.68720  0.74080  1.0000 0.1095530168
H   H33       1.0  0.24190  0.71580  0.82100  1.0000 0.1190282385
H   H34       1.0  0.65950  0.24920  0.70800  1.0000 0.1095530168
H   H35       1.0  0.67550  0.38580  0.70510  1.0000 0.1379245372
H   H36       1.0  0.94520  0.48230  0.75570  1.0000 0.1379245372
H   H37       1.0  0.92220  0.34290  0.75710  1.0000 0.1095530168
H   H38       1.0  0.89500  0.69290  0.69800  1.0000 0.1024501459
H   H39       1.0  0.90040  0.70040  0.77940  1.0000 0.1190282385
H   H40       1.0  0.01150  0.85110  0.73900  1.0000 0.1307982223
H   H41       1.0  0.27240  0.89890  0.77000  1.0000 0.1190282385
H   H42       1.0  0.06880  0.65410  0.75530  1.0000 0.1307982223
H   H43       1.0  0.16100  0.63820  0.60940  1.0000 0.1095530168
H   H44       1.0  0.03800  0.66210  0.58450  1.0000 0.1307982223
H   H45       1.0  0.87320  0.40570  0.57530  1.0000 0.1379245372
H   H46       1.0  0.00050  0.39030  0.60390  1.0000 0.1095530168
H   H47       1.0  0.76480  0.61500  0.51000  1.0000 0.1095530168
H   H48       1.0  0.76000  0.61830  0.59040  1.0000 0.1190282385
H   H49       1.0  0.33530  0.59940  0.53620  1.0000 0.1095530168
H   H50       1.0  0.47580  0.71160  0.52540  1.0000 0.1379245372
H   H51       1.0  0.53740  0.74160  0.72960  1.0000 0.1379245372
H   H52       1.0  0.39650  0.62810  0.73380  1.0000 0.1190282385
H   H53       1.0  0.72280  0.90490  0.50700  1.0000 0.1190282385
H   H54       1.0  0.74150  0.93710  0.58720  1.0000 0.1190282385
H   H55       1.0  0.31610  0.38320  0.65770  1.0000 0.1095530168
H   H56       1.0  0.29890  0.24450  0.64530  1.0000 0.1379245372
H   H57       1.0  0.03190  0.15460  0.58280  1.0000 0.1379245372
H   H58       1.0  0.05760  0.29660  0.59460  1.0000 0.1095530168
H   H59       1.0  0.07510  0.93700  0.54170  1.0000 0.1190282385
H   H60       1.0  0.08030  0.93580  0.62240  1.0000 0.1024501459
H   H61       1.0  0.90220  0.97370  0.57250  1.0000 0.1307982223
H   H62       1.0  0.70460  0.72540  0.54910  1.0000 0.1190282385
H   H63       1.0  0.96830  0.78030  0.57590  1.0000 0.1190282385
H   H64       1.0  0.86850  0.69430  0.05640  1.0000 0.1024501459
H   H65       1.0  0.99010  0.66730  0.07150  1.0000 0.1307982223
H   H66       1.0  0.15590  0.92580  0.10350  1.0000 0.1379245372
H   H67       1.0  0.02960  0.94480  0.08550  1.0000 0.1095530168
H   H68       1.0  0.26660  0.71140  0.13020  1.0000 0.1095530168
H   H69       1.0  0.25470  0.69720  0.04850  1.0000 0.1190282385
H   H70       1.0  0.69640  0.94460  0.03560  1.0000 0.1095530168
H   H71       1.0  0.71440  0.08220  0.03810  1.0000 0.1379245372
H   H72       1.0  0.98300  0.17330  0.09660  1.0000 0.1379245372
H   H73       1.0  0.95560  0.03180  0.09410  1.0000 0.1095530168
H   H74       1.0  0.94410  0.39740  0.12280  1.0000 0.1095530168
H   H75       1.0  0.93440  0.38590  0.04120  1.0000 0.1024501459
H   H76       1.0  0.74510  0.68590  0.15450  1.0000 0.1024501459
H   H77       1.0  0.61820  0.56370  0.17380  1.0000 0.1379245372
H   H78       1.0  0.47980  0.59110  0.01110  1.0000 0.1307982223
H   H79       1.0  0.61370  0.70490  0.99080  1.0000 0.1190282385
H   H80       1.0  0.29590  0.41980  0.15010  1.0000 0.1190282385
H   H81       1.0  0.26790  0.37740  0.07150  1.0000 0.1095530168
H   H82       1.0  0.31280  0.59260  0.09650  1.0000 0.1190282385
H   H83       1.0  0.05200  0.54650  0.08080  1.0000 0.1190282385
H   H84       1.0  0.11160  0.34940  0.09140  1.0000 0.1379245372
H   H85       1.0  0.17860  0.00650  0.27720  1.0000 0.1095530168
H   H86       1.0  0.05530  0.03190  0.26380  1.0000 0.1307982223
H   H87       1.0  0.89160  0.77420  0.23280  1.0000 0.1307982223
H   H88       1.0  0.01830  0.75550  0.24880  1.0000 0.1095530168
H   H89       1.0  0.78250  0.99470  0.28060  1.0000 0.1190282385
H   H90       1.0  0.77920  0.98470  0.19930  1.0000 0.1095530168
H   H91       1.0  0.40300  0.98690  0.37830  1.0000 0.1190282385
H   H92       1.0  0.54650  0.10230  0.38410  1.0000 0.1307982223
H   H93       1.0  0.50460  0.09230  0.18040  1.0000 0.1379245372
H   H94       1.0  0.36110  0.97840  0.18040  1.0000 0.1095530168
H   H95       1.0  0.76830  0.31280  0.25920  1.0000 0.1095530168
H   H96       1.0  0.75810  0.28420  0.17900  1.0000 0.1190282385
H   H97       1.0  0.34050  0.75080  0.29200  1.0000 0.1095530168
H   H98       1.0  0.32450  0.61420  0.29490  1.0000 0.1379245372
H   H99       1.0  0.05480  0.51770  0.24430  1.0000 0.1379245372
H   H100      1.0  0.07780  0.65710  0.24290  1.0000 0.1095530168
H   H101      1.0  0.10500  0.30710  0.30200  1.0000 0.1024501459
H   H102      1.0  0.09960  0.29960  0.22060  1.0000 0.1190282385
H   H103      1.0  0.98850  0.14890  0.26100  1.0000 0.1307982223
H   H104      1.0  0.72760  0.10110  0.23000  1.0000 0.1190282385
H   H105      1.0  0.93120  0.34590  0.24470  1.0000 0.1307982223
H   H106      1.0  0.83900  0.36180  0.39060  1.0000 0.1095530168
H   H107      1.0  0.96200  0.33790  0.41550  1.0000 0.1307982223
H   H108      1.0  0.12680  0.59430  0.42470  1.0000 0.1379245372
H   H109      1.0  0.99950  0.60970  0.39610  1.0000 0.1095530168
H   H110      1.0  0.23520  0.38500  0.49000  1.0000 0.1095530168
H   H111      1.0  0.24000  0.38170  0.40960  1.0000 0.1190282385
H   H112      1.0  0.66470  0.40060  0.46380  1.0000 0.1095530168
H   H113      1.0  0.52420  0.28840  0.47460  1.0000 0.1379245372
H   H114      1.0  0.46260  0.25840  0.27040  1.0000 0.1379245372
H   H115      1.0  0.60350  0.37190  0.26620  1.0000 0.1190282385
H   H116      1.0  0.27720  0.09510  0.49300  1.0000 0.1190282385
H   H117      1.0  0.25850  0.06290  0.41280  1.0000 0.1190282385
H   H118      1.0  0.68390  0.61680  0.34230  1.0000 0.1095530168
H   H119      1.0  0.70110  0.75550  0.35470  1.0000 0.1379245372
H   H120      1.0  0.96810  0.84540  0.41720  1.0000 0.1379245372
H   H121      1.0  0.94240  0.70340  0.40540  1.0000 0.1095530168
H   H122      1.0  0.92490  0.06300  0.45830  1.0000 0.1190282385
H   H123      1.0  0.91970  0.06420  0.37760  1.0000 0.1024501459
H   H124      1.0  0.09780  0.02630  0.42750  1.0000 0.1307982223
H   H125      1.0  0.29540  0.27460  0.45090  1.0000 0.1190282385
H   H126      1.0  0.03170  0.21970  0.42410  1.0000 0.1190282385
C   C1        1.0  0.07200  0.25820  0.93410  1.0000 0.0785716738
C   C2        1.0  0.00030  0.27500  0.92494  1.0000 -0.1608556668
C   C3        1.0  0.91320  0.20610  0.91036  1.0000 0.0023917351
C   C4        1.0  0.90270  0.12280  0.90635  1.0000 -0.1507266006
C   C5        1.0  0.97820  0.11230  0.91688  1.0000 0.0785716738
C   C6        1.0  0.83050  0.21840  0.90128  1.0000 0.491390909
C   C7        1.0  0.77710  0.32080  0.91120  1.0000 -0.0703183455
C   C8        1.0  0.24460  0.00810  0.95120  1.0000 0.0635241252
C   C9        1.0  0.23480  0.92650  0.95000  1.0000 -0.1507266006
C   C10       1.0  0.14890  0.85690  0.93105  1.0000 -0.0025334662
C   C11       1.0  0.07690  0.87290  0.91538  1.0000 -0.1415375813
C   C12       1.0  0.09400  0.95760  0.91750  1.0000 0.0785716738
C   C13       1.0  0.13770  0.76750  0.92954  1.0000 0.491390909
C   C14       1.0  0.03330  0.61970  0.91740  1.0000 -0.0703183455
C   C15       1.0  0.30940  0.33450  0.87560  1.0000 0.0785716738
C   C16       1.0  0.38510  0.40640  0.86280  1.0000 -0.1507266006
C   C17       1.0  0.46610  0.43390  0.90437  1.0000 0.0023917351
C   C18       1.0  0.46590  0.39110  0.95910  1.0000 -0.1507266006
C   C19       1.0  0.38620  0.32230  0.97010  1.0000 0.0851248503
C   C20       1.0  0.55000  0.50870  0.88870  1.0000 0.4962997691
C   C21       1.0  0.71040  0.56820  0.89710  1.0000 -0.0703183455
C   C22       1.0  0.77670  0.53340  0.90506  1.0000 0.1190282385
C   C23       1.0  0.75000  0.44680  0.90620  1.0000 -0.2193077628
C   C24       1.0  0.81260  0.41610  0.91123  1.0000 0.1095530168
C   C25       1.0  0.90440  0.47370  0.91544  1.0000 -0.2256817183
C   C26       1.0  0.93280  0.56180  0.91419  1.0000 0.1095530168
C   C27       1.0  0.86910  0.59090  0.90920  1.0000 -0.2103775635
C   C28       1.0  0.24520  0.18900  0.19130  1.0000 0.491390909
C   C29       1.0  0.88070  0.04130  0.73157  1.0000 0.0785716738
C   C30       1.0  0.95380  0.02570  0.73992  1.0000 -0.1608556668
C   C31       1.0  0.04010  0.09420  0.75375  1.0000 0.0023917351
C   C32       1.0  0.04990  0.17700  0.75786  1.0000 -0.1415375813
C   C33       1.0  0.97410  0.18750  0.74838  1.0000 0.0785716738
C   C34       1.0  0.12370  0.08410  0.76405  1.0000 0.491390909
C   C35       1.0  0.18130  0.98460  0.75730  1.0000 -0.0775021103
C   C36       1.0  0.57600  0.99120  0.66240  1.0000 0.0785716738
C   C37       1.0  0.49030  0.92270  0.65860  1.0000 -0.1507266006
C   C38       1.0  0.45860  0.89060  0.71717  1.0000 -0.0025334662
C   C39       1.0  0.51500  0.92830  0.77820  1.0000 -0.1608556668
C   C40       1.0  0.60020  0.99630  0.77770  1.0000 0.0785716738
C   C41       1.0  0.36470  0.81650  0.71270  1.0000 0.491390909
C   C42       1.0  0.24740  0.73690  0.77620  1.0000 -0.0703183455
C   C43       1.0  0.71850  0.29730  0.71800  1.0000 0.0635241252
C   C44       1.0  0.72740  0.37850  0.71610  1.0000 -0.1507266006
C   C45       1.0  0.81250  0.44940  0.73048  1.0000 0.0023917351
C   C46       1.0  0.88560  0.43510  0.74578  1.0000 -0.1415375813
C   C47       1.0  0.87120  0.35180  0.74660  1.0000 0.0785716738
C   C48       1.0  0.82160  0.53750  0.72950  1.0000 0.491390909
C   C49       1.0  0.92520  0.68540  0.73960  1.0000 -0.0703183455
C   C50       1.0  0.02570  0.74330  0.74604  1.0000 0.1190282385
C   C51       1.0  0.05490  0.83110  0.74567  1.0000 -0.2103775635
C   C52       1.0  0.14630  0.88920  0.75487  1.0000 0.1095530168
C   C53       1.0  0.20940  0.85910  0.76387  1.0000 -0.2193077628
C   C54       1.0  0.18130  0.77180  0.76400  1.0000 0.1190282385
C   C55       1.0  0.08860  0.71400  0.75512  1.0000 -0.2103775635
C   C56       1.0  0.79120  0.16870  0.47860  1.0000 0.491390909
C   C57       1.0  0.10170  0.59050  0.60280  1.0000 0.0785716738
C   C58       1.0  0.02870  0.60520  0.58760  1.0000 -0.1608556668
C   C59       1.0  0.94170  0.53620  0.57685  1.0000 0.0052848403
C   C60       1.0  0.93160  0.45480  0.58260  1.0000 -0.1415375813
C   C61       1.0  0.00810  0.44630  0.59910  1.0000 0.071804223
C   C62       1.0  0.85860  0.54530  0.56196  1.0000 0.491390909
C   C63       1.0  0.80000  0.64320  0.55530  1.0000 -0.0775021103
C   C64       1.0  0.37760  0.62860  0.57600  1.0000 0.071804223
C   C65       1.0  0.46110  0.69560  0.56900  1.0000 -0.1507266006
C   C66       1.0  0.52250  0.73890  0.62651  1.0000 -0.0025334662
C   C67       1.0  0.49700  0.71290  0.68880  1.0000 -0.1507266006
C   C68       1.0  0.41300  0.64540  0.69080  1.0000 0.0785716738
C   C69       1.0  0.61460  0.81210  0.62410  1.0000 0.4962997691
C   C70       1.0  0.72350  0.88630  0.55250  1.0000 -0.0703183455
C   C71       1.0  0.25790  0.33610  0.64150  1.0000 0.071804223
C   C72       1.0  0.24820  0.25370  0.63470  1.0000 -0.1507266006
C   C73       1.0  0.16320  0.18460  0.61197  1.0000 0.0023917351
C   C74       1.0  0.09120  0.20070  0.59755  1.0000 -0.1415375813
C   C75       1.0  0.10720  0.28550  0.60510  1.0000 0.0785716738
C   C76       1.0  0.15310  0.09530  0.60437  1.0000 0.491390909
C   C77       1.0  0.04970  0.94700  0.58295  1.0000 -0.0775021103
C   C78       1.0  0.95020  0.88720  0.57505  1.0000 0.1190282385
C   C79       1.0  0.88450  0.91390  0.56969  1.0000 -0.2103775635
C   C80       1.0  0.79280  0.85390  0.56028  1.0000 0.1190282385
C   C81       1.0  0.76710  0.76660  0.55598  1.0000 -0.2193077628
C   C82       1.0  0.83270  0.73870  0.56172  1.0000 0.1190282385
C   C83       1.0  0.92360  0.79890  0.57154  1.0000 -0.2193077628
C   C84       1.0  0.20360  0.51310  0.89010  1.0000 0.4814565555
C   C85       1.0  0.92800  0.74180  0.06590  1.0000 0.0785716738
C   C86       1.0  0.99970  0.72500  0.07506  1.0000 -0.1608556668
C   C87       1.0  0.08680  0.79390  0.08964  1.0000 0.0023917351
C   C88       1.0  0.09730  0.87720  0.09365  1.0000 -0.1507266006
C   C89       1.0  0.02180  0.88770  0.08312  1.0000 0.0785716738
C   C90       1.0  0.16950  0.78160  0.09872  1.0000 0.491390909
C   C91       1.0  0.22290  0.67920  0.08880  1.0000 -0.0703183455
C   C92       1.0  0.75540  0.99190  0.04880  1.0000 0.0635241252
C   C93       1.0  0.76520  0.07350  0.05000  1.0000 -0.1507266006
C   C94       1.0  0.85110  0.14310  0.06895  1.0000 -0.0025334662
C   C95       1.0  0.92310  0.12710  0.08462  1.0000 -0.1415375813
C   C96       1.0  0.90600  0.04240  0.08250  1.0000 0.0785716738
C   C97       1.0  0.86230  0.23250  0.07046  1.0000 0.491390909
C   C98       1.0  0.96670  0.38030  0.08260  1.0000 -0.0703183455
C   C99       1.0  0.69060  0.66550  0.12440  1.0000 0.0785716738
C   C100      1.0  0.61490  0.59360  0.13720  1.0000 -0.1507266006
C   C101      1.0  0.53390  0.56610  0.09563  1.0000 0.0023917351
C   C102      1.0  0.53410  0.60890  0.04090  1.0000 -0.1507266006
C   C103      1.0  0.61380  0.67770  0.02990  1.0000 0.0851248503
C   C104      1.0  0.45000  0.49130  0.11130  1.0000 0.4962997691
C   C105      1.0  0.28960  0.43180  0.10290  1.0000 -0.0703183455
C   C106      1.0  0.22330  0.46660  0.09494  1.0000 0.1190282385
C   C107      1.0  0.25000  0.55320  0.09380  1.0000 -0.2193077628
C   C108      1.0  0.18740  0.58390  0.08877  1.0000 0.1095530168
C   C109      1.0  0.09560  0.52630  0.08456  1.0000 -0.2256817183
C   C110      1.0  0.06720  0.43820  0.08581  1.0000 0.1095530168
C   C111      1.0  0.13090  0.40910  0.09080  1.0000 -0.2103775635
C   C112      1.0  0.75480  0.81100  0.80870  1.0000 0.491390909
C   C113      1.0  0.11930  0.95870  0.26843  1.0000 0.0785716738
C   C114      1.0  0.04620  0.97430  0.26008  1.0000 -0.1608556668
C   C115      1.0  0.95990  0.90580  0.24625  1.0000 0.0023917351
C   C116      1.0  0.95010  0.82300  0.24214  1.0000 -0.1415375813
C   C117      1.0  0.02590  0.81250  0.25162  1.0000 0.0785716738
C   C118      1.0  0.87630  0.91590  0.23595  1.0000 0.491390909
C   C119      1.0  0.81870  0.01540  0.24270  1.0000 -0.0775021103
C   C120      1.0  0.42400  0.00880  0.33760  1.0000 0.0785716738
C   C121      1.0  0.50970  0.07730  0.34140  1.0000 -0.1507266006
C   C122      1.0  0.54140  0.10940  0.28283  1.0000 -0.0025334662
C   C123      1.0  0.48500  0.07170  0.22180  1.0000 -0.1608556668
C   C124      1.0  0.39980  0.00370  0.22230  1.0000 0.0785716738
C   C125      1.0  0.63530  0.18350  0.28730  1.0000 0.491390909
C   C126      1.0  0.75260  0.26310  0.22380  1.0000 -0.0703183455
C   C127      1.0  0.28150  0.70270  0.28200  1.0000 0.0635241252
C   C128      1.0  0.27260  0.62150  0.28390  1.0000 -0.1507266006
C   C129      1.0  0.18750  0.55060  0.26952  1.0000 0.0023917351
C   C130      1.0  0.11440  0.56490  0.25422  1.0000 -0.1415375813
C   C131      1.0  0.12880  0.64820  0.25340  1.0000 0.0785716738
C   C132      1.0  0.17840  0.46250  0.27050  1.0000 0.491390909
C   C133      1.0  0.07480  0.31460  0.26040  1.0000 -0.0703183455
C   C134      1.0  0.97430  0.25670  0.25396  1.0000 0.1190282385
C   C135      1.0  0.94510  0.16890  0.25433  1.0000 -0.2103775635
C   C136      1.0  0.85370  0.11080  0.24513  1.0000 0.1095530168
C   C137      1.0  0.79060  0.14090  0.23613  1.0000 -0.2193077628
C   C138      1.0  0.81870  0.22820  0.23600  1.0000 0.1190282385
C   C139      1.0  0.91140  0.28600  0.24488  1.0000 -0.2103775635
C   C140      1.0  0.20880  0.83130  0.52140  1.0000 0.4962997691
C   C141      1.0  0.89830  0.40950  0.39720  1.0000 0.0785716738
C   C142      1.0  0.97130  0.39480  0.41240  1.0000 -0.1608556668
C   C143      1.0  0.05830  0.46380  0.42315  1.0000 0.0052848403
C   C144      1.0  0.06840  0.54520  0.41740  1.0000 -0.1415375813
C   C145      1.0  0.99190  0.55370  0.40090  1.0000 0.071804223
C   C146      1.0  0.14140  0.45470  0.43804  1.0000 0.491390909
C   C147      1.0  0.20000  0.35680  0.44470  1.0000 -0.0775021103
C   C148      1.0  0.62240  0.37140  0.42400  1.0000 0.071804223
C   C149      1.0  0.53890  0.30440  0.43100  1.0000 -0.1507266006
C   C150      1.0  0.47750  0.26110  0.37349  1.0000 -0.0025334662
C   C151      1.0  0.50300  0.28710  0.31120  1.0000 -0.1507266006
C   C152      1.0  0.58700  0.35460  0.30920  1.0000 0.0785716738
C   C153      1.0  0.38540  0.18790  0.37590  1.0000 0.4962997691
C   C154      1.0  0.27650  0.11370  0.44750  1.0000 -0.0703183455
C   C155      1.0  0.74210  0.66390  0.35850  1.0000 0.071804223
C   C156      1.0  0.75180  0.74630  0.36530  1.0000 -0.1507266006
C   C157      1.0  0.83680  0.81540  0.38803  1.0000 0.0023917351
C   C158      1.0  0.90880  0.79930  0.40245  1.0000 -0.1415375813
C   C159      1.0  0.89280  0.71450  0.39490  1.0000 0.0785716738
C   C160      1.0  0.84690  0.90470  0.39563  1.0000 0.491390909
C   C161      1.0  0.95030  0.05300  0.41705  1.0000 -0.0775021103
C   C162      1.0  0.04980  0.11280  0.42495  1.0000 0.1190282385
C   C163      1.0  0.11550  0.08610  0.43031  1.0000 -0.2103775635
C   C164      1.0  0.20720  0.14610  0.43972  1.0000 0.1190282385
C   C165      1.0  0.23290  0.23340  0.44402  1.0000 -0.2193077628
C   C166      1.0  0.16730  0.26130  0.43828  1.0000 0.1190282385
C   C167      1.0  0.07640  0.20110  0.42846  1.0000 -0.2193077628
C   C168      1.0  0.79640  0.48690  0.10990  1.0000 0.4814565555
S   S1        1.0  0.18219  0.18030  0.11146  1.0000 0.9696487264
S   S2        1.0  0.82547  0.15384  0.56254  1.0000 0.9696487264
S   S3        1.0  0.16319  0.47630  0.80084  1.0000 0.9604344145
S   S4        1.0  0.81781  0.81970  0.88854  1.0000 0.9696487264
S   S5        1.0  0.17453  0.84616  0.43746  1.0000 0.9696487264
S   S6        1.0  0.83681  0.52370  0.19916  1.0000 0.9604344145
N   N1        1.0  0.06290  0.17834  0.93044  1.0000 -0.2103775635
N   N2        1.0  0.17650  0.02562  0.93487  1.0000 -0.189826548
N   N3        1.0  0.30850  0.29190  0.92795  1.0000 -0.1984968359
N   N4        1.0  0.88960  0.12112  0.73524  1.0000 -0.1984968359
N   N5        1.0  0.63110  0.02840  0.72112  1.0000 -0.1801656987
N   N6        1.0  0.78900  0.28270  0.73318  1.0000 -0.189826548
N   N7        1.0  0.09230  0.51210  0.60867  1.0000 -0.1984968359
N   N8        1.0  0.35280  0.60230  0.63548  1.0000 -0.189826548
N   N9        1.0  0.18910  0.35279  0.62643  1.0000 -0.189826548
N   N10       1.0  0.93710  0.82166  0.06956  1.0000 -0.2103775635
N   N11       1.0  0.82350  0.97438  0.06513  1.0000 -0.189826548
N   N12       1.0  0.69150  0.70810  0.07205  1.0000 -0.1984968359
N   N13       1.0  0.11040  0.87888  0.26476  1.0000 -0.1984968359
N   N14       1.0  0.36890  0.97160  0.27888  1.0000 -0.1801656987
N   N15       1.0  0.21100  0.71730  0.26682  1.0000 -0.189826548
N   N16       1.0  0.90770  0.48790  0.39133  1.0000 -0.1984968359
N   N17       1.0  0.64720  0.39770  0.36452  1.0000 -0.189826548
N   N18       1.0  0.81090  0.64721  0.37357  1.0000 -0.189826548
O   O1        1.0  0.75466  0.16032  0.88659  1.0000 -0.4817363843
O   O2        1.0  0.85236  0.30187  0.91270  1.0000 -0.2103775635
O   O3        1.0  0.19986  0.75174  0.93836  1.0000 -0.4514021252
O   O4        1.0  0.05023  0.70805  0.91870  1.0000 -0.2103775635
O   O5        1.0  0.55070  0.56464  0.85851  1.0000 -0.4579007401
O   O6        1.0  0.62330  0.50365  0.91287  1.0000 -0.2363108917
O   O7        1.0  0.11740  0.09117  0.09690  1.0000 -0.5688416783
O   O8        1.0  0.14540  0.23799  0.12551  1.0000 -0.5591171607
O   O9        1.0  0.25140  0.20810  0.06700  1.0000 -0.5591171607
O   O10       1.0  0.19870  0.14279  0.78030  1.0000 -0.4579007401
O   O11       1.0  0.10475  0.00148  0.75143  1.0000 -0.2103775635
O   O12       1.0  0.31862  0.77710  0.66026  1.0000 -0.4514021252
O   O13       1.0  0.33999  0.80129  0.77473  1.0000 -0.2193077628
O   O14       1.0  0.75882  0.55239  0.72308  1.0000 -0.4339468404
O   O15       1.0  0.90848  0.59689  0.73616  1.0000 -0.2103775635
O   O16       1.0  0.74130  0.11720  0.59096  1.0000 -0.5591171607
O   O17       1.0  0.86240  0.09603  0.55021  1.0000 -0.5591171607
O   O18       1.0  0.88950  0.23931  0.59365  1.0000 -0.5688416783
O   O19       1.0  0.78324  0.48619  0.55127  1.0000 -0.466433905
O   O20       1.0  0.87799  0.62834  0.56414  1.0000 -0.2193077628
O   O21       1.0  0.66460  0.85783  0.67327  1.0000 -0.4514021252
O   O22       1.0  0.63319  0.82031  0.55999  1.0000 -0.2256817183
O   O23       1.0  0.21553  0.07948  0.60884  1.0000 -0.4406546279
O   O24       1.0  0.06599  0.03556  0.59319  1.0000 -0.2103775635
O   O25       1.0  0.24340  0.51680  0.76992  1.0000 -0.5423964783
O   O26       1.0  0.10520  0.51540  0.78690  1.0000 -0.5688416783
O   O27       1.0  0.12250  0.38700  0.79500  1.0000 -0.5423964783
O   O28       1.0  0.24534  0.83968  0.11341  1.0000 -0.4817363843
O   O29       1.0  0.14764  0.69813  0.08730  1.0000 -0.2103775635
O   O30       1.0  0.80014  0.24826  0.06164  1.0000 -0.4514021252
O   O31       1.0  0.94977  0.29195  0.08130  1.0000 -0.2103775635
O   O32       1.0  0.44930  0.43536  0.14149  1.0000 -0.4579007401
O   O33       1.0  0.37670  0.49635  0.08713  1.0000 -0.2363108917
O   O34       1.0  0.88260  0.90883  0.90310  1.0000 -0.5688416783
O   O35       1.0  0.85460  0.76201  0.87449  1.0000 -0.5591171607
O   O36       1.0  0.74860  0.79190  0.93300  1.0000 -0.5591171607
O   O37       1.0  0.80130  0.85721  0.21970  1.0000 -0.4579007401
O   O38       1.0  0.89525  0.99852  0.24857  1.0000 -0.2103775635
O   O39       1.0  0.68138  0.22290  0.33974  1.0000 -0.4514021252
O   O40       1.0  0.66001  0.19871  0.22527  1.0000 -0.2193077628
O   O41       1.0  0.24118  0.44761  0.27692  1.0000 -0.4339468404
O   O42       1.0  0.09152  0.40311  0.26384  1.0000 -0.2103775635
O   O43       1.0  0.25870  0.88280  0.40904  1.0000 -0.5591171607
O   O44       1.0  0.13760  0.90397  0.44979  1.0000 -0.5591171607
O   O45       1.0  0.11050  0.76069  0.40635  1.0000 -0.5688416783
O   O46       1.0  0.21676  0.51381  0.44873  1.0000 -0.466433905
O   O47       1.0  0.12201  0.37166  0.43586  1.0000 -0.2193077628
O   O48       1.0  0.33540  0.14217  0.32673  1.0000 -0.4514021252
O   O49       1.0  0.36681  0.17969  0.44001  1.0000 -0.2256817183
O   O50       1.0  0.78447  0.92052  0.39116  1.0000 -0.4406546279
O   O51       1.0  0.93401  0.96444  0.40681  1.0000 -0.2103775635
O   O52       1.0  0.75660  0.48320  0.23008  1.0000 -0.5423964783
O   O53       1.0  0.89480  0.48460  0.21310  1.0000 -0.5688416783
O   O54       1.0  0.87750  0.61300  0.20500  1.0000 -0.5423964783
F   F1        1.0  0.31350  0.26610  0.21015  1.0000 -0.1608556668
F   F2        1.0  0.27760  0.13210  0.18681  1.0000 -0.189826548
F   F3        1.0  0.19260  0.17090  0.24099  1.0000 -0.1801656987
F   F4        1.0  0.72430  0.09810  0.44482  1.0000 -0.1666439398
F   F5        1.0  0.76580  0.22980  0.48227  1.0000 -0.1801656987
F   F6        1.0  0.85940  0.19310  0.44041  1.0000 -0.189826548
F   F7        1.0  0.25570  0.48540  0.91410  1.0000 -0.1608556668
F   F8        1.0  0.13210  0.48380  0.92618  1.0000 -0.1801656987
F   F9        1.0  0.23950  0.59556  0.90579  1.0000 -0.1608556668
F   F10       1.0  0.68650  0.73390  0.78985  1.0000 -0.1608556668
F   F11       1.0  0.72240  0.86790  0.81319  1.0000 -0.189826548
F   F12       1.0  0.80740  0.82910  0.75901  1.0000 -0.1801656987
F   F13       1.0  0.27570  0.90190  0.55518  1.0000 -0.1666439398
F   F14       1.0  0.23420  0.77020  0.51773  1.0000 -0.1801656987
F   F15       1.0  0.14060  0.80690  0.55959  1.0000 -0.189826548
F   F16       1.0  0.74430  0.51460  0.08590  1.0000 -0.1608556668
F   F17       1.0  0.86790  0.51620  0.07382  1.0000 -0.1801656987
F   F18       1.0  0.76050  0.40444  0.09421  1.0000 -0.1608556668
