# DDEC6 charges by PACMAN v1.1 (https://github.com/mtap-research/PACMAN-charge/)
data_2017[Zn][pcu]3[FSR]8
_chemical_formula_sum              "Zn2 H56 C60 N22"
_cell_length_a       15.5713
_cell_length_b       15.5713
_cell_length_c       8.658
_cell_angle_alpha    87.501
_cell_angle_beta     92.499
_cell_angle_gamma    74.7708

_symmetry_space_group_name_H-M    "P 1"
_symmetry_Int_Tables_number       1

loop_
  _symmetry_equiv_pos_as_xyz
  'x, y, z'

loop_
  _atom_site_type_symbol
  _atom_site_label
  _atom_site_symmetry_multiplicity
  _atom_site_fract_x
  _atom_site_fract_y
  _atom_site_fract_z
  _atom_site_occupancy
  _atom_site_charge
Zn  Zn1       1.0  0.19000  0.19000  0.25000  1.0000 0.6578945958
Zn  Zn2       1.0  0.81000  0.81000  0.75000  1.0000 0.6578945958
H   H1        1.0  0.24500  0.34520  0.08290  1.0000 0.1053228744
H   H2        1.0  0.23630  0.49310  0.09780  1.0000 0.1381085322
H   H3        1.0  0.08660  0.49620  0.46240  1.0000 0.1315332756
H   H4        1.0  0.10090  0.34790  0.43810  1.0000 0.1014460964
H   H5        1.0  0.04360  0.62400  0.42880  1.0000 0.1315332756
H   H6        1.0  0.09920  0.69240  0.46250  1.0000 0.1381085322
H   H7        1.0  0.03420  0.70740  0.31460  1.0000 0.1506124728
H   H8        1.0  0.37950  0.73710  0.37320  1.0000 0.1315332756
H   H9        1.0  0.32950  0.66690  0.42760  1.0000 0.1506124728
H   H10       1.0  0.36860  0.66280  0.26340  1.0000 0.1506124728
H   H11       1.0  0.34090  0.86650  0.41180  1.0000 0.123213812
H   H12       1.0  0.31270  0.01710  0.40170  1.0000 0.1014460964
H   H13       1.0  0.11500  0.04020  0.09840  1.0000 0.1014460964
H   H14       1.0  0.13500  0.89120  0.10750  1.0000 0.1315332756
H   H15       1.0  0.34520  0.24500  0.41710  1.0000 0.1053228744
H   H16       1.0  0.49310  0.23630  0.40220  1.0000 0.1381085322
H   H17       1.0  0.49620  0.08660  0.03760  1.0000 0.1315332756
H   H18       1.0  0.34790  0.10090  0.06190  1.0000 0.1014460964
H   H19       1.0  0.62400  0.04360  0.07120  1.0000 0.1315332756
H   H20       1.0  0.69240  0.09920  0.03750  1.0000 0.1381085322
H   H21       1.0  0.70740  0.03420  0.18540  1.0000 0.1506124728
H   H22       1.0  0.73710  0.37950  0.12680  1.0000 0.1315332756
H   H23       1.0  0.66690  0.32950  0.07240  1.0000 0.1506124728
H   H24       1.0  0.66280  0.36860  0.23660  1.0000 0.1506124728
H   H25       1.0  0.86650  0.34090  0.08820  1.0000 0.123213812
H   H26       1.0  0.01710  0.31270  0.09830  1.0000 0.1014460964
H   H27       1.0  0.04020  0.11500  0.40160  1.0000 0.1014460964
H   H28       1.0  0.89120  0.13500  0.39250  1.0000 0.1315332756
H   H29       1.0  0.75500  0.65480  0.91710  1.0000 0.1053228744
H   H30       1.0  0.76370  0.50690  0.90220  1.0000 0.1381085322
H   H31       1.0  0.91340  0.50380  0.53760  1.0000 0.1315332756
H   H32       1.0  0.89910  0.65210  0.56190  1.0000 0.1014460964
H   H33       1.0  0.95640  0.37600  0.57120  1.0000 0.1315332756
H   H34       1.0  0.90080  0.30760  0.53750  1.0000 0.1381085322
H   H35       1.0  0.96580  0.29260  0.68540  1.0000 0.1506124728
H   H36       1.0  0.62050  0.26290  0.62680  1.0000 0.1315332756
H   H37       1.0  0.67050  0.33310  0.57240  1.0000 0.1506124728
H   H38       1.0  0.63140  0.33720  0.73660  1.0000 0.1506124728
H   H39       1.0  0.65910  0.13350  0.58820  1.0000 0.123213812
H   H40       1.0  0.68730  0.98290  0.59830  1.0000 0.1014460964
H   H41       1.0  0.88500  0.95980  0.90160  1.0000 0.1014460964
H   H42       1.0  0.86500  0.10880  0.89250  1.0000 0.1315332756
H   H43       1.0  0.65480  0.75500  0.58290  1.0000 0.1053228744
H   H44       1.0  0.50690  0.76370  0.59780  1.0000 0.1381085322
H   H45       1.0  0.50380  0.91340  0.96240  1.0000 0.1315332756
H   H46       1.0  0.65210  0.89910  0.93810  1.0000 0.1014460964
H   H47       1.0  0.37600  0.95640  0.92880  1.0000 0.1315332756
H   H48       1.0  0.30760  0.90080  0.96250  1.0000 0.1381085322
H   H49       1.0  0.29260  0.96580  0.81460  1.0000 0.1506124728
H   H50       1.0  0.26290  0.62050  0.87320  1.0000 0.1315332756
H   H51       1.0  0.33310  0.67050  0.92760  1.0000 0.1506124728
H   H52       1.0  0.33720  0.63140  0.76340  1.0000 0.1506124728
H   H53       1.0  0.13350  0.65910  0.91180  1.0000 0.123213812
H   H54       1.0  0.98290  0.68730  0.90170  1.0000 0.1014460964
H   H55       1.0  0.95980  0.88500  0.59840  1.0000 0.1014460964
H   H56       1.0  0.10880  0.86500  0.60750  1.0000 0.1315332756
C   C1        1.0  0.21266  0.37634  0.16020  1.0000 0.0683225998
C   C2        1.0  0.20734  0.46514  0.16780  1.0000 -0.1915627986
C   C3        1.0  0.15791  0.51371  0.28150  1.0000 0.0830298395
C   C4        1.0  0.11905  0.46725  0.38330  1.0000 -0.1915627986
C   C5        1.0  0.12816  0.37776  0.36800  1.0000 0.0683225998
C   C6        1.0  0.14845  0.61085  0.29280  1.0000 0.2353189134
C   C7        1.0  0.07480  0.66340  0.38270  1.0000 -0.501375056
C   C8        1.0  0.25440  0.76180  0.27280  1.0000 0.254394307
C   C9        1.0  0.34080  0.70180  0.34030  1.0000 -0.501375056
C   C10       1.0  0.23943  0.85983  0.26400  1.0000 0.0683225998
C   C11       1.0  0.29322  0.90082  0.34890  1.0000 -0.1769006073
C   C12       1.0  0.27659  0.99139  0.34070  1.0000 0.0683225998
C   C13       1.0  0.16061  0.00461  0.16420  1.0000 0.0683225998
C   C14       1.0  0.17229  0.91529  0.16870  1.0000 -0.1769006073
C   C15       1.0  0.16740  0.17900  0.88290  1.0000 0.4388983988
C   C16       1.0  0.37634  0.21266  0.33980  1.0000 0.0683225998
C   C17       1.0  0.46514  0.20734  0.33220  1.0000 -0.1915627986
C   C18       1.0  0.51371  0.15791  0.21850  1.0000 0.0830298395
C   C19       1.0  0.46725  0.11905  0.11670  1.0000 -0.1915627986
C   C20       1.0  0.37776  0.12816  0.13200  1.0000 0.0683225998
C   C21       1.0  0.61085  0.14845  0.20720  1.0000 0.2353189134
C   C22       1.0  0.66340  0.07480  0.11730  1.0000 -0.501375056
C   C23       1.0  0.76180  0.25440  0.22720  1.0000 0.254394307
C   C24       1.0  0.70180  0.34080  0.15970  1.0000 -0.501375056
C   C25       1.0  0.85983  0.23943  0.23600  1.0000 0.0683225998
C   C26       1.0  0.90082  0.29322  0.15110  1.0000 -0.1769006073
C   C27       1.0  0.99139  0.27659  0.15930  1.0000 0.0683225998
C   C28       1.0  0.00461  0.16061  0.33580  1.0000 0.0683225998
C   C29       1.0  0.91529  0.17229  0.33130  1.0000 -0.1769006073
C   C30       1.0  0.17900  0.16740  0.61710  1.0000 0.4388983988
C   C31       1.0  0.78734  0.62366  0.83980  1.0000 0.0683225998
C   C32       1.0  0.79266  0.53486  0.83220  1.0000 -0.1915627986
C   C33       1.0  0.84209  0.48629  0.71850  1.0000 0.0830298395
C   C34       1.0  0.88095  0.53275  0.61670  1.0000 -0.1915627986
C   C35       1.0  0.87184  0.62224  0.63200  1.0000 0.0683225998
C   C36       1.0  0.85155  0.38915  0.70720  1.0000 0.2353189134
C   C37       1.0  0.92520  0.33660  0.61730  1.0000 -0.501375056
C   C38       1.0  0.74560  0.23820  0.72720  1.0000 0.2555894398
C   C39       1.0  0.65920  0.29820  0.65970  1.0000 -0.501375056
C   C40       1.0  0.76057  0.14017  0.73600  1.0000 0.0643736341
C   C41       1.0  0.70678  0.09918  0.65110  1.0000 -0.1769006073
C   C42       1.0  0.72341  0.00861  0.65930  1.0000 0.0683225998
C   C43       1.0  0.83939  0.99539  0.83580  1.0000 0.0683225998
C   C44       1.0  0.82771  0.08471  0.83130  1.0000 -0.1769006073
C   C45       1.0  0.83260  0.82100  0.11710  1.0000 0.4388983988
C   C46       1.0  0.62366  0.78734  0.66020  1.0000 0.0683225998
C   C47       1.0  0.53486  0.79266  0.66780  1.0000 -0.1915627986
C   C48       1.0  0.48629  0.84209  0.78150  1.0000 0.0830298395
C   C49       1.0  0.53275  0.88095  0.88330  1.0000 -0.1915627986
C   C50       1.0  0.62224  0.87184  0.86800  1.0000 0.0683225998
C   C51       1.0  0.38915  0.85155  0.79280  1.0000 0.2353189134
C   C52       1.0  0.33660  0.92520  0.88270  1.0000 -0.501375056
C   C53       1.0  0.23820  0.74560  0.77280  1.0000 0.254394307
C   C54       1.0  0.29820  0.65920  0.84030  1.0000 -0.501375056
C   C55       1.0  0.14017  0.76057  0.76400  1.0000 0.0683225998
C   C56       1.0  0.09918  0.70678  0.84890  1.0000 -0.1769006073
C   C57       1.0  0.00861  0.72341  0.84070  1.0000 0.0683225998
C   C58       1.0  0.99539  0.83939  0.66420  1.0000 0.0683225998
C   C59       1.0  0.08471  0.82771  0.66870  1.0000 -0.1769006073
C   C60       1.0  0.82100  0.83260  0.38290  1.0000 0.4388983988
N   N1        1.0  0.17353  0.33207  0.25890  1.0000 -0.2233979262
N   N2        1.0  0.20207  0.64259  0.21820  1.0000 -0.2389200635
N   N3        1.0  0.18932  0.73450  0.21900  1.0000 -0.2536980367
N   N4        1.0  0.21107  0.04497  0.24930  1.0000 -0.2389200635
N   N5        1.0  0.17562  0.19788  0.00250  1.0000 -0.5232753164
N   N6        1.0  0.33207  0.17353  0.24110  1.0000 -0.2233979262
N   N7        1.0  0.64259  0.20207  0.28180  1.0000 -0.2389200635
N   N8        1.0  0.73450  0.18932  0.28100  1.0000 -0.2536980367
N   N9        1.0  0.04497  0.21107  0.25070  1.0000 -0.2389200635
N   N10       1.0  0.19788  0.17562  0.49750  1.0000 -0.5232753164
N   N11       1.0  0.14620  0.14620  0.75000  1.0000 -0.501375056
N   N12       1.0  0.82647  0.66793  0.74110  1.0000 -0.2233979262
N   N13       1.0  0.79793  0.35741  0.78180  1.0000 -0.2389200635
N   N14       1.0  0.81068  0.26550  0.78100  1.0000 -0.2536980367
N   N15       1.0  0.78893  0.95503  0.75070  1.0000 -0.2389200635
N   N16       1.0  0.82438  0.80212  0.99750  1.0000 -0.5232753164
N   N17       1.0  0.66793  0.82647  0.75890  1.0000 -0.2233979262
N   N18       1.0  0.35741  0.79793  0.71820  1.0000 -0.2389200635
N   N19       1.0  0.26550  0.81068  0.71900  1.0000 -0.2536980367
N   N20       1.0  0.95503  0.78893  0.74930  1.0000 -0.2389200635
N   N21       1.0  0.80212  0.82438  0.50250  1.0000 -0.5232753164
N   N22       1.0  0.85380  0.85380  0.25000  1.0000 -0.501375056
