# DDEC6 charges by PACMAN v1.1 (https://github.com/mtap-research/PACMAN-charge/)
data_2017[Ag][hcb]2[FSR]18
_chemical_formula_sum              "Ag2 H42 C56 S2 N6 O18 F6"
_cell_length_a       9.4262
_cell_length_b       12.8955
_cell_length_c       15.5606
_cell_angle_alpha    109.663
_cell_angle_beta     92.663
_cell_angle_gamma    103.146

_symmetry_space_group_name_H-M    "P 1"
_symmetry_Int_Tables_number       1

loop_
  _symmetry_equiv_pos_as_xyz
  'x, y, z'

loop_
  _atom_site_type_symbol
  _atom_site_label
  _atom_site_symmetry_multiplicity
  _atom_site_fract_x
  _atom_site_fract_y
  _atom_site_fract_z
  _atom_site_occupancy
  _atom_site_charge
Ag  Ag1       1.0  0.73883  0.40445  0.78347  1.0000 0.2956476243
Ag  Ag2       1.0  0.26117  0.59555  0.21653  1.0000 0.2956476243
H   H1        1.0  0.71190  0.61150  0.13100  1.0000 0.1382237108
H   H2        1.0  0.76800  0.48400  0.00140  1.0000 0.1105926487
H   H3        1.0  0.58010  0.60680  0.84020  1.0000 0.1105926487
H   H4        1.0  0.51950  0.73890  0.96570  1.0000 0.1317734476
H   H5        1.0  0.42240  0.89580  0.24570  1.0000 0.1105926487
H   H6        1.0  0.56920  0.98400  0.24010  1.0000 0.1190998441
H   H7        1.0  0.00800  0.08240  0.68980  1.0000 0.1382237108
H   H8        1.0  0.87660  0.20590  0.67330  1.0000 0.1105926487
H   H9        1.0  0.86270  0.32770  0.93890  1.0000 0.1105926487
H   H10       1.0  0.99570  0.20800  0.96390  1.0000 0.1382237108
H   H11       1.0  0.15480  0.91270  0.91900  1.0000 0.1190998441
H   H12       1.0  0.30770  0.99480  0.91390  1.0000 0.1030228914
H   H13       1.0  0.29560  0.28820  0.52730  1.0000 0.1382237108
H   H14       1.0  0.42050  0.31940  0.66950  1.0000 0.1105926487
H   H15       1.0  0.79570  0.44740  0.59870  1.0000 0.1190998441
H   H16       1.0  0.68210  0.42130  0.45450  1.0000 0.1317734476
H   H17       1.0  0.08730  0.20090  0.27130  1.0000 0.1190998441
H   H18       1.0  0.21050  0.29640  0.25290  1.0000 0.1190998441
H   H19       1.0  0.36150  0.09440  0.29700  1.0000 0.1190998441
H   H20       1.0  0.37940  0.91040  0.03190  1.0000 0.1190998441
H   H21       1.0  0.15270  0.15160  0.09110  1.0000 0.1317734476
H   H22       1.0  0.28810  0.38850  0.86900  1.0000 0.1382237108
H   H23       1.0  0.23200  0.51600  0.99860  1.0000 0.1105926487
H   H24       1.0  0.41990  0.39320  0.15980  1.0000 0.1105926487
H   H25       1.0  0.48050  0.26110  0.03430  1.0000 0.1317734476
H   H26       1.0  0.57760  0.10420  0.75430  1.0000 0.1105926487
H   H27       1.0  0.43080  0.01600  0.75990  1.0000 0.1190998441
H   H28       1.0  0.99200  0.91760  0.31020  1.0000 0.1382237108
H   H29       1.0  0.12340  0.79410  0.32670  1.0000 0.1105926487
H   H30       1.0  0.13730  0.67230  0.06110  1.0000 0.1105926487
H   H31       1.0  0.00430  0.79200  0.03610  1.0000 0.1382237108
H   H32       1.0  0.84520  0.08730  0.08100  1.0000 0.1190998441
H   H33       1.0  0.69230  0.00520  0.08610  1.0000 0.1030228914
H   H34       1.0  0.70440  0.71180  0.47270  1.0000 0.1382237108
H   H35       1.0  0.57950  0.68060  0.33050  1.0000 0.1105926487
H   H36       1.0  0.20430  0.55260  0.40130  1.0000 0.1190998441
H   H37       1.0  0.31790  0.57870  0.54550  1.0000 0.1317734476
H   H38       1.0  0.91270  0.79910  0.72870  1.0000 0.1190998441
H   H39       1.0  0.78950  0.70360  0.74710  1.0000 0.1190998441
H   H40       1.0  0.63850  0.90560  0.70300  1.0000 0.1190998441
H   H41       1.0  0.62060  0.08960  0.96810  1.0000 0.1190998441
H   H42       1.0  0.84730  0.84840  0.90890  1.0000 0.1317734476
C   C1        1.0  0.68340  0.61190  0.07182  1.0000 -0.1478210408
C   C2        1.0  0.71620  0.53640  0.99427  1.0000 0.0719483824
C   C3        1.0  0.60690  0.60800  0.90020  1.0000 0.0810635307
C   C4        1.0  0.57020  0.68670  0.97451  1.0000 -0.1660516156
C   C5        1.0  0.60830  0.68875  0.06241  1.0000 5.36548e-05
C   C6        1.0  0.57490  0.77180  0.14683  1.0000 0.490682754
C   C7        1.0  0.47590  0.93010  0.20454  1.0000 -0.0774143009
C   C8        1.0  0.97940  0.13250  0.74236  1.0000 -0.1478210408
C   C9        1.0  0.90070  0.20600  0.73324  1.0000 0.058143671
C   C10       1.0  0.89270  0.27690  0.88748  1.0000 0.0810635307
C   C11       1.0  0.97220  0.20590  0.90320  1.0000 -0.1478210408
C   C12       1.0  0.01680  0.13210  0.82923  1.0000 -0.0012057736
C   C13       1.0  0.10170  0.05150  0.83948  1.0000 0.490682754
C   C14       1.0  0.21790  0.99180  0.94443  1.0000 -0.0731359391
C   C15       1.0  0.39880  0.32070  0.54027  1.0000 -0.1569938554
C   C16       1.0  0.47440  0.33950  0.62478  1.0000 0.0810635307
C   C17       1.0  0.69270  0.41410  0.58363  1.0000 0.0810635307
C   C18       1.0  0.62610  0.39880  0.49745  1.0000 -0.1569938554
C   C19       1.0  0.47640  0.35010  0.47522  1.0000 -0.0012057736
C   C20       1.0  0.40460  0.33110  0.38150  1.0000 0.4955716164
C   C21       1.0  0.19430  0.22930  0.27215  1.0000 -0.0731359391
C   C22       1.0  0.33550  0.07740  0.23306  1.0000 -0.2180932555
C   C23       1.0  0.38390  0.99220  0.16882  1.0000 0.1105926487
C   C24       1.0  0.34580  0.96768  0.07600  1.0000 -0.2180932555
C   C25       1.0  0.25820  0.02653  0.04658  1.0000 0.1105926487
C   C26       1.0  0.21160  0.11104  0.11102  1.0000 -0.2033309793
C   C27       1.0  0.25020  0.13737  0.20489  1.0000 0.1190998441
C   C28       1.0  0.21860  0.64120  0.77400  1.0000 0.490682754
C   C29       1.0  0.31660  0.38810  0.92818  1.0000 -0.1478210408
C   C30       1.0  0.28380  0.46360  0.00573  1.0000 0.0719483824
C   C31       1.0  0.39310  0.39200  0.09980  1.0000 0.0810635307
C   C32       1.0  0.42980  0.31330  0.02549  1.0000 -0.1660516156
C   C33       1.0  0.39170  0.31125  0.93759  1.0000 5.36548e-05
C   C34       1.0  0.42510  0.22820  0.85317  1.0000 0.490682754
C   C35       1.0  0.52410  0.06990  0.79546  1.0000 -0.0774143009
C   C36       1.0  0.02060  0.86750  0.25764  1.0000 -0.1478210408
C   C37       1.0  0.09930  0.79400  0.26676  1.0000 0.058143671
C   C38       1.0  0.10730  0.72310  0.11252  1.0000 0.0810635307
C   C39       1.0  0.02780  0.79410  0.09680  1.0000 -0.1478210408
C   C40       1.0  0.98320  0.86790  0.17077  1.0000 -0.0012057736
C   C41       1.0  0.89830  0.94850  0.16052  1.0000 0.490682754
C   C42       1.0  0.78210  0.00820  0.05557  1.0000 -0.0731359391
C   C43       1.0  0.60120  0.67930  0.45973  1.0000 -0.1569938554
C   C44       1.0  0.52560  0.66050  0.37522  1.0000 0.0810635307
C   C45       1.0  0.30730  0.58590  0.41637  1.0000 0.0810635307
C   C46       1.0  0.37390  0.60120  0.50255  1.0000 -0.1569938554
C   C47       1.0  0.52360  0.64990  0.52478  1.0000 -0.0012057736
C   C48       1.0  0.59540  0.66890  0.61850  1.0000 0.4955716164
C   C49       1.0  0.80570  0.77070  0.72785  1.0000 -0.0731359391
C   C50       1.0  0.66450  0.92260  0.76694  1.0000 -0.2180932555
C   C51       1.0  0.61610  0.00780  0.83118  1.0000 0.1105926487
C   C52       1.0  0.65420  0.03232  0.92400  1.0000 -0.2180932555
C   C53       1.0  0.74180  0.97347  0.95342  1.0000 0.1105926487
C   C54       1.0  0.78840  0.88896  0.88898  1.0000 -0.2033309793
C   C55       1.0  0.74980  0.86263  0.79511  1.0000 0.1190998441
C   C56       1.0  0.78140  0.35880  0.22600  1.0000 0.490682754
S   S1        1.0  0.05630  0.61111  0.82809  1.0000 0.967062238
S   S2        1.0  0.94370  0.38889  0.17191  1.0000 0.967062238
N   N1        1.0  0.67900  0.53277  0.90882  1.0000 -0.2033309793
N   N2        1.0  0.85570  0.27801  0.80407  1.0000 -0.1890689699
N   N3        1.0  0.61910  0.38436  0.64654  1.0000 -0.1890689699
N   N4        1.0  0.32100  0.46723  0.09118  1.0000 -0.2033309793
N   N5        1.0  0.14430  0.72199  0.19593  1.0000 -0.1890689699
N   N6        1.0  0.38090  0.61564  0.35346  1.0000 -0.1890689699
O   O1        1.0  0.60740  0.77662  0.22349  1.0000 -0.4668429462
O   O2        1.0  0.50607  0.84239  0.12703  1.0000 -0.211100292
O   O3        1.0  0.13260  0.98050  0.77614  1.0000 -0.4421389668
O   O4        1.0  0.13996  0.06893  0.92779  1.0000 -0.211100292
O   O5        1.0  0.46290  0.37006  0.32851  1.0000 -0.4498494832
O   O6        1.0  0.26794  0.26333  0.36482  1.0000 -0.2180932555
O   O7        1.0  0.95020  0.53670  0.75009  1.0000 -0.5575573612
O   O8        1.0  0.09410  0.55810  0.88931  1.0000 -0.5575573612
O   O9        1.0  0.02750  0.71963  0.87086  1.0000 -0.5575573612
O   O10       1.0  0.39260  0.22338  0.77651  1.0000 -0.4668429462
O   O11       1.0  0.49393  0.15761  0.87297  1.0000 -0.211100292
O   O12       1.0  0.86740  0.01950  0.22386  1.0000 -0.4421389668
O   O13       1.0  0.86004  0.93107  0.07221  1.0000 -0.211100292
O   O14       1.0  0.53710  0.62994  0.67149  1.0000 -0.4498494832
O   O15       1.0  0.73206  0.73667  0.63518  1.0000 -0.2180932555
O   O16       1.0  0.04980  0.46330  0.24991  1.0000 -0.5575573612
O   O17       1.0  0.90590  0.44190  0.11069  1.0000 -0.5575573612
O   O18       1.0  0.97250  0.28037  0.12914  1.0000 -0.5575573612
F   F1        1.0  0.26320  0.54770  0.73750  1.0000 -0.1825360364
F   F2        1.0  0.32890  0.71860  0.83610  1.0000 -0.1825360364
F   F3        1.0  0.19790  0.68290  0.71085  1.0000 -0.1660516156
F   F4        1.0  0.73680  0.45230  0.26250  1.0000 -0.1825360364
F   F5        1.0  0.67110  0.28140  0.16390  1.0000 -0.1825360364
F   F6        1.0  0.80210  0.31710  0.28915  1.0000 -0.1660516156
