# DDEC6 charges by PACMAN v1.1 (https://github.com/mtap-research/PACMAN-charge/)
data_2017[Ag][hcb]2[FSR]17
_chemical_formula_sum              "Ag2 H42 C56 S2 N6 O18 F6"
_cell_length_a       9.1046
_cell_length_b       13.2036
_cell_length_c       15.8699
_cell_angle_alpha    109.514
_cell_angle_beta     94.323
_cell_angle_gamma    103.785

_symmetry_space_group_name_H-M    "P 1"
_symmetry_Int_Tables_number       1

loop_
  _symmetry_equiv_pos_as_xyz
  'x, y, z'

loop_
  _atom_site_type_symbol
  _atom_site_label
  _atom_site_symmetry_multiplicity
  _atom_site_fract_x
  _atom_site_fract_y
  _atom_site_fract_z
  _atom_site_occupancy
  _atom_site_charge
Ag  Ag1       1.0  0.24387  0.43159  0.79445  1.0000 0.3141830723
Ag  Ag2       1.0  0.75613  0.56841  0.20555  1.0000 0.3141830723
H   H1        1.0  0.34380  0.33550  0.94670  1.0000 0.1099362578
H   H2        1.0  0.47140  0.21180  0.96880  1.0000 0.1376252186
H   H3        1.0  0.55110  0.14000  0.71050  1.0000 0.1376252186
H   H4        1.0  0.43120  0.27180  0.69870  1.0000 0.1099362578
H   H5        1.0  0.65170  0.93220  0.92000  1.0000 0.1195954297
H   H6        1.0  0.81110  0.02020  0.92530  1.0000 0.103243136
H   H7        1.0  0.26370  0.49980  0.00890  1.0000 0.1099362578
H   H8        1.0  0.18550  0.61090  0.13270  1.0000 0.1314058352
H   H9        1.0  0.00060  0.74240  0.96760  1.0000 0.1314058352
H   H10       1.0  0.08080  0.62490  0.84800  1.0000 0.1099362578
H   H11       1.0  0.89650  0.88980  0.23990  1.0000 0.1099362578
H   H12       1.0  0.05530  0.97630  0.24190  1.0000 0.1195954297
H   H13       1.0  0.90780  0.33870  0.67720  1.0000 0.1099362578
H   H14       1.0  0.77400  0.29910  0.52960  1.0000 0.1376252186
H   H15       1.0  0.17210  0.41400  0.46020  1.0000 0.1314058352
H   H16       1.0  0.29040  0.44880  0.60430  1.0000 0.1099362578
H   H17       1.0  0.56180  0.18350  0.27030  1.0000 0.1195954297
H   H18       1.0  0.68300  0.28420  0.25680  1.0000 0.1099362578
H   H19       1.0  0.64730  0.16060  0.09590  1.0000 0.1314058352
H   H20       1.0  0.86940  0.92110  0.03420  1.0000 0.1195954297
H   H21       1.0  0.83910  0.08220  0.29600  1.0000 0.1195954297
H   H22       1.0  0.65620  0.66450  0.05330  1.0000 0.1099362578
H   H23       1.0  0.52860  0.78820  0.03120  1.0000 0.1376252186
H   H24       1.0  0.44890  0.86000  0.28950  1.0000 0.1376252186
H   H25       1.0  0.56880  0.72820  0.30130  1.0000 0.1099362578
H   H26       1.0  0.34830  0.06780  0.08000  1.0000 0.1195954297
H   H27       1.0  0.18890  0.97980  0.07470  1.0000 0.103243136
H   H28       1.0  0.73630  0.50020  0.99110  1.0000 0.1099362578
H   H29       1.0  0.81450  0.38910  0.86730  1.0000 0.1314058352
H   H30       1.0  0.99940  0.25760  0.03240  1.0000 0.1314058352
H   H31       1.0  0.91920  0.37510  0.15200  1.0000 0.1099362578
H   H32       1.0  0.10350  0.11020  0.76010  1.0000 0.1099362578
H   H33       1.0  0.94470  0.02370  0.75810  1.0000 0.1195954297
H   H34       1.0  0.09220  0.66130  0.32280  1.0000 0.1099362578
H   H35       1.0  0.22600  0.70090  0.47040  1.0000 0.1376252186
H   H36       1.0  0.82790  0.58600  0.53980  1.0000 0.1314058352
H   H37       1.0  0.70960  0.55120  0.39570  1.0000 0.1099362578
H   H38       1.0  0.43820  0.81650  0.72970  1.0000 0.1195954297
H   H39       1.0  0.31700  0.71580  0.74320  1.0000 0.1099362578
H   H40       1.0  0.35270  0.83940  0.90410  1.0000 0.1314058352
H   H41       1.0  0.13060  0.07890  0.96580  1.0000 0.1195954297
H   H42       1.0  0.16090  0.91780  0.70400  1.0000 0.1195954297
C   C1        1.0  0.38720  0.29520  0.89830  1.0000 0.0710826651
C   C2        1.0  0.46220  0.22140  0.91200  1.0000 -0.1403129686
C   C3        1.0  0.52370  0.16160  0.84130  1.0000 -0.0010230449
C   C4        1.0  0.51020  0.18010  0.76040  1.0000 -0.1598775301
C   C5        1.0  0.43650  0.25740  0.75350  1.0000 0.0710826651
C   C6        1.0  0.60740  0.07960  0.84940  1.0000 0.4899501662
C   C7        1.0  0.71490  0.01080  0.95070  1.0000 -0.0686327208
C   C8        1.0  0.20880  0.54960  0.00080  1.0000 0.0710826651
C   C9        1.0  0.16380  0.61560  0.07480  1.0000 -0.1486126124
C   C10       1.0  0.08560  0.69000  0.06370  1.0000 -0.0140054569
C   C11       1.0  0.05440  0.69280  0.97740  1.0000 -0.1486126124
C   C12       1.0  0.10260  0.62280  0.90680  1.0000 0.0819368373
C   C13       1.0  0.04250  0.76460  0.14450  1.0000 0.4899501662
C   C14       1.0  0.95720  0.92590  0.20310  1.0000 -0.0769805003
C   C15       1.0  0.96430  0.35560  0.63330  1.0000 0.1099362578
C   C16       1.0  0.88230  0.32960  0.54380  1.0000 -0.1598775301
C   C17       1.0  0.96330  0.34960  0.48150  1.0000 0.0183608766
C   C18       1.0  0.11380  0.39630  0.50310  1.0000 -0.1486126124
C   C19       1.0  0.18200  0.41820  0.59000  1.0000 0.0436562609
C   C20       1.0  0.87870  0.31940  0.38270  1.0000 0.5132632415
C   C21       1.0  0.67240  0.21730  0.27350  1.0000 -0.0940685559
C   C22       1.0  0.73480  0.13450  0.20650  1.0000 0.1195954297
C   C23       1.0  0.70270  0.11710  0.11470  1.0000 -0.2080005061
C   C24       1.0  0.75120  0.03680  0.05090  1.0000 0.1099362578
C   C25       1.0  0.83510  0.97530  0.07820  1.0000 -0.2176405926
C   C26       1.0  0.86990  0.99180  0.16950  1.0000 0.1195954297
C   C27       1.0  0.81780  0.07120  0.23350  1.0000 -0.2323946644
C   C28       1.0  0.73660  0.66360  0.76330  1.0000 0.4899501662
C   C29       1.0  0.61280  0.70480  0.10170  1.0000 0.0710826651
C   C30       1.0  0.53780  0.77860  0.08800  1.0000 -0.1403129686
C   C31       1.0  0.47630  0.83840  0.15870  1.0000 -0.0010230449
C   C32       1.0  0.48980  0.81990  0.23960  1.0000 -0.1598775301
C   C33       1.0  0.56350  0.74260  0.24650  1.0000 0.0710826651
C   C34       1.0  0.39260  0.92040  0.15060  1.0000 0.4899501662
C   C35       1.0  0.28510  0.98920  0.04930  1.0000 -0.0686327208
C   C36       1.0  0.79120  0.45040  0.99920  1.0000 0.0710826651
C   C37       1.0  0.83620  0.38440  0.92520  1.0000 -0.1486126124
C   C38       1.0  0.91440  0.31000  0.93630  1.0000 -0.0140054569
C   C39       1.0  0.94560  0.30720  0.02260  1.0000 -0.1486126124
C   C40       1.0  0.89740  0.37720  0.09320  1.0000 0.0819368373
C   C41       1.0  0.95750  0.23540  0.85550  1.0000 0.4899501662
C   C42       1.0  0.04280  0.07410  0.79690  1.0000 -0.0769805003
C   C43       1.0  0.03570  0.64440  0.36670  1.0000 0.1099362578
C   C44       1.0  0.11770  0.67040  0.45620  1.0000 -0.1598775301
C   C45       1.0  0.03670  0.65040  0.51850  1.0000 0.0183608766
C   C46       1.0  0.88620  0.60370  0.49690  1.0000 -0.1486126124
C   C47       1.0  0.81800  0.58180  0.41000  1.0000 0.0436562609
C   C48       1.0  0.12130  0.68060  0.61730  1.0000 0.5132632415
C   C49       1.0  0.32760  0.78270  0.72650  1.0000 -0.0940685559
C   C50       1.0  0.26520  0.86550  0.79350  1.0000 0.1195954297
C   C51       1.0  0.29730  0.88290  0.88530  1.0000 -0.2080005061
C   C52       1.0  0.24880  0.96320  0.94910  1.0000 0.1099362578
C   C53       1.0  0.16490  0.02470  0.92180  1.0000 -0.2176405926
C   C54       1.0  0.13010  0.00820  0.83050  1.0000 0.1195954297
C   C55       1.0  0.18220  0.92880  0.76650  1.0000 -0.2323946644
C   C56       1.0  0.26340  0.33640  0.23670  1.0000 0.4899501662
S   S1        1.0  0.59042  0.62300  0.82622  1.0000 0.9707819383
S   S2        1.0  0.40958  0.37700  0.17378  1.0000 0.9707819383
N   N1        1.0  0.37220  0.31310  0.81990  1.0000 -0.1898482779
N   N2        1.0  0.17930  0.55160  0.91710  1.0000 -0.2039125402
N   N3        1.0  0.10960  0.40040  0.65640  1.0000 -0.1898482779
N   N4        1.0  0.62780  0.68690  0.18010  1.0000 -0.1898482779
N   N5        1.0  0.82070  0.44840  0.08290  1.0000 -0.2039125402
N   N6        1.0  0.89040  0.59960  0.34360  1.0000 -0.1898482779
O   O1        1.0  0.64740  0.01800  0.78710  1.0000 -0.4375598867
O   O2        1.0  0.63250  0.08540  0.93563  1.0000 -0.2080005061
O   O3        1.0  0.05810  0.75920  0.21900  1.0000 -0.4819797416
O   O4        1.0  0.98690  0.84190  0.12663  1.0000 -0.2080005061
O   O5        1.0  0.94100  0.36140  0.33290  1.0000 -0.4631039638
O   O6        1.0  0.75050  0.25140  0.36540  1.0000 -0.2080005061
O   O7        1.0  0.46710  0.54610  0.75650  1.0000 -0.5490607459
O   O8        1.0  0.55540  0.72580  0.87200  1.0000 -0.5602716644
O   O9        1.0  0.65580  0.57860  0.88340  1.0000 -0.5437658269
O   O10       1.0  0.35260  0.98200  0.21290  1.0000 -0.4375598867
O   O11       1.0  0.36750  0.91460  0.06437  1.0000 -0.2080005061
O   O12       1.0  0.94190  0.24080  0.78100  1.0000 -0.4819797416
O   O13       1.0  0.01310  0.15810  0.87337  1.0000 -0.2080005061
O   O14       1.0  0.05900  0.63860  0.66710  1.0000 -0.4631039638
O   O15       1.0  0.24950  0.74860  0.63460  1.0000 -0.2080005061
O   O16       1.0  0.53290  0.45390  0.24350  1.0000 -0.5490607459
O   O17       1.0  0.44460  0.27420  0.12800  1.0000 -0.5602716644
O   O18       1.0  0.34420  0.42140  0.11660  1.0000 -0.5437658269
F   F1        1.0  0.85760  0.73750  0.81760  1.0000 -0.176752745
F   F2        1.0  0.68740  0.70000  0.70450  1.0000 -0.1749480654
F   F3        1.0  0.77800  0.57080  0.71960  1.0000 -0.1898482779
F   F4        1.0  0.14240  0.26250  0.18240  1.0000 -0.176752745
F   F5        1.0  0.31260  0.30000  0.29550  1.0000 -0.1749480654
F   F6        1.0  0.22200  0.42920  0.28040  1.0000 -0.1898482779
