# DDEC6 charges by PACMAN v1.1 (https://github.com/mtap-research/PACMAN-charge/)
data_2017[Cu][pts]3[FSR]2
_chemical_formula_sum              "Cu2 H88 C108 N8"
_cell_length_a       18.6586
_cell_length_b       18.6586
_cell_length_c       18.6586
_cell_angle_alpha    139.815
_cell_angle_beta     139.815
_cell_angle_gamma    58.1348

_symmetry_space_group_name_H-M    "P 1"
_symmetry_Int_Tables_number       1

loop_
  _symmetry_equiv_pos_as_xyz
  'x, y, z'

loop_
  _atom_site_type_symbol
  _atom_site_label
  _atom_site_symmetry_multiplicity
  _atom_site_fract_x
  _atom_site_fract_y
  _atom_site_fract_z
  _atom_site_occupancy
  _atom_site_charge
Cu  Cu1       1.0  0.25000  0.75000  0.50000  1.0000 0.1674247118
Cu  Cu2       1.0  0.75000  0.25000  0.50000  1.0000 0.1674247118
H   H1        1.0  0.19450  0.86520  0.41390  1.0000 0.1000371507
H   H2        1.0  0.86520  0.45130  0.67070  1.0000 0.1000371507
H   H3        1.0  0.45130  0.78060  0.58610  1.0000 0.1000371507
H   H4        1.0  0.78060  0.19450  0.32930  1.0000 0.1000371507
H   H5        1.0  0.80550  0.21940  0.67070  1.0000 0.1000371507
H   H6        1.0  0.54870  0.13480  0.32930  1.0000 0.1000371507
H   H7        1.0  0.21940  0.54870  0.41390  1.0000 0.1000371507
H   H8        1.0  0.13480  0.80550  0.58610  1.0000 0.1000371507
H   H9        1.0  0.23240  0.55610  0.23890  1.0000 0.1000371507
H   H10       1.0  0.55610  0.31720  0.32370  1.0000 0.1000371507
H   H11       1.0  0.31720  0.99350  0.76110  1.0000 0.1000371507
H   H12       1.0  0.99350  0.23240  0.67630  1.0000 0.1000371507
H   H13       1.0  0.76760  0.00650  0.32370  1.0000 0.1000371507
H   H14       1.0  0.68280  0.44390  0.67630  1.0000 0.1000371507
H   H15       1.0  0.00650  0.68280  0.23890  1.0000 0.1000371507
H   H16       1.0  0.44390  0.76760  0.76110  1.0000 0.1000371507
H   H17       1.0  0.15670  0.83250  0.24100  1.0000 0.1296317344
H   H18       1.0  0.83250  0.59150  0.67580  1.0000 0.1296317344
H   H19       1.0  0.59150  0.91570  0.75900  1.0000 0.1296317344
H   H20       1.0  0.91570  0.15670  0.32420  1.0000 0.1296317344
H   H21       1.0  0.84330  0.08430  0.67580  1.0000 0.1296317344
H   H22       1.0  0.40850  0.16750  0.32420  1.0000 0.1296317344
H   H23       1.0  0.08430  0.40850  0.24100  1.0000 0.1296317344
H   H24       1.0  0.16750  0.84330  0.75900  1.0000 0.1296317344
H   H25       1.0  0.19200  0.51360  0.05820  1.0000 0.1296317344
H   H26       1.0  0.51360  0.45540  0.32160  1.0000 0.1296317344
H   H27       1.0  0.45540  0.13380  0.94180  1.0000 0.1296317344
H   H28       1.0  0.13380  0.19200  0.67840  1.0000 0.1296317344
H   H29       1.0  0.80800  0.86620  0.32160  1.0000 0.1296317344
H   H30       1.0  0.54460  0.48640  0.67840  1.0000 0.1296317344
H   H31       1.0  0.86620  0.54460  0.05820  1.0000 0.1296317344
H   H32       1.0  0.48640  0.80800  0.94180  1.0000 0.1296317344
H   H33       1.0  0.10500  0.78760  0.06260  1.0000 0.1139519559
H   H34       1.0  0.78760  0.72500  0.68260  1.0000 0.1139519559
H   H35       1.0  0.72500  0.04240  0.93740  1.0000 0.1139519559
H   H36       1.0  0.04240  0.10500  0.31740  1.0000 0.1139519559
H   H37       1.0  0.89500  0.95760  0.68260  1.0000 0.1139519559
H   H38       1.0  0.27500  0.21240  0.31740  1.0000 0.1139519559
H   H39       1.0  0.95760  0.27500  0.06260  1.0000 0.1139519559
H   H40       1.0  0.21240  0.89500  0.93740  1.0000 0.1139519559
H   H41       1.0  0.17560  0.48160  0.91620  1.0000 0.1000371507
H   H42       1.0  0.48160  0.56540  0.30600  1.0000 0.1000371507
H   H43       1.0  0.56540  0.25940  0.08380  1.0000 0.1000371507
H   H44       1.0  0.25940  0.17560  0.69400  1.0000 0.1000371507
H   H45       1.0  0.82440  0.74060  0.30600  1.0000 0.1000371507
H   H46       1.0  0.43460  0.51840  0.69400  1.0000 0.1000371507
H   H47       1.0  0.74060  0.43460  0.91620  1.0000 0.1000371507
H   H48       1.0  0.51840  0.82440  0.08380  1.0000 0.1000371507
H   H49       1.0  0.05870  0.74000  0.87410  1.0000 0.1160550152
H   H50       1.0  0.74000  0.86590  0.68130  1.0000 0.1160550152
H   H51       1.0  0.86590  0.18460  0.12590  1.0000 0.1160550152
H   H52       1.0  0.18460  0.05870  0.31870  1.0000 0.1160550152
H   H53       1.0  0.94130  0.81540  0.68130  1.0000 0.1160550152
H   H54       1.0  0.13410  0.26000  0.31870  1.0000 0.1160550152
H   H55       1.0  0.81540  0.13410  0.87410  1.0000 0.1160550152
H   H56       1.0  0.26000  0.94130  0.12590  1.0000 0.1160550152
H   H57       1.0  0.13640  0.43720  0.73520  1.0000 0.1160550152
H   H58       1.0  0.43720  0.70200  0.30080  1.0000 0.1160550152
H   H59       1.0  0.70200  0.40120  0.26480  1.0000 0.1160550152
H   H60       1.0  0.40120  0.13640  0.69920  1.0000 0.1160550152
H   H61       1.0  0.86360  0.59880  0.30080  1.0000 0.1160550152
H   H62       1.0  0.29800  0.56280  0.69920  1.0000 0.1160550152
H   H63       1.0  0.59880  0.29800  0.73520  1.0000 0.1160550152
H   H64       1.0  0.56280  0.86360  0.26480  1.0000 0.1160550152
H   H65       1.0  0.93980  0.66380  0.63780  1.0000 0.1000371507
H   H66       1.0  0.66380  0.02600  0.72400  1.0000 0.1000371507
H   H67       1.0  0.02600  0.30200  0.36220  1.0000 0.1000371507
H   H68       1.0  0.30200  0.93980  0.27600  1.0000 0.1000371507
H   H69       1.0  0.06020  0.69800  0.72400  1.0000 0.1000371507
H   H70       1.0  0.97400  0.33620  0.27600  1.0000 0.1000371507
H   H71       1.0  0.69800  0.97400  0.63780  1.0000 0.1000371507
H   H72       1.0  0.33620  0.06020  0.36220  1.0000 0.1000371507
H   H73       1.0  0.88610  0.47270  0.50080  1.0000 0.1000371507
H   H74       1.0  0.47270  0.97190  0.58660  1.0000 0.1000371507
H   H75       1.0  0.97190  0.38530  0.49920  1.0000 0.1000371507
H   H76       1.0  0.38530  0.88610  0.41340  1.0000 0.1000371507
H   H77       1.0  0.11390  0.61470  0.58660  1.0000 0.1000371507
H   H78       1.0  0.02810  0.52730  0.41340  1.0000 0.1000371507
H   H79       1.0  0.61470  0.02810  0.50080  1.0000 0.1000371507
H   H80       1.0  0.52730  0.11390  0.49920  1.0000 0.1000371507
H   H81       1.0  0.20020  0.56050  0.72690  1.0000 0.1000371507
H   H82       1.0  0.56050  0.83360  0.36030  1.0000 0.1000371507
H   H83       1.0  0.83360  0.47330  0.27310  1.0000 0.1000371507
H   H84       1.0  0.47330  0.20020  0.63970  1.0000 0.1000371507
H   H85       1.0  0.79980  0.52670  0.36030  1.0000 0.1000371507
H   H86       1.0  0.16640  0.43950  0.63970  1.0000 0.1000371507
H   H87       1.0  0.52670  0.16640  0.72690  1.0000 0.1000371507
H   H88       1.0  0.43950  0.79980  0.27310  1.0000 0.1000371507
C   C1        1.0  0.19420  0.79270  0.34090  1.0000 0.0569881529
C   C2        1.0  0.79270  0.45180  0.59850  1.0000 0.0569881529
C   C3        1.0  0.45180  0.85330  0.65910  1.0000 0.0569881529
C   C4        1.0  0.85330  0.19420  0.40150  1.0000 0.0569881529
C   C5        1.0  0.80580  0.14670  0.59850  1.0000 0.0569881529
C   C6        1.0  0.54820  0.20730  0.40150  1.0000 0.0569881529
C   C7        1.0  0.14670  0.54820  0.34090  1.0000 0.0569881529
C   C8        1.0  0.20730  0.80580  0.65910  1.0000 0.0569881529
C   C9        1.0  0.21590  0.61250  0.23860  1.0000 0.0212235181
C   C10       1.0  0.61250  0.37390  0.39660  1.0000 0.0212235181
C   C11       1.0  0.37390  0.97730  0.76140  1.0000 0.0212235181
C   C12       1.0  0.97730  0.21590  0.60340  1.0000 0.0212235181
C   C13       1.0  0.78410  0.02270  0.39660  1.0000 0.0212235181
C   C14       1.0  0.62610  0.38750  0.60340  1.0000 0.0212235181
C   C15       1.0  0.02270  0.62610  0.23860  1.0000 0.0212235181
C   C16       1.0  0.38750  0.78410  0.76140  1.0000 0.0212235181
C   C17       1.0  0.17140  0.77390  0.23690  1.0000 -0.2011605902
C   C18       1.0  0.77390  0.53700  0.60250  1.0000 -0.2011605902
C   C19       1.0  0.53700  0.93450  0.76310  1.0000 -0.2011605902
C   C20       1.0  0.93450  0.17140  0.39750  1.0000 -0.2011605902
C   C21       1.0  0.82860  0.06550  0.60250  1.0000 -0.2011605902
C   C22       1.0  0.46300  0.22610  0.39750  1.0000 -0.2011605902
C   C23       1.0  0.06550  0.46300  0.23690  1.0000 -0.2011605902
C   C24       1.0  0.22610  0.82860  0.76310  1.0000 -0.2011605902
C   C25       1.0  0.19260  0.58690  0.13050  1.0000 -0.2079837891
C   C26       1.0  0.58690  0.45640  0.39430  1.0000 -0.2079837891
C   C27       1.0  0.45640  0.06210  0.86950  1.0000 -0.2079837891
C   C28       1.0  0.06210  0.19260  0.60570  1.0000 -0.2079837891
C   C29       1.0  0.80740  0.93790  0.39430  1.0000 -0.2079837891
C   C30       1.0  0.54360  0.41310  0.60570  1.0000 -0.2079837891
C   C31       1.0  0.93790  0.54360  0.13050  1.0000 -0.2079837891
C   C32       1.0  0.41310  0.80740  0.86950  1.0000 -0.2079837891
C   C33       1.0  0.17040  0.66820  0.12780  1.0000 0.1160550152
C   C34       1.0  0.66820  0.54040  0.49780  1.0000 0.1160550152
C   C35       1.0  0.54040  0.04260  0.87220  1.0000 0.1160550152
C   C36       1.0  0.04260  0.17040  0.50220  1.0000 0.1160550152
C   C37       1.0  0.82960  0.95740  0.49780  1.0000 0.1160550152
C   C38       1.0  0.45960  0.33180  0.50220  1.0000 0.1160550152
C   C39       1.0  0.95740  0.45960  0.12780  1.0000 0.1160550152
C   C40       1.0  0.33180  0.82960  0.87220  1.0000 0.1160550152
C   C41       1.0  0.14330  0.63930  0.00900  1.0000 0.0569881529
C   C42       1.0  0.63930  0.63030  0.49600  1.0000 0.0569881529
C   C43       1.0  0.63030  0.13430  0.99100  1.0000 0.0569881529
C   C44       1.0  0.13430  0.14330  0.50400  1.0000 0.0569881529
C   C45       1.0  0.85670  0.86570  0.49600  1.0000 0.0569881529
C   C46       1.0  0.36970  0.36070  0.50400  1.0000 0.0569881529
C   C47       1.0  0.86570  0.36970  0.00900  1.0000 0.0569881529
C   C48       1.0  0.36070  0.85670  0.99100  1.0000 0.0569881529
C   C49       1.0  0.10930  0.71500  0.99470  1.0000 -0.1477661831
C   C50       1.0  0.71500  0.72030  0.60570  1.0000 -0.1477661831
C   C51       1.0  0.72030  0.11460  0.00530  1.0000 -0.1477661831
C   C52       1.0  0.11460  0.10930  0.39430  1.0000 -0.1477661831
C   C53       1.0  0.89070  0.88540  0.60570  1.0000 -0.1477661831
C   C54       1.0  0.27970  0.28500  0.39430  1.0000 -0.1477661831
C   C55       1.0  0.88540  0.27970  0.99470  1.0000 -0.1477661831
C   C56       1.0  0.28500  0.89070  0.00530  1.0000 -0.1477661831
C   C57       1.0  0.15150  0.53550  0.90900  1.0000 -0.1684742682
C   C58       1.0  0.53550  0.62650  0.38400  1.0000 -0.1684742682
C   C59       1.0  0.62650  0.24250  0.09100  1.0000 -0.1684742682
C   C60       1.0  0.24250  0.15150  0.61600  1.0000 -0.1684742682
C   C61       1.0  0.84850  0.75750  0.38400  1.0000 -0.1684742682
C   C62       1.0  0.37350  0.46450  0.61600  1.0000 -0.1684742682
C   C63       1.0  0.75750  0.37350  0.90900  1.0000 -0.1684742682
C   C64       1.0  0.46450  0.84850  0.09100  1.0000 -0.1684742682
C   C65       1.0  0.08060  0.68570  0.87970  1.0000 -0.1684742682
C   C66       1.0  0.68570  0.80600  0.60510  1.0000 -0.1684742682
C   C67       1.0  0.80600  0.20090  0.12030  1.0000 -0.1684742682
C   C68       1.0  0.20090  0.08060  0.39490  1.0000 -0.1684742682
C   C69       1.0  0.91940  0.79910  0.60510  1.0000 -0.1684742682
C   C70       1.0  0.19400  0.31430  0.39490  1.0000 -0.1684742682
C   C71       1.0  0.79910  0.19400  0.87970  1.0000 -0.1684742682
C   C72       1.0  0.31430  0.91940  0.12030  1.0000 -0.1684742682
C   C73       1.0  0.12490  0.50770  0.79680  1.0000 -0.1580708204
C   C74       1.0  0.50770  0.71090  0.38280  1.0000 -0.1580708204
C   C75       1.0  0.71090  0.32810  0.20320  1.0000 -0.1580708204
C   C76       1.0  0.32810  0.12490  0.61720  1.0000 -0.1580708204
C   C77       1.0  0.87510  0.67190  0.38280  1.0000 -0.1580708204
C   C78       1.0  0.28910  0.49230  0.61720  1.0000 -0.1580708204
C   C79       1.0  0.67190  0.28910  0.79680  1.0000 -0.1580708204
C   C80       1.0  0.49230  0.87510  0.20320  1.0000 -0.1580708204
C   C81       1.0  0.08360  0.57800  0.77320  1.0000 0.0433190558
C   C82       1.0  0.57800  0.80480  0.49440  1.0000 0.0433190558
C   C83       1.0  0.80480  0.31040  0.22680  1.0000 0.0433190558
C   C84       1.0  0.31040  0.08360  0.50560  1.0000 0.0433190558
C   C85       1.0  0.91640  0.68960  0.49440  1.0000 0.0433190558
C   C86       1.0  0.19520  0.42200  0.50560  1.0000 0.0433190558
C   C87       1.0  0.68960  0.19520  0.77320  1.0000 0.0433190558
C   C88       1.0  0.42200  0.91640  0.22680  1.0000 0.0433190558
C   C89       1.0  0.04280  0.54150  0.63910  1.0000 0.1674247118
C   C90       1.0  0.54150  0.90240  0.49870  1.0000 0.1674247118
C   C91       1.0  0.90240  0.40370  0.36090  1.0000 0.1674247118
C   C92       1.0  0.40370  0.04280  0.50130  1.0000 0.1674247118
C   C93       1.0  0.95720  0.59630  0.49870  1.0000 0.1674247118
C   C94       1.0  0.09760  0.45850  0.50130  1.0000 0.1674247118
C   C95       1.0  0.59630  0.09760  0.63910  1.0000 0.1674247118
C   C96       1.0  0.45850  0.95720  0.36090  1.0000 0.1674247118
C   C97       1.0  0.00000  0.63640  0.63640  1.0000 -0.3163334606
C   C98       1.0  0.63640  0.00000  0.63640  1.0000 -0.3163334606
C   C99       1.0  0.00000  0.36360  0.36360  1.0000 -0.3163334606
C   C100      1.0  0.36360  0.00000  0.36360  1.0000 -0.3163334606
C   C101      1.0  0.94650  0.44650  0.50000  1.0000 -0.3126315875
C   C102      1.0  0.44650  0.94650  0.50000  1.0000 -0.3126315875
C   C103      1.0  0.05350  0.55350  0.50000  1.0000 -0.3126315875
C   C104      1.0  0.55350  0.05350  0.50000  1.0000 -0.3126315875
C   C105      1.0  0.13890  0.50000  0.63890  1.0000 -0.2986514596
C   C106      1.0  0.50000  0.86110  0.36110  1.0000 -0.2986514596
C   C107      1.0  0.86110  0.50000  0.36110  1.0000 -0.2986514596
C   C108      1.0  0.50000  0.13890  0.63890  1.0000 -0.2986514596
N   N1        1.0  0.21540  0.71550  0.34270  1.0000 -0.1936649708
N   N2        1.0  0.71550  0.37280  0.50010  1.0000 -0.1936649708
N   N3        1.0  0.37280  0.87270  0.65730  1.0000 -0.1936649708
N   N4        1.0  0.87270  0.21540  0.49990  1.0000 -0.1936649708
N   N5        1.0  0.78460  0.12730  0.50010  1.0000 -0.1936649708
N   N6        1.0  0.62720  0.28450  0.49990  1.0000 -0.1936649708
N   N7        1.0  0.12730  0.62720  0.34270  1.0000 -0.1936649708
N   N8        1.0  0.28450  0.78460  0.65730  1.0000 -0.1936649708
