# DDEC6 charges by PACMAN v1.1 (https://github.com/mtap-research/PACMAN-charge/)
data_2017[Ag][hcb]2[FSR]9
_chemical_formula_sum              "Ag2 H42 C56 S2 N6 O18 F6"
_cell_length_a       9.634
_cell_length_b       12.892
_cell_length_c       15.218
_cell_angle_alpha    104.264
_cell_angle_beta     93.35
_cell_angle_gamma    101.62

_symmetry_space_group_name_H-M    "P 1"
_symmetry_Int_Tables_number       1

loop_
  _symmetry_equiv_pos_as_xyz
  'x, y, z'

loop_
  _atom_site_type_symbol
  _atom_site_label
  _atom_site_symmetry_multiplicity
  _atom_site_fract_x
  _atom_site_fract_y
  _atom_site_fract_z
  _atom_site_occupancy
  _atom_site_charge
Ag  Ag1       1.0  0.77881  0.08729  0.71285  1.0000 0.2913421331
Ag  Ag2       1.0  0.22119  0.91271  0.28715  1.0000 0.2913421331
H   H1        1.0  0.59720  0.15150  0.56500  1.0000 0.1102047655
H   H2        1.0  0.47070  0.27830  0.54080  1.0000 0.1371262931
H   H3        1.0  0.60210  0.45140  0.80280  1.0000 0.1371262931
H   H4        1.0  0.72330  0.32000  0.81800  1.0000 0.1102047655
H   H5        1.0  0.22920  0.53090  0.59730  1.0000 0.1019856273
H   H6        1.0  0.37160  0.59420  0.56640  1.0000 0.1189621429
H   H7        1.0  0.12050  0.59770  0.47140  1.0000 0.1189621429
H   H8        1.0  0.73250  0.01910  0.49470  1.0000 0.1102047655
H   H9        1.0  0.76260  0.88880  0.36940  1.0000 0.1321419677
H   H10       1.0  0.97350  0.75900  0.53620  1.0000 0.1321419677
H   H11       1.0  0.94720  0.89750  0.65670  1.0000 0.1102047655
H   H12       1.0  0.89300  0.51850  0.27510  1.0000 0.1189621429
H   H13       1.0  0.02830  0.60210  0.25620  1.0000 0.1102047655
H   H14       1.0  0.07200  0.39690  0.21700  1.0000 0.1189621429
H   H15       1.0  0.07290  0.18510  0.83930  1.0000 0.1102047655
H   H16       1.0  0.17670  0.21750  0.98870  1.0000 0.1371262931
H   H17       1.0  0.80270  0.06630  0.04960  1.0000 0.1321419677
H   H18       1.0  0.71010  0.03350  0.89890  1.0000 0.1189621429
H   H19       1.0  0.23630  0.20320  0.26540  1.0000 0.1102047655
H   H20       1.0  0.36100  0.28970  0.23990  1.0000 0.1189621429
H   H21       1.0  0.33630  0.35580  0.41640  1.0000 0.1321419677
H   H22       1.0  0.40280  0.84850  0.43500  1.0000 0.1102047655
H   H23       1.0  0.52930  0.72170  0.45920  1.0000 0.1371262931
H   H24       1.0  0.39790  0.54860  0.19720  1.0000 0.1371262931
H   H25       1.0  0.27670  0.68000  0.18200  1.0000 0.1102047655
H   H26       1.0  0.77080  0.46910  0.40270  1.0000 0.1019856273
H   H27       1.0  0.62840  0.40580  0.43360  1.0000 0.1189621429
H   H28       1.0  0.87950  0.40230  0.52860  1.0000 0.1189621429
H   H29       1.0  0.26750  0.98090  0.50530  1.0000 0.1102047655
H   H30       1.0  0.23740  0.11120  0.63060  1.0000 0.1321419677
H   H31       1.0  0.02650  0.24100  0.46380  1.0000 0.1321419677
H   H32       1.0  0.05280  0.10250  0.34330  1.0000 0.1102047655
H   H33       1.0  0.10700  0.48150  0.72490  1.0000 0.1189621429
H   H34       1.0  0.97170  0.39790  0.74380  1.0000 0.1102047655
H   H35       1.0  0.92800  0.60310  0.78300  1.0000 0.1189621429
H   H36       1.0  0.92710  0.81490  0.16070  1.0000 0.1102047655
H   H37       1.0  0.82330  0.78250  0.01130  1.0000 0.1371262931
H   H38       1.0  0.19730  0.93370  0.95040  1.0000 0.1321419677
H   H39       1.0  0.28990  0.96650  0.10110  1.0000 0.1189621429
H   H40       1.0  0.76370  0.79680  0.73460  1.0000 0.1102047655
H   H41       1.0  0.63900  0.71030  0.76010  1.0000 0.1189621429
H   H42       1.0  0.66370  0.64420  0.58360  1.0000 0.1321419677
C   C1        1.0  0.59790  0.21370  0.61400  1.0000 0.081523904
C   C2        1.0  0.52120  0.28830  0.59890  1.0000 -0.1422409328
C   C3        1.0  0.51980  0.37740  0.66990  1.0000 0.0068232875
C   C4        1.0  0.59870  0.38970  0.75280  1.0000 -0.1533953981
C   C5        1.0  0.67100  0.31140  0.76080  1.0000 0.0557955591
C   C6        1.0  0.43670  0.46180  0.66150  1.0000 0.49068799
C   C7        1.0  0.30440  0.52220  0.55620  1.0000 -0.071561283
C   C8        1.0  0.23850  0.48190  0.45790  1.0000 0.1102047655
C   C9        1.0  0.14380  0.53790  0.42890  1.0000 -0.2110585125
C   C10       1.0  0.78410  0.96620  0.50340  1.0000 0.0694292511
C   C11       1.0  0.80110  0.88870  0.42830  1.0000 -0.1422409328
C   C12       1.0  0.87410  0.81070  0.43810  1.0000 -0.0044340421
C   C13       1.0  0.92580  0.81340  0.52600  1.0000 -0.1586195515
C   C14       1.0  0.90730  0.89510  0.59750  1.0000 0.0694292511
C   C15       1.0  0.89050  0.72540  0.35660  1.0000 0.49068799
C   C16       1.0  0.98470  0.56950  0.30330  1.0000 -0.0788535872
C   C17       1.0  0.08250  0.50840  0.33890  1.0000 0.1102047655
C   C18       1.0  0.11530  0.41910  0.27830  1.0000 -0.223444006
C   C19       1.0  0.01640  0.16140  0.88280  1.0000 0.0694292511
C   C20       1.0  0.07910  0.18140  0.97200  1.0000 -0.1586195515
C   C21       1.0  0.99860  0.14830  0.03480  1.0000 0.0068232875
C   C22       1.0  0.86030  0.09230  0.00750  1.0000 -0.1586195515
C   C23       1.0  0.80560  0.07400  0.91760  1.0000 0.081523904
C   C24       1.0  0.05880  0.16940  0.13280  1.0000 0.4985174177
C   C25       1.0  0.25670  0.26900  0.24180  1.0000 -0.0788535872
C   C26       1.0  0.20970  0.36190  0.30530  1.0000 0.1189621429
C   C27       1.0  0.27150  0.39440  0.39670  1.0000 -0.2110585125
C   C28       1.0  0.30570  0.85180  0.69990  1.0000 0.4985174177
C   C29       1.0  0.40210  0.78630  0.38600  1.0000 0.081523904
C   C30       1.0  0.47880  0.71170  0.40110  1.0000 -0.1422409328
C   C31       1.0  0.48020  0.62260  0.33010  1.0000 0.0068232875
C   C32       1.0  0.40130  0.61030  0.24720  1.0000 -0.1533953981
C   C33       1.0  0.32900  0.68860  0.23920  1.0000 0.0557955591
C   C34       1.0  0.56330  0.53820  0.33850  1.0000 0.49068799
C   C35       1.0  0.69560  0.47780  0.44380  1.0000 -0.071561283
C   C36       1.0  0.76150  0.51810  0.54210  1.0000 0.1102047655
C   C37       1.0  0.85620  0.46210  0.57110  1.0000 -0.2110585125
C   C38       1.0  0.21590  0.03380  0.49660  1.0000 0.0694292511
C   C39       1.0  0.19890  0.11130  0.57170  1.0000 -0.1422409328
C   C40       1.0  0.12590  0.18930  0.56190  1.0000 -0.0044340421
C   C41       1.0  0.07420  0.18660  0.47400  1.0000 -0.1586195515
C   C42       1.0  0.09270  0.10490  0.40250  1.0000 0.0694292511
C   C43       1.0  0.10950  0.27460  0.64340  1.0000 0.49068799
C   C44       1.0  0.01530  0.43050  0.69670  1.0000 -0.0788535872
C   C45       1.0  0.91750  0.49160  0.66110  1.0000 0.1102047655
C   C46       1.0  0.88470  0.58090  0.72170  1.0000 -0.223444006
C   C47       1.0  0.98360  0.83860  0.11720  1.0000 0.0694292511
C   C48       1.0  0.92090  0.81860  0.02800  1.0000 -0.1586195515
C   C49       1.0  0.00140  0.85170  0.96520  1.0000 0.0068232875
C   C50       1.0  0.13970  0.90770  0.99250  1.0000 -0.1586195515
C   C51       1.0  0.19440  0.92600  0.08240  1.0000 0.081523904
C   C52       1.0  0.94120  0.83060  0.86720  1.0000 0.4985174177
C   C53       1.0  0.74330  0.73100  0.75820  1.0000 -0.0788535872
C   C54       1.0  0.79030  0.63810  0.69470  1.0000 0.1189621429
C   C55       1.0  0.72850  0.60560  0.60330  1.0000 -0.2110585125
C   C56       1.0  0.69430  0.14820  0.30010  1.0000 0.4985174177
S   S1        1.0  0.48248  0.88631  0.66394  1.0000 0.9561887322
S   S2        1.0  0.51752  0.11369  0.33606  1.0000 0.9561887322
N   N1        1.0  0.67300  0.22350  0.69340  1.0000 -0.1893196664
N   N2        1.0  0.83600  0.97250  0.58920  1.0000 -0.1893196664
N   N3        1.0  0.87980  0.11010  0.85630  1.0000 -0.1820403473
N   N4        1.0  0.32700  0.77650  0.30660  1.0000 -0.1893196664
N   N5        1.0  0.16400  0.02750  0.41080  1.0000 -0.1893196664
N   N6        1.0  0.12020  0.88990  0.14370  1.0000 -0.1820403473
O   O1        1.0  0.42390  0.53640  0.72180  1.0000 -0.4261110486
O   O2        1.0  0.37890  0.44210  0.57450  1.0000 -0.2110585125
O   O3        1.0  0.84550  0.72090  0.28080  1.0000 -0.4625122906
O   O4        1.0  0.96070  0.65490  0.37830  1.0000 -0.2110585125
O   O5        1.0  0.00260  0.12530  0.18580  1.0000 -0.4450659217
O   O6        1.0  0.18450  0.24300  0.15040  1.0000 -0.2110585125
O   O7        1.0  0.46340  0.95160  0.60210  1.0000 -0.5579674007
O   O8        1.0  0.56880  0.94660  0.74870  1.0000 -0.5541812541
O   O9        1.0  0.51220  0.78150  0.62370  1.0000 -0.5579674007
O   O10       1.0  0.57610  0.46360  0.27820  1.0000 -0.4261110486
O   O11       1.0  0.62110  0.55790  0.42550  1.0000 -0.2110585125
O   O12       1.0  0.15450  0.27910  0.71920  1.0000 -0.4625122906
O   O13       1.0  0.03930  0.34510  0.62170  1.0000 -0.2110585125
O   O14       1.0  0.99740  0.87470  0.81420  1.0000 -0.4450659217
O   O15       1.0  0.81550  0.75700  0.84960  1.0000 -0.2110585125
O   O16       1.0  0.53660  0.04840  0.39790  1.0000 -0.5579674007
O   O17       1.0  0.43120  0.05340  0.25130  1.0000 -0.5541812541
O   O18       1.0  0.48780  0.21850  0.37630  1.0000 -0.5579674007
F   F1        1.0  0.30550  0.79980  0.76330  1.0000 -0.1712096469
F   F2        1.0  0.21360  0.78600  0.62980  1.0000 -0.1893196664
F   F3        1.0  0.25550  0.94030  0.72940  1.0000 -0.1820403473
F   F4        1.0  0.69450  0.20020  0.23670  1.0000 -0.1712096469
F   F5        1.0  0.78640  0.21400  0.37020  1.0000 -0.1893196664
F   F6        1.0  0.74450  0.05970  0.27060  1.0000 -0.1820403473
