# DDEC6 charges by PACMAN v1.1 (https://github.com/mtap-research/PACMAN-charge/)
data_2017[NiNb][pcu]3[FSR]1
_chemical_formula_sum              "Nb2 Ni2 H16 C16 N8 F12"
_cell_length_a       10.5616
_cell_length_b       10.5616
_cell_length_c       10.5616
_cell_angle_alpha    123.845
_cell_angle_beta     123.845
_cell_angle_gamma    83.4603

_symmetry_space_group_name_H-M    "P 1"
_symmetry_Int_Tables_number       1

loop_
  _symmetry_equiv_pos_as_xyz
  'x, y, z'

loop_
  _atom_site_type_symbol
  _atom_site_label
  _atom_site_symmetry_multiplicity
  _atom_site_fract_x
  _atom_site_fract_y
  _atom_site_fract_z
  _atom_site_occupancy
  _atom_site_charge
Nb  Nb1       1.0  0.00000  0.00000  0.00000  1.0000 2.3769386822
Nb  Nb2       1.0  0.50000  0.50000  0.00000  1.0000 2.3769386822
Ni  Ni1       1.0  0.25000  0.25000  0.00000  1.0000 0.692146402
Ni  Ni2       1.0  0.75000  0.75000  0.00000  1.0000 0.692146402
H   H1        1.0  0.45490  0.59560  0.33770  1.0000 0.1336167596
H   H2        1.0  0.59560  0.25790  0.14070  1.0000 0.1336167596
H   H3        1.0  0.25790  0.11720  0.66230  1.0000 0.1336167596
H   H4        1.0  0.11720  0.45490  0.85930  1.0000 0.1336167596
H   H5        1.0  0.04510  0.38280  0.14070  1.0000 0.1336167596
H   H6        1.0  0.24210  0.90440  0.85930  1.0000 0.1336167596
H   H7        1.0  0.38280  0.24210  0.33770  1.0000 0.1336167596
H   H8        1.0  0.90440  0.04510  0.66230  1.0000 0.1336167596
H   H9        1.0  0.54510  0.40440  0.66230  1.0000 0.1336167596
H   H10       1.0  0.40440  0.74210  0.85930  1.0000 0.1336167596
H   H11       1.0  0.74210  0.88280  0.33770  1.0000 0.1336167596
H   H12       1.0  0.88280  0.54510  0.14070  1.0000 0.1336167596
H   H13       1.0  0.95490  0.61720  0.85930  1.0000 0.1336167596
H   H14       1.0  0.75790  0.09560  0.14070  1.0000 0.1336167596
H   H15       1.0  0.61720  0.75790  0.66230  1.0000 0.1336167596
H   H16       1.0  0.09560  0.95490  0.33770  1.0000 0.1336167596
C   C1        1.0  0.47210  0.55410  0.40220  1.0000 0.0355832005
C   C2        1.0  0.55410  0.15190  0.08200  1.0000 0.0355832005
C   C3        1.0  0.15190  0.06990  0.59780  1.0000 0.0355832005
C   C4        1.0  0.06990  0.47210  0.91800  1.0000 0.0355832005
C   C5        1.0  0.02790  0.43010  0.08200  1.0000 0.0355832005
C   C6        1.0  0.34810  0.94590  0.91800  1.0000 0.0355832005
C   C7        1.0  0.43010  0.34810  0.40220  1.0000 0.0355832005
C   C8        1.0  0.94590  0.02790  0.59780  1.0000 0.0355832005
C   C9        1.0  0.52790  0.44590  0.59780  1.0000 0.0355832005
C   C10       1.0  0.44590  0.84810  0.91800  1.0000 0.0355832005
C   C11       1.0  0.84810  0.93010  0.40220  1.0000 0.0355832005
C   C12       1.0  0.93010  0.52790  0.08200  1.0000 0.0355832005
C   C13       1.0  0.97210  0.56990  0.91800  1.0000 0.0355832005
C   C14       1.0  0.65190  0.05410  0.08200  1.0000 0.0355832005
C   C15       1.0  0.56990  0.65190  0.59780  1.0000 0.0355832005
C   C16       1.0  0.05410  0.97210  0.40220  1.0000 0.0355832005
N   N1        1.0  0.40140  0.40140  0.30280  1.0000 -0.1893006301
N   N2        1.0  0.40140  0.09860  0.00000  1.0000 -0.1893006301
N   N3        1.0  0.09860  0.09860  0.69720  1.0000 -0.1893006301
N   N4        1.0  0.09860  0.40140  0.00000  1.0000 -0.1893006301
N   N5        1.0  0.59860  0.59860  0.69720  1.0000 -0.1893006301
N   N6        1.0  0.59860  0.90140  0.00000  1.0000 -0.1893006301
N   N7        1.0  0.90140  0.90140  0.30280  1.0000 -0.1893006301
N   N8        1.0  0.90140  0.59860  0.00000  1.0000 -0.1893006301
F   F1        1.0  0.12310  0.12310  0.00000  1.0000 -0.6109137075
F   F2        1.0  0.37690  0.37690  0.00000  1.0000 -0.6109137075
F   F3        1.0  0.87690  0.87690  0.00000  1.0000 -0.6109137075
F   F4        1.0  0.62310  0.62310  0.00000  1.0000 -0.6109137075
F   F5        1.0  0.19080  0.00800  0.19880  1.0000 -0.6109137075
F   F6        1.0  0.00800  0.80920  0.81720  1.0000 -0.6109137075
F   F7        1.0  0.80920  0.99200  0.80120  1.0000 -0.6109137075
F   F8        1.0  0.99200  0.19080  0.18280  1.0000 -0.6109137075
F   F9        1.0  0.30920  0.50800  0.81720  1.0000 -0.6109137075
F   F10       1.0  0.69080  0.49200  0.18280  1.0000 -0.6109137075
F   F11       1.0  0.50800  0.69080  0.19880  1.0000 -0.6109137075
F   F12       1.0  0.49200  0.30920  0.80120  1.0000 -0.6109137075
