# DDEC6 charges by PACMAN v1.1 (https://github.com/mtap-research/PACMAN-charge/)
data_2018[Zn][pcu]3[FSR]17
_chemical_formula_sum              "Zn6 H84 C132 N6 O24"
_cell_length_a       15.13
_cell_length_b       15.231
_cell_length_c       18.253
_cell_angle_alpha    84.956
_cell_angle_beta     74.141
_cell_angle_gamma    83.962

_symmetry_space_group_name_H-M    "P 1"
_symmetry_Int_Tables_number       1

loop_
  _symmetry_equiv_pos_as_xyz
  'x, y, z'

loop_
  _atom_site_type_symbol
  _atom_site_label
  _atom_site_symmetry_multiplicity
  _atom_site_fract_x
  _atom_site_fract_y
  _atom_site_fract_z
  _atom_site_occupancy
  _atom_site_charge
Zn  Zn1       1.0  0.26922  0.67708  0.58558  1.0000 0.8431299997
Zn  Zn2       1.0  0.21683  0.66585  0.75465  1.0000 0.8334400727
Zn  Zn3       1.0  0.97451  0.99484  0.08455  1.0000 0.8334400727
Zn  Zn4       1.0  0.02549  0.00516  0.91545  1.0000 0.8334400727
Zn  Zn5       1.0  0.73078  0.32292  0.41442  1.0000 0.8431299997
Zn  Zn6       1.0  0.78317  0.33415  0.24535  1.0000 0.8334400727
H   H1        1.0  0.57570  0.65903  0.54525  1.0000 0.1188262702
H   H2        1.0  0.72467  0.66106  0.55350  1.0000 0.1104234758
H   H3        1.0  0.63556  0.63140  0.78287  1.0000 0.1104234758
H   H4        1.0  0.48688  0.62594  0.77363  1.0000 0.1282446457
H   H5        1.0  0.85049  0.68644  0.56142  1.0000 0.1104234758
H   H6        1.0  0.99787  0.70166  0.56934  1.0000 0.1188262702
H   H7        1.0  0.91357  0.65393  0.79820  1.0000 0.1188262702
H   H8        1.0  0.76671  0.63389  0.78958  1.0000 0.1104234758
H   H9        1.0  0.17737  0.37728  0.78802  1.0000 0.1188262702
H   H10       1.0  0.18088  0.22495  0.78313  1.0000 0.1188262702
H   H11       1.0  0.32239  0.24593  0.56050  1.0000 0.1104234758
H   H12       1.0  0.30915  0.39884  0.56532  1.0000 0.1188262702
H   H13       1.0  0.24935  0.08867  0.77960  1.0000 0.1188262702
H   H14       1.0  0.24776  0.93747  0.77515  1.0000 0.1188262702
H   H15       1.0  0.27061  0.96866  0.54877  1.0000 0.1188262702
H   H16       1.0  0.26832  0.12035  0.55372  1.0000 0.1104234758
H   H17       1.0  0.24322  0.54752  0.48172  1.0000 0.1104234758
H   H18       1.0  0.23080  0.54097  0.35990  1.0000 0.1282446457
H   H19       1.0  0.28602  0.79677  0.32005  1.0000 0.1282446457
H   H20       1.0  0.29871  0.79595  0.44257  1.0000 0.1188262702
H   H21       1.0  0.30692  0.54179  0.22687  1.0000 0.1104234758
H   H22       1.0  0.29774  0.54030  0.10201  1.0000 0.1104234758
H   H23       1.0  0.17670  0.78987  0.11451  1.0000 0.1188262702
H   H24       1.0  0.18834  0.79206  0.23917  1.0000 0.1104234758
H   H25       1.0  0.23640  0.53218  0.00853  1.0000 0.1282446457
H   H26       1.0  0.22731  0.53717  0.88389  1.0000 0.1188262702
H   H27       1.0  0.21838  0.79650  0.86754  1.0000 0.1188262702
H   H28       1.0  0.22809  0.79934  0.99069  1.0000 0.1282446457
H   H29       1.0  0.67166  0.98958  0.12439  1.0000 0.1188262702
H   H30       1.0  0.52556  0.97257  0.11474  1.0000 0.1104234758
H   H31       1.0  0.60319  0.04142  0.89088  1.0000 0.1104234758
H   H32       1.0  0.75141  0.05199  0.89868  1.0000 0.1188262702
H   H33       1.0  0.02912  0.29807  0.87713  1.0000 0.1104234758
H   H34       1.0  0.02304  0.44970  0.88363  1.0000 0.1188262702
H   H35       1.0  0.99206  0.41817  0.10975  1.0000 0.1104234758
H   H36       1.0  0.00074  0.26659  0.10309  1.0000 0.1188262702
H   H37       1.0  0.98255  0.12874  0.19413  1.0000 0.1188262702
H   H38       1.0  0.99415  0.13339  0.31711  1.0000 0.1282446457
H   H39       1.0  0.97611  0.86808  0.34329  1.0000 0.1282446457
H   H40       1.0  0.96888  0.87166  0.21925  1.0000 0.1104234758
H   H41       1.0  0.05778  0.87664  0.42907  1.0000 0.1104234758
H   H42       1.0  0.06899  0.87615  0.55372  1.0000 0.1188262702
H   H43       1.0  0.32834  0.01042  0.87561  1.0000 0.1188262702
H   H44       1.0  0.47444  0.02743  0.88526  1.0000 0.1104234758
H   H45       1.0  0.39681  0.95858  0.10912  1.0000 0.1104234758
H   H46       1.0  0.24859  0.94801  0.10132  1.0000 0.1188262702
H   H47       1.0  0.97088  0.70193  0.12287  1.0000 0.1104234758
H   H48       1.0  0.97696  0.55030  0.11637  1.0000 0.1188262702
H   H49       1.0  0.00794  0.58183  0.89025  1.0000 0.1104234758
H   H50       1.0  0.99926  0.73341  0.89691  1.0000 0.1188262702
H   H51       1.0  0.01745  0.87126  0.80587  1.0000 0.1188262702
H   H52       1.0  0.00585  0.86661  0.68289  1.0000 0.1282446457
H   H53       1.0  0.02389  0.13192  0.65671  1.0000 0.1282446457
H   H54       1.0  0.03112  0.12834  0.78075  1.0000 0.1104234758
H   H55       1.0  0.94222  0.12336  0.57093  1.0000 0.1104234758
H   H56       1.0  0.93101  0.12385  0.44628  1.0000 0.1188262702
H   H57       1.0  0.42430  0.34097  0.45475  1.0000 0.1188262702
H   H58       1.0  0.27533  0.33894  0.44650  1.0000 0.1104234758
H   H59       1.0  0.36444  0.36860  0.21713  1.0000 0.1104234758
H   H60       1.0  0.51312  0.37406  0.22637  1.0000 0.1282446457
H   H61       1.0  0.14951  0.31356  0.43858  1.0000 0.1104234758
H   H62       1.0  0.00213  0.29834  0.43066  1.0000 0.1188262702
H   H63       1.0  0.08643  0.34607  0.20180  1.0000 0.1188262702
H   H64       1.0  0.23329  0.36611  0.21042  1.0000 0.1104234758
H   H65       1.0  0.82263  0.62272  0.21198  1.0000 0.1188262702
H   H66       1.0  0.81912  0.77505  0.21687  1.0000 0.1188262702
H   H67       1.0  0.67761  0.75407  0.43950  1.0000 0.1104234758
H   H68       1.0  0.69085  0.60116  0.43468  1.0000 0.1188262702
H   H69       1.0  0.75065  0.91133  0.22040  1.0000 0.1188262702
H   H70       1.0  0.75224  0.06253  0.22485  1.0000 0.1188262702
H   H71       1.0  0.72939  0.03134  0.45123  1.0000 0.1188262702
H   H72       1.0  0.73168  0.87965  0.44628  1.0000 0.1104234758
H   H73       1.0  0.75678  0.45248  0.51828  1.0000 0.1104234758
H   H74       1.0  0.76920  0.45903  0.64010  1.0000 0.1282446457
H   H75       1.0  0.71398  0.20323  0.67995  1.0000 0.1282446457
H   H76       1.0  0.70129  0.20405  0.55743  1.0000 0.1188262702
H   H77       1.0  0.69308  0.45821  0.77313  1.0000 0.1104234758
H   H78       1.0  0.70226  0.45970  0.89799  1.0000 0.1104234758
H   H79       1.0  0.82330  0.21013  0.88549  1.0000 0.1188262702
H   H80       1.0  0.81166  0.20794  0.76083  1.0000 0.1104234758
H   H81       1.0  0.76360  0.46782  0.99147  1.0000 0.1282446457
H   H82       1.0  0.77269  0.46283  0.11611  1.0000 0.1188262702
H   H83       1.0  0.78162  0.20350  0.13246  1.0000 0.1188262702
H   H84       1.0  0.77191  0.20066  0.00931  1.0000 0.1282446457
C   C1        1.0  0.41770  0.65000  0.65490  1.0000 0.591005422
C   C2        1.0  0.51500  0.64600  0.65910  1.0000 -0.0302627289
C   C3        1.0  0.58750  0.65440  0.59400  1.0000 -0.1006752813
C   C4        1.0  0.67610  0.65610  0.59900  1.0000 -0.1571032124
C   C5        1.0  0.69650  0.65060  0.66910  1.0000 0.0683731114
C   C6        1.0  0.62380  0.63810  0.73410  1.0000 -0.1571032124
C   C7        1.0  0.53510  0.63540  0.72860  1.0000 -0.1006752813
C   C8        1.0  0.79190  0.65840  0.67490  1.0000 0.0683731114
C   C9        1.0  0.86320  0.67900  0.60980  1.0000 -0.1482778799
C   C10       1.0  0.95080  0.68860  0.61430  1.0000 -0.1061583163
C   C11       1.0  0.97060  0.67930  0.68500  1.0000 -0.0302627289
C   C12       1.0  0.90100  0.65970  0.74970  1.0000 -0.1061583163
C   C13       1.0  0.81310  0.64850  0.74460  1.0000 -0.1571032124
C   C14       1.0  0.06820  0.68520  0.68830  1.0000 0.5712538434
C   C15       1.0  0.23730  0.50180  0.67870  1.0000 0.591005422
C   C16       1.0  0.24160  0.40320  0.67710  1.0000 -0.0232864546
C   C17       1.0  0.20530  0.35070  0.74110  1.0000 -0.1006752813
C   C18       1.0  0.20860  0.25970  0.73850  1.0000 -0.1482778799
C   C19       1.0  0.25220  0.21860  0.67110  1.0000 0.0801419636
C   C20       1.0  0.29090  0.27210  0.60690  1.0000 -0.1482778799
C   C21       1.0  0.28410  0.36330  0.61010  1.0000 -0.1061583163
C   C22       1.0  0.25760  0.12120  0.66710  1.0000 0.0683731114
C   C23       1.0  0.25240  0.06460  0.73260  1.0000 -0.1430757023
C   C24       1.0  0.25180  0.97480  0.73000  1.0000 -0.0919450598
C   C25       1.0  0.25690  0.93800  0.66110  1.0000 -0.0302627289
C   C26       1.0  0.26470  0.99310  0.59620  1.0000 -0.1006752813
C   C27       1.0  0.26420  0.08340  0.59900  1.0000 -0.1571032124
C   C28       1.0  0.25250  0.84020  0.65960  1.0000 0.5811071468
C   C29       1.0  0.25180  0.59910  0.44820  1.0000 0.0801419636
C   C30       1.0  0.24440  0.59470  0.37560  1.0000 -0.199710984
C   C31       1.0  0.25650  0.66840  0.32500  1.0000 0.1188262702
C   C32       1.0  0.27690  0.74430  0.35240  1.0000 -0.199710984
C   C33       1.0  0.28380  0.74350  0.42560  1.0000 0.0801419636
C   C34       1.0  0.24930  0.66730  0.24560  1.0000 0.0683731114
C   C35       1.0  0.28090  0.59280  0.20400  1.0000 -0.1482778799
C   C36       1.0  0.27500  0.59160  0.12970  1.0000 -0.1430757023
C   C37       1.0  0.23600  0.66490  0.09570  1.0000 0.0683731114
C   C38       1.0  0.20370  0.73930  0.13720  1.0000 -0.1344972515
C   C39       1.0  0.21050  0.74060  0.21160  1.0000 -0.1482778799
C   C40       1.0  0.23260  0.66580  0.01500  1.0000 0.1188262702
C   C41       1.0  0.23270  0.58760  0.98080  1.0000 -0.199710984
C   C42       1.0  0.22730  0.59120  0.90630  1.0000 0.0887298955
C   C43       1.0  0.22230  0.74210  0.89670  1.0000 0.097731415
C   C44       1.0  0.22770  0.74420  0.97020  1.0000 -0.1888475346
C   C45       1.0  0.82540  0.02210  0.01530  1.0000 0.5712538434
C   C46       1.0  0.72800  0.02040  0.01180  1.0000 -0.0375044124
C   C47       1.0  0.65880  0.99860  0.07600  1.0000 -0.1006752813
C   C48       1.0  0.57120  0.98980  0.07010  1.0000 -0.1482778799
C   C49       1.0  0.54720  0.00490  0.00270  1.0000 0.0801419636
C   C50       1.0  0.61690  0.02930  0.93870  1.0000 -0.1482778799
C   C51       1.0  0.70530  0.03610  0.94340  1.0000 -0.1061583163
C   C52       1.0  0.01400  0.16880  0.98690  1.0000 0.5811071468
C   C53       1.0  0.01440  0.26670  0.98950  1.0000 -0.0302627289
C   C54       1.0  0.02140  0.32220  0.92500  1.0000 -0.1006752813
C   C55       1.0  0.01730  0.41280  0.92910  1.0000 -0.1571032124
C   C56       1.0  0.00500  0.45130  0.99750  1.0000 0.0683731114
C   C57       1.0  0.99940  0.39430  0.06190  1.0000 -0.1482778799
C   C58       1.0  0.00430  0.30390  0.05800  1.0000 -0.0919450598
C   C59       1.0  0.98230  0.07510  0.22500  1.0000 0.097731415
C   C60       1.0  0.98860  0.07860  0.29840  1.0000 -0.1888475346
C   C61       1.0  0.98660  0.00080  0.34520  1.0000 0.1188262702
C   C62       1.0  0.97840  0.92270  0.31360  1.0000 -0.199710984
C   C63       1.0  0.97380  0.92550  0.23980  1.0000 0.0801419636
C   C64       1.0  0.99270  0.00020  0.42510  1.0000 0.0683731114
C   C65       1.0  0.03400  0.92700  0.45780  1.0000 -0.1430757023
C   C66       1.0  0.04090  0.92680  0.53200  1.0000 -0.1344972515
C   C67       1.0  0.17460  0.97790  0.98470  1.0000 0.5712538434
C   C68       1.0  0.27200  0.97960  0.98820  1.0000 -0.0375044124
C   C69       1.0  0.34120  0.00140  0.92400  1.0000 -0.1006752813
C   C70       1.0  0.42880  0.01020  0.92990  1.0000 -0.1482778799
C   C71       1.0  0.45280  0.99510  0.99730  1.0000 0.0801419636
C   C72       1.0  0.38310  0.97070  0.06130  1.0000 -0.1482778799
C   C73       1.0  0.29470  0.96390  0.05660  1.0000 -0.1061583163
C   C74       1.0  0.98600  0.83120  0.01310  1.0000 0.5811071468
C   C75       1.0  0.98560  0.73330  0.01050  1.0000 -0.0302627289
C   C76       1.0  0.97860  0.67780  0.07500  1.0000 -0.1006752813
C   C77       1.0  0.98270  0.58720  0.07090  1.0000 -0.1571032124
C   C78       1.0  0.99500  0.54870  0.00250  1.0000 0.0683731114
C   C79       1.0  0.00060  0.60570  0.93810  1.0000 -0.1482778799
C   C80       1.0  0.99570  0.69610  0.94200  1.0000 -0.0919450598
C   C81       1.0  0.01770  0.92490  0.77500  1.0000 0.097731415
C   C82       1.0  0.01140  0.92140  0.70160  1.0000 -0.1888475346
C   C83       1.0  0.01340  0.99920  0.65480  1.0000 0.1188262702
C   C84       1.0  0.02160  0.07730  0.68640  1.0000 -0.199710984
C   C85       1.0  0.02620  0.07450  0.76020  1.0000 0.0801419636
C   C86       1.0  0.00730  0.99980  0.57490  1.0000 0.0643536819
C   C87       1.0  0.96600  0.07300  0.54220  1.0000 -0.1430757023
C   C88       1.0  0.95910  0.07320  0.46800  1.0000 -0.1344972515
C   C89       1.0  0.58230  0.35000  0.34510  1.0000 0.591005422
C   C90       1.0  0.48500  0.35400  0.34090  1.0000 -0.0302627289
C   C91       1.0  0.41250  0.34560  0.40600  1.0000 -0.1006752813
C   C92       1.0  0.32390  0.34390  0.40100  1.0000 -0.1571032124
C   C93       1.0  0.30350  0.34940  0.33090  1.0000 0.0683731114
C   C94       1.0  0.37620  0.36190  0.26590  1.0000 -0.1571032124
C   C95       1.0  0.46490  0.36460  0.27140  1.0000 -0.1006752813
C   C96       1.0  0.20810  0.34160  0.32510  1.0000 0.0683731114
C   C97       1.0  0.13680  0.32100  0.39020  1.0000 -0.1482778799
C   C98       1.0  0.04920  0.31140  0.38570  1.0000 -0.1061583163
C   C99       1.0  0.02940  0.32070  0.31500  1.0000 -0.0302627289
C   C100      1.0  0.09900  0.34030  0.25030  1.0000 -0.1061583163
C   C101      1.0  0.18690  0.35150  0.25540  1.0000 -0.1571032124
C   C102      1.0  0.93180  0.31480  0.31170  1.0000 0.5712538434
C   C103      1.0  0.76270  0.49820  0.32130  1.0000 0.591005422
C   C104      1.0  0.75840  0.59680  0.32290  1.0000 -0.0232864546
C   C105      1.0  0.79470  0.64930  0.25890  1.0000 -0.1006752813
C   C106      1.0  0.79140  0.74030  0.26150  1.0000 -0.1482778799
C   C107      1.0  0.74780  0.78140  0.32890  1.0000 0.0801419636
C   C108      1.0  0.70910  0.72790  0.39310  1.0000 -0.1482778799
C   C109      1.0  0.71590  0.63670  0.38990  1.0000 -0.1061583163
C   C110      1.0  0.74240  0.87880  0.33290  1.0000 0.0683731114
C   C111      1.0  0.74760  0.93540  0.26740  1.0000 -0.1430757023
C   C112      1.0  0.74820  0.02520  0.27000  1.0000 -0.0919450598
C   C113      1.0  0.74310  0.06200  0.33890  1.0000 -0.0302627289
C   C114      1.0  0.73530  0.00690  0.40380  1.0000 -0.1006752813
C   C115      1.0  0.73580  0.91660  0.40100  1.0000 -0.1571032124
C   C116      1.0  0.74750  0.15980  0.34040  1.0000 0.5811071468
C   C117      1.0  0.74820  0.40090  0.55180  1.0000 0.0801419636
C   C118      1.0  0.75560  0.40530  0.62440  1.0000 -0.199710984
C   C119      1.0  0.74350  0.33160  0.67500  1.0000 0.1188262702
C   C120      1.0  0.72310  0.25570  0.64760  1.0000 -0.199710984
C   C121      1.0  0.71620  0.25650  0.57440  1.0000 0.0801419636
C   C122      1.0  0.75070  0.33270  0.75440  1.0000 0.0683731114
C   C123      1.0  0.71910  0.40720  0.79600  1.0000 -0.1482778799
C   C124      1.0  0.72500  0.40840  0.87030  1.0000 -0.1430757023
C   C125      1.0  0.76400  0.33510  0.90430  1.0000 0.0683731114
C   C126      1.0  0.79630  0.26070  0.86280  1.0000 -0.1344972515
C   C127      1.0  0.78950  0.25940  0.78840  1.0000 -0.1482778799
C   C128      1.0  0.76740  0.33420  0.98500  1.0000 0.1188262702
C   C129      1.0  0.76730  0.41240  0.01920  1.0000 -0.199710984
C   C130      1.0  0.77270  0.40880  0.09370  1.0000 0.0887298955
C   C131      1.0  0.77770  0.25790  0.10330  1.0000 0.097731415
C   C132      1.0  0.77230  0.25580  0.02980  1.0000 -0.1888475346
N   N1        1.0  0.27060  0.67240  0.47430  1.0000 -0.2096556949
N   N2        1.0  0.22220  0.66690  0.86400  1.0000 -0.2222128363
N   N3        1.0  0.97580  0.99990  0.19490  1.0000 -0.2222128363
N   N4        1.0  0.02420  0.00010  0.80510  1.0000 -0.2222128363
N   N5        1.0  0.72940  0.32760  0.52570  1.0000 -0.2096556949
N   N6        1.0  0.77780  0.33310  0.13600  1.0000 -0.2222128363
O   O1        1.0  0.40220  0.66770  0.59010  1.0000 -0.5286231564
O   O2        1.0  0.35740  0.63640  0.71580  1.0000 -0.5405106993
O   O3        1.0  0.08210  0.68730  0.75300  1.0000 -0.5405106993
O   O4        1.0  0.12870  0.68650  0.62589  1.0000 -0.5513448196
O   O5        1.0  0.26510  0.54470  0.61563  1.0000 -0.5586236643
O   O6        1.0  0.20610  0.53480  0.74252  1.0000 -0.5405106993
O   O7        1.0  0.23760  0.79510  0.72209  1.0000 -0.5586236643
O   O8        1.0  0.26390  0.80950  0.59509  1.0000 -0.5513448196
O   O9        1.0  0.84120  0.01340  0.07990  1.0000 -0.5286231564
O   O10       1.0  0.88480  0.03150  0.95320  1.0000 -0.5405106993
O   O11       1.0  0.99420  0.12420  0.04929  1.0000 -0.5513448196
O   O12       1.0  0.03300  0.13750  0.92190  1.0000 -0.5513448196
O   O13       1.0  0.15880  0.98660  0.92010  1.0000 -0.5286231564
O   O14       1.0  0.11520  0.96850  0.04680  1.0000 -0.5405106993
O   O15       1.0  0.00580  0.87580  0.95071  1.0000 -0.5513448196
O   O16       1.0  0.96700  0.86250  0.07810  1.0000 -0.5513448196
O   O17       1.0  0.59780  0.33230  0.40990  1.0000 -0.5286231564
O   O18       1.0  0.64260  0.36360  0.28420  1.0000 -0.5405106993
O   O19       1.0  0.91790  0.31270  0.24700  1.0000 -0.5405106993
O   O20       1.0  0.87130  0.31350  0.37411  1.0000 -0.5513448196
O   O21       1.0  0.73490  0.45530  0.38437  1.0000 -0.5586236643
O   O22       1.0  0.79390  0.46520  0.25748  1.0000 -0.5405106993
O   O23       1.0  0.76240  0.20490  0.27791  1.0000 -0.5586236643
O   O24       1.0  0.73610  0.19050  0.40491  1.0000 -0.5513448196
