# DDEC6 charges by PACMAN v1.1 (https://github.com/mtap-research/PACMAN-charge/)
data_2019[Ce][dia]3[FSR]1
_chemical_formula_sum              "Ce4 H8 C48 Cl16 O36"
_cell_length_a       15.1332
_cell_length_b       15.1332
_cell_length_c       20.242
_cell_angle_alpha    84.0731
_cell_angle_beta     95.9269
_cell_angle_gamma    117.591

_symmetry_space_group_name_H-M    "P 1"
_symmetry_Int_Tables_number       1

loop_
  _symmetry_equiv_pos_as_xyz
  'x, y, z'

loop_
  _atom_site_type_symbol
  _atom_site_label
  _atom_site_symmetry_multiplicity
  _atom_site_fract_x
  _atom_site_fract_y
  _atom_site_fract_z
  _atom_site_occupancy
  _atom_site_charge
Ce  Ce1       1.0  0.67476  0.82530  0.53689  1.0000 2.0250551232
Ce  Ce2       1.0  0.82530  0.67476  0.96311  1.0000 2.022610856
Ce  Ce3       1.0  0.32524  0.17470  0.46311  1.0000 2.022610856
Ce  Ce4       1.0  0.17470  0.32524  0.03689  1.0000 2.022610856
H   H1        1.0  0.58082  0.75892  0.38987  1.0000 0.4286045461
H   H2        1.0  0.52964  0.81722  0.40763  1.0000 0.4243583211
H   H3        1.0  0.75892  0.58082  0.11013  1.0000 0.4286045461
H   H4        1.0  0.81722  0.52964  0.09237  1.0000 0.4286045461
H   H5        1.0  0.41918  0.24108  0.61013  1.0000 0.4286045461
H   H6        1.0  0.47036  0.18278  0.59237  1.0000 0.4286045461
H   H7        1.0  0.24108  0.41918  0.88987  1.0000 0.4286045461
H   H8        1.0  0.18278  0.47036  0.90763  1.0000 0.4243583211
C   C1        1.0  0.41545  0.91639  0.52827  1.0000 -0.1301190036
C   C2        1.0  0.89936  0.94054  0.47323  1.0000 0.2605113664
C   C3        1.0  0.97836  0.96416  0.43368  1.0000 -0.1201571527
C   C4        1.0  0.75358  0.76610  0.81984  1.0000 0.2833474704
C   C5        1.0  0.07790  0.01988  0.45651  1.0000 0.2657534707
C   C6        1.0  0.40429  0.99963  0.50214  1.0000 0.2360249587
C   C7        1.0  0.50462  0.91046  0.52781  1.0000 0.254147453
C   C8        1.0  0.51441  0.58029  0.53985  1.0000 0.2605113664
C   C9        1.0  0.71159  0.80739  0.70442  1.0000 0.2605113664
C   C10       1.0  0.71134  0.81278  0.77249  1.0000 -0.1365745052
C   C11       1.0  0.42941  0.48929  0.54689  1.0000 -0.1301190036
C   C12       1.0  0.40944  0.40792  0.51002  1.0000 0.2605113664
C   C13       1.0  0.91639  0.41545  0.97173  1.0000 -0.1301190036
C   C14       1.0  0.94054  0.89936  0.02677  1.0000 0.2605113664
C   C15       1.0  0.96416  0.97836  0.06632  1.0000 -0.1201571527
C   C16       1.0  0.76610  0.75358  0.68016  1.0000 0.2833474704
C   C17       1.0  0.01988  0.07790  0.04349  1.0000 0.2657534707
C   C18       1.0  0.99963  0.40429  0.99786  1.0000 0.2341965714
C   C19       1.0  0.91046  0.50462  0.97219  1.0000 0.254147453
C   C20       1.0  0.58029  0.51441  0.96015  1.0000 0.2605113664
C   C21       1.0  0.80739  0.71159  0.79558  1.0000 0.2605113664
C   C22       1.0  0.81278  0.71134  0.72751  1.0000 -0.1365745052
C   C23       1.0  0.48929  0.42941  0.95311  1.0000 -0.1301190036
C   C24       1.0  0.40792  0.40944  0.98998  1.0000 0.2605113664
C   C25       1.0  0.58455  0.08361  0.47173  1.0000 -0.1301190036
C   C26       1.0  0.10064  0.05946  0.52677  1.0000 0.2605113664
C   C27       1.0  0.02164  0.03584  0.56632  1.0000 -0.1201571527
C   C28       1.0  0.24642  0.23390  0.18016  1.0000 0.2833474704
C   C29       1.0  0.92210  0.98012  0.54349  1.0000 0.2605113664
C   C30       1.0  0.59571  0.00037  0.49786  1.0000 0.2360249587
C   C31       1.0  0.49538  0.08954  0.47219  1.0000 0.254147453
C   C32       1.0  0.48559  0.41971  0.46015  1.0000 0.254147453
C   C33       1.0  0.28841  0.19261  0.29558  1.0000 0.2605113664
C   C34       1.0  0.28866  0.18722  0.22751  1.0000 -0.1365745052
C   C35       1.0  0.57059  0.51071  0.45311  1.0000 -0.1301190036
C   C36       1.0  0.59056  0.59208  0.48998  1.0000 0.2605113664
C   C37       1.0  0.08361  0.58455  0.02827  1.0000 -0.1301190036
C   C38       1.0  0.05946  0.10064  0.97323  1.0000 0.2605113664
C   C39       1.0  0.03584  0.02164  0.93368  1.0000 -0.1201571527
C   C40       1.0  0.23390  0.24642  0.31984  1.0000 0.2833474704
C   C41       1.0  0.98012  0.92210  0.95651  1.0000 0.2657534707
C   C42       1.0  0.00037  0.59571  0.00214  1.0000 0.2360249587
C   C43       1.0  0.08954  0.49538  0.02781  1.0000 0.254147453
C   C44       1.0  0.41971  0.48559  0.03985  1.0000 0.2605113664
C   C45       1.0  0.19261  0.28841  0.20442  1.0000 0.2605113664
C   C46       1.0  0.18722  0.28866  0.27249  1.0000 -0.1365745052
C   C47       1.0  0.51071  0.57059  0.04689  1.0000 -0.1301190036
C   C48       1.0  0.59208  0.59056  0.01002  1.0000 0.2605113664
Cl  Cl1       1.0  0.31503  0.81641  0.56469  1.0000 0.0140226397
Cl  Cl2       1.0  0.34377  0.47623  0.60283  1.0000 -0.0298660028
Cl  Cl3       1.0  0.95275  0.91667  0.35583  1.0000 -0.0112010131
Cl  Cl4       1.0  0.65071  0.87299  0.80124  1.0000 0.0766247173
Cl  Cl5       1.0  0.81641  0.31503  0.93531  1.0000 0.0140226397
Cl  Cl6       1.0  0.47623  0.34377  0.89717  1.0000 -0.0298660028
Cl  Cl7       1.0  0.91667  0.95275  0.14417  1.0000 -0.0112010131
Cl  Cl8       1.0  0.87299  0.65071  0.69876  1.0000 0.0766247173
Cl  Cl9       1.0  0.68497  0.18359  0.43531  1.0000 0.0256492828
Cl  Cl10      1.0  0.65623  0.52377  0.39717  1.0000 -0.0298660028
Cl  Cl11      1.0  0.04725  0.08333  0.64417  1.0000 -0.0112010131
Cl  Cl12      1.0  0.34929  0.12701  0.19876  1.0000 0.0766247173
Cl  Cl13      1.0  0.18359  0.68497  0.06469  1.0000 0.0150329077
Cl  Cl14      1.0  0.52377  0.65623  0.10283  1.0000 -0.0298660028
Cl  Cl15      1.0  0.08333  0.04725  0.85583  1.0000 -0.0112010131
Cl  Cl16      1.0  0.12701  0.34929  0.30124  1.0000 0.0766247173
O   O1        1.0  0.51849  0.83771  0.55047  1.0000 -0.4602521058
O   O2        1.0  0.80845  0.88849  0.45676  1.0000 -0.4805768451
O   O3        1.0  0.32605  0.00951  0.50005  1.0000 -0.4704179413
O   O4        1.0  0.66949  0.84165  0.65930  1.0000 -0.4704179413
O   O5        1.0  0.15288  0.04108  0.42505  1.0000 -0.4602521058
O   O6        1.0  0.75028  0.76430  0.88123  1.0000 -0.4704179413
O   O7        1.0  0.53616  0.65626  0.57068  1.0000 -0.4602521058
O   O8        1.0  0.33432  0.32490  0.51387  1.0000 -0.4416551835
O   O9        1.0  0.57734  0.79502  0.42427  1.0000 -0.7777958533
O   O10       1.0  0.83771  0.51849  0.94953  1.0000 -0.4602521058
O   O11       1.0  0.88849  0.80845  0.04324  1.0000 -0.4805768451
O   O12       1.0  0.00951  0.32605  0.99995  1.0000 -0.4704179413
O   O13       1.0  0.84165  0.66949  0.84070  1.0000 -0.4704179413
O   O14       1.0  0.04108  0.15288  0.07495  1.0000 -0.4602521058
O   O15       1.0  0.76430  0.75028  0.61877  1.0000 -0.4704179413
O   O16       1.0  0.65626  0.53616  0.92932  1.0000 -0.4602521058
O   O17       1.0  0.32490  0.33432  0.98613  1.0000 -0.4416551835
O   O18       1.0  0.79502  0.57734  0.07573  1.0000 -0.7777958533
O   O19       1.0  0.48151  0.16229  0.44953  1.0000 -0.4602521058
O   O20       1.0  0.19155  0.11151  0.54324  1.0000 -0.4805768451
O   O21       1.0  0.67395  0.99049  0.49995  1.0000 -0.4704179413
O   O22       1.0  0.33051  0.15835  0.34070  1.0000 -0.4704179413
O   O23       1.0  0.84712  0.95892  0.57495  1.0000 -0.4602521058
O   O24       1.0  0.24972  0.23570  0.11877  1.0000 -0.4704179413
O   O25       1.0  0.46384  0.34374  0.42932  1.0000 -0.4602521058
O   O26       1.0  0.66568  0.67510  0.48613  1.0000 -0.4416551835
O   O27       1.0  0.42266  0.20498  0.57573  1.0000 -0.7777958533
O   O28       1.0  0.16229  0.48151  0.05047  1.0000 -0.4602521058
O   O29       1.0  0.11151  0.19155  0.95676  1.0000 -0.4805768451
O   O30       1.0  0.99049  0.67395  0.00005  1.0000 -0.4704179413
O   O31       1.0  0.15835  0.33051  0.15930  1.0000 -0.4704179413
O   O32       1.0  0.95892  0.84712  0.92505  1.0000 -0.4602521058
O   O33       1.0  0.23570  0.24972  0.38123  1.0000 -0.4704179413
O   O34       1.0  0.34374  0.46384  0.07068  1.0000 -0.4602521058
O   O35       1.0  0.67510  0.66568  0.01387  1.0000 -0.4416551835
O   O36       1.0  0.20498  0.42266  0.92427  1.0000 -0.7777958533
