# DDEC6 charges by PACMAN v1.1 (https://github.com/mtap-research/PACMAN-charge/)
data_2020[Zn][pcu]3[FSR]10
_chemical_formula_sum              "Zn8 H120 C168 N16 O40"
_cell_length_a       13.6658
_cell_length_b       24.8585
_cell_length_c       16.4224
_cell_angle_alpha    90
_cell_angle_beta     105.467
_cell_angle_gamma    90

_symmetry_space_group_name_H-M    "P 1"
_symmetry_Int_Tables_number       1

loop_
  _symmetry_equiv_pos_as_xyz
  'x, y, z'

loop_
  _atom_site_type_symbol
  _atom_site_label
  _atom_site_symmetry_multiplicity
  _atom_site_fract_x
  _atom_site_fract_y
  _atom_site_fract_z
  _atom_site_occupancy
  _atom_site_charge
Zn  Zn1       1.0  0.61462  0.23957  0.57602  1.0000 0.8081133145
Zn  Zn2       1.0  0.75485  0.26993  0.76259  1.0000 0.8458392996
Zn  Zn3       1.0  0.38538  0.73957  0.92398  1.0000 0.8081133145
Zn  Zn4       1.0  0.24515  0.76993  0.73741  1.0000 0.8458392996
Zn  Zn5       1.0  0.38538  0.76043  0.42398  1.0000 0.8081133145
Zn  Zn6       1.0  0.24515  0.73007  0.23741  1.0000 0.8458392996
Zn  Zn7       1.0  0.61462  0.26043  0.07602  1.0000 0.8081133145
Zn  Zn8       1.0  0.75485  0.23007  0.26259  1.0000 0.8458392996
H   H1        1.0  0.76849  0.20669  0.92390  1.0000 0.1115699935
H   H2        1.0  0.61465  0.19324  0.41218  1.0000 0.1211677605
H   H3        1.0  0.50941  0.18455  0.27571  1.0000 0.1512796822
H   H4        1.0  0.88217  0.18711  0.05308  1.0000 0.1405149201
H   H5        1.0  0.97966  0.28423  0.84766  1.0000 0.1211677605
H   H6        1.0  0.05303  0.02452  0.68107  1.0000 0.1315597076
H   H7        1.0  0.39098  0.65763  0.61664  1.0000 0.1211677605
H   H8        1.0  0.27433  0.01432  0.55823  1.0000 0.1405149201
H   H9        1.0  0.30853  0.92647  0.60592  1.0000 0.1211677605
H   H10       1.0  0.08955  0.93512  0.73003  1.0000 0.1211677605
H   H11       1.0  0.96405  0.08173  0.48692  1.0000 0.1315597076
H   H12       1.0  0.09737  0.26944  0.97518  1.0000 0.1315597076
H   H13       1.0  0.56126  0.40192  0.67608  1.0000 0.1211677605
H   H14       1.0  0.55761  0.49625  0.68540  1.0000 0.1315597076
H   H15       1.0  0.60290  0.64479  0.84046  1.0000 0.1211677605
H   H16       1.0  0.82812  0.13467  0.50102  1.0000 0.1211677605
H   H17       1.0  0.04499  0.14995  0.17051  1.0000 0.1559911716
H   H18       1.0  0.97417  0.19955  0.17996  1.0000 0.1559911716
H   H19       1.0  0.08953  0.19728  0.23596  1.0000 0.1405149201
H   H20       1.0  0.40189  0.27240  0.48382  1.0000 0.1115699935
H   H21       1.0  0.29372  0.26643  0.35105  1.0000 0.1405149201
H   H22       1.0  0.99978  0.19169  0.72420  1.0000 0.1211677605
H   H23       1.0  0.13687  0.13948  0.70916  1.0000 0.1405149201
H   H24       1.0  0.48983  0.60339  0.55260  1.0000 0.1315597076
H   H25       1.0  0.70084  0.58975  0.77695  1.0000 0.1315597076
H   H26       1.0  0.76002  0.41137  0.53455  1.0000 0.1211677605
H   H27       1.0  0.36584  0.15735  0.15169  1.0000 0.1512796822
H   H28       1.0  0.41959  0.21308  0.14078  1.0000 0.1559911716
H   H29       1.0  0.30480  0.20209  0.08803  1.0000 0.1405149201
H   H30       1.0  0.76158  0.50526  0.54587  1.0000 0.1405149201
H   H31       1.0  0.23151  0.70669  0.57610  1.0000 0.1115699935
H   H32       1.0  0.38535  0.69324  0.08782  1.0000 0.1211677605
H   H33       1.0  0.49059  0.68455  0.22429  1.0000 0.1512796822
H   H34       1.0  0.11783  0.68711  0.44692  1.0000 0.1405149201
H   H35       1.0  0.02034  0.78423  0.65234  1.0000 0.1211677605
H   H36       1.0  0.94697  0.52452  0.81893  1.0000 0.1315597076
H   H37       1.0  0.60902  0.15763  0.88336  1.0000 0.1211677605
H   H38       1.0  0.72567  0.51432  0.94177  1.0000 0.1405149201
H   H39       1.0  0.69147  0.42647  0.89408  1.0000 0.1211677605
H   H40       1.0  0.91045  0.43512  0.76997  1.0000 0.1211677605
H   H41       1.0  0.03595  0.58173  0.01308  1.0000 0.1315597076
H   H42       1.0  0.90263  0.76944  0.52482  1.0000 0.1315597076
H   H43       1.0  0.43874  0.90192  0.82392  1.0000 0.1211677605
H   H44       1.0  0.44239  0.99625  0.81460  1.0000 0.1315597076
H   H45       1.0  0.39710  0.14479  0.65954  1.0000 0.1211677605
H   H46       1.0  0.17188  0.63467  0.99898  1.0000 0.1211677605
H   H47       1.0  0.95501  0.64995  0.32949  1.0000 0.1559911716
H   H48       1.0  0.02583  0.69955  0.32004  1.0000 0.1559911716
H   H49       1.0  0.91047  0.69728  0.26404  1.0000 0.1405149201
H   H50       1.0  0.59811  0.77240  0.01618  1.0000 0.1115699935
H   H51       1.0  0.70628  0.76643  0.14895  1.0000 0.1405149201
H   H52       1.0  0.00022  0.69169  0.77580  1.0000 0.1211677605
H   H53       1.0  0.86313  0.63948  0.79084  1.0000 0.1405149201
H   H54       1.0  0.51017  0.10339  0.94740  1.0000 0.1315597076
H   H55       1.0  0.29916  0.08975  0.72305  1.0000 0.1315597076
H   H56       1.0  0.23998  0.91137  0.96545  1.0000 0.1211677605
H   H57       1.0  0.63416  0.65735  0.34831  1.0000 0.1512796822
H   H58       1.0  0.58041  0.71308  0.35922  1.0000 0.1512796822
H   H59       1.0  0.69520  0.70209  0.41197  1.0000 0.1405149201
H   H60       1.0  0.23842  0.00526  0.95413  1.0000 0.1405149201
H   H61       1.0  0.23151  0.79331  0.07610  1.0000 0.1115699935
H   H62       1.0  0.38535  0.80676  0.58782  1.0000 0.1211677605
H   H63       1.0  0.49059  0.81545  0.72429  1.0000 0.1512796822
H   H64       1.0  0.11783  0.81289  0.94692  1.0000 0.1405149201
H   H65       1.0  0.02034  0.71577  0.15234  1.0000 0.1211677605
H   H66       1.0  0.94697  0.97548  0.31893  1.0000 0.1315597076
H   H67       1.0  0.60902  0.34237  0.38336  1.0000 0.1211677605
H   H68       1.0  0.72567  0.98568  0.44177  1.0000 0.1405149201
H   H69       1.0  0.69147  0.07353  0.39408  1.0000 0.1211677605
H   H70       1.0  0.91045  0.06488  0.26997  1.0000 0.1211677605
H   H71       1.0  0.03595  0.91827  0.51308  1.0000 0.1315597076
H   H72       1.0  0.90263  0.73056  0.02482  1.0000 0.1315597076
H   H73       1.0  0.43874  0.59808  0.32392  1.0000 0.1211677605
H   H74       1.0  0.44239  0.50375  0.31460  1.0000 0.1315597076
H   H75       1.0  0.39710  0.35521  0.15954  1.0000 0.1211677605
H   H76       1.0  0.17188  0.86533  0.49898  1.0000 0.1211677605
H   H77       1.0  0.95501  0.85005  0.82949  1.0000 0.1559911716
H   H78       1.0  0.02583  0.80045  0.82004  1.0000 0.1559911716
H   H79       1.0  0.91047  0.80272  0.76404  1.0000 0.1405149201
H   H80       1.0  0.59811  0.72760  0.51618  1.0000 0.1115699935
H   H81       1.0  0.70628  0.73357  0.64895  1.0000 0.1405149201
H   H82       1.0  0.00022  0.80831  0.27580  1.0000 0.1211677605
H   H83       1.0  0.86313  0.86052  0.29084  1.0000 0.1405149201
H   H84       1.0  0.51017  0.39661  0.44740  1.0000 0.1315597076
H   H85       1.0  0.29916  0.41025  0.22305  1.0000 0.1315597076
H   H86       1.0  0.23998  0.58863  0.46545  1.0000 0.1211677605
H   H87       1.0  0.63416  0.84265  0.84831  1.0000 0.1512796822
H   H88       1.0  0.58041  0.78692  0.85922  1.0000 0.1512796822
H   H89       1.0  0.69520  0.79791  0.91197  1.0000 0.1405149201
H   H90       1.0  0.23842  0.49474  0.45413  1.0000 0.1405149201
H   H91       1.0  0.76849  0.29331  0.42390  1.0000 0.1115699935
H   H92       1.0  0.61465  0.30676  0.91218  1.0000 0.1211677605
H   H93       1.0  0.50941  0.31545  0.77571  1.0000 0.1512796822
H   H94       1.0  0.88217  0.31289  0.55308  1.0000 0.1405149201
H   H95       1.0  0.97966  0.21577  0.34766  1.0000 0.1211677605
H   H96       1.0  0.05303  0.47548  0.18107  1.0000 0.1315597076
H   H97       1.0  0.39098  0.84237  0.11664  1.0000 0.1211677605
H   H98       1.0  0.27433  0.48568  0.05823  1.0000 0.1405149201
H   H99       1.0  0.30853  0.57353  0.10592  1.0000 0.1211677605
H   H100      1.0  0.08955  0.56488  0.23003  1.0000 0.1211677605
H   H101      1.0  0.96405  0.41827  0.98692  1.0000 0.1315597076
H   H102      1.0  0.09737  0.23056  0.47518  1.0000 0.1315597076
H   H103      1.0  0.56126  0.09808  0.17608  1.0000 0.1211677605
H   H104      1.0  0.55761  0.00375  0.18540  1.0000 0.1315597076
H   H105      1.0  0.60290  0.85521  0.34046  1.0000 0.1211677605
H   H106      1.0  0.82812  0.36533  0.00102  1.0000 0.1211677605
H   H107      1.0  0.04499  0.35005  0.67051  1.0000 0.1559911716
H   H108      1.0  0.97417  0.30045  0.67996  1.0000 0.1559911716
H   H109      1.0  0.08953  0.30272  0.73596  1.0000 0.1405149201
H   H110      1.0  0.40189  0.22760  0.98382  1.0000 0.1115699935
H   H111      1.0  0.29372  0.23357  0.85105  1.0000 0.1405149201
H   H112      1.0  0.99978  0.30831  0.22420  1.0000 0.1211677605
H   H113      1.0  0.13687  0.36052  0.20916  1.0000 0.1405149201
H   H114      1.0  0.48983  0.89661  0.05260  1.0000 0.1315597076
H   H115      1.0  0.70084  0.91025  0.27695  1.0000 0.1315597076
H   H116      1.0  0.76002  0.08863  0.03455  1.0000 0.1211677605
H   H117      1.0  0.36584  0.34265  0.65169  1.0000 0.1512796822
H   H118      1.0  0.41959  0.28692  0.64078  1.0000 0.1559911716
H   H119      1.0  0.30480  0.29791  0.58803  1.0000 0.1405149201
H   H120      1.0  0.76158  0.99474  0.04587  1.0000 0.1405149201
C   C1        1.0  0.83650  0.21910  0.93450  1.0000 0.1046462286
C   C2        1.0  0.22160  0.86510  0.69970  1.0000 0.5283744115
C   C3        1.0  0.81270  0.19988  0.62540  1.0000 0.5825340974
C   C4        1.0  0.54810  0.20790  0.39940  1.0000 0.1115699935
C   C5        1.0  0.48550  0.20270  0.31760  1.0000 -0.1619996575
C   C6        1.0  0.20180  0.92220  0.67090  1.0000 -0.0505783056
C   C7        1.0  0.89980  0.16719  0.61510  1.0000 -0.0505783056
C   C8        1.0  0.90370  0.20760  0.01230  1.0000 -0.1619996575
C   C9        1.0  0.42560  0.69230  0.77520  1.0000 0.5825340974
C   C10       1.0  0.65940  0.39790  0.60300  1.0000 -0.0505783056
C   C11       1.0  0.38860  0.22390  0.29770  1.0000 0.0808202975
C   C12       1.0  0.06210  0.10730  0.59660  1.0000 0.2393538881
C   C13       1.0  0.00330  0.22660  0.02980  1.0000 0.0734903847
C   C14       1.0  0.48700  0.65670  0.73430  1.0000 -0.0505783056
C   C15       1.0  0.95980  0.26470  0.89030  1.0000 0.0808202975
C   C16       1.0  0.65700  0.33870  0.59100  1.0000 0.5482544679
C   C17       1.0  0.31870  0.21980  0.21120  1.0000 0.2669749934
C   C18       1.0  0.15950  0.02680  0.61490  1.0000 0.2589257698
C   C19       1.0  0.10450  0.00440  0.66580  1.0000 -0.2395256233
C   C20       1.0  0.45430  0.64410  0.64940  1.0000 -0.0731389454
C   C21       1.0  0.07580  0.21810  0.11380  1.0000 0.2589257698
C   C22       1.0  0.23640  0.99820  0.59250  1.0000 -0.2111178437
C   C23       1.0  0.25640  0.94620  0.62090  1.0000 -0.0782686497
C   C24       1.0  0.12620  0.95120  0.69470  1.0000 -0.0782686497
C   C25       1.0  0.97110  0.10440  0.53470  1.0000 -0.2000877966
C   C26       1.0  0.03030  0.25580  0.96600  1.0000 -0.1711422227
C   C27       1.0  0.60100  0.42310  0.64870  1.0000 -0.0731389454
C   C28       1.0  0.59940  0.47910  0.65540  1.0000 -0.2310318919
C   C29       1.0  0.57960  0.63640  0.78200  1.0000 -0.0782686497
C   C30       1.0  0.89050  0.13530  0.54390  1.0000 -0.0782686497
C   C31       1.0  0.66020  0.50870  0.61730  1.0000 0.2669749934
C   C32       1.0  0.04340  0.18870  0.18070  1.0000 -0.5078909617
C   C33       1.0  0.42380  0.25420  0.44090  1.0000 0.0734903847
C   C34       1.0  0.35930  0.25060  0.36220  1.0000 -0.1711422227
C   C35       1.0  0.99220  0.16930  0.67610  1.0000 -0.0731389454
C   C36       1.0  0.07390  0.13860  0.66700  1.0000 -0.1921796349
C   C37       1.0  0.51270  0.61200  0.61100  1.0000 -0.2111178437
C   C38       1.0  0.60350  0.59300  0.65920  1.0000 0.2393538881
C   C39       1.0  0.63810  0.60410  0.74450  1.0000 -0.2000877966
C   C40       1.0  0.71910  0.42850  0.56540  1.0000 -0.0731389454
C   C41       1.0  0.35530  0.19610  0.14210  1.0000 -0.5164354813
C   C42       1.0  0.72030  0.48430  0.57200  1.0000 -0.2111178437
C   C43       1.0  0.16350  0.71910  0.56550  1.0000 0.1046462286
C   C44       1.0  0.77840  0.36510  0.80030  1.0000 0.5283744115
C   C45       1.0  0.18730  0.69988  0.87460  1.0000 0.5825340974
C   C46       1.0  0.45190  0.70790  0.10060  1.0000 0.1115699935
C   C47       1.0  0.51450  0.70270  0.18240  1.0000 -0.1619996575
C   C48       1.0  0.79820  0.42220  0.82910  1.0000 -0.0505783056
C   C49       1.0  0.10020  0.66719  0.88490  1.0000 -0.0505783056
C   C50       1.0  0.09630  0.70760  0.48770  1.0000 -0.1619996575
C   C51       1.0  0.57440  0.19230  0.72480  1.0000 0.5825340974
C   C52       1.0  0.34060  0.89790  0.89700  1.0000 -0.0505783056
C   C53       1.0  0.61140  0.72390  0.20230  1.0000 0.0808202975
C   C54       1.0  0.93790  0.60730  0.90340  1.0000 0.2393538881
C   C55       1.0  0.99670  0.72660  0.47020  1.0000 0.0734903847
C   C56       1.0  0.51300  0.15670  0.76570  1.0000 -0.0505783056
C   C57       1.0  0.04020  0.76470  0.60970  1.0000 0.0808202975
C   C58       1.0  0.34300  0.83870  0.90900  1.0000 0.5482544679
C   C59       1.0  0.68130  0.71980  0.28880  1.0000 0.2669749934
C   C60       1.0  0.84050  0.52680  0.88510  1.0000 0.2589257698
C   C61       1.0  0.89550  0.50440  0.83420  1.0000 -0.2395256233
C   C62       1.0  0.54570  0.14410  0.85060  1.0000 -0.0731389454
C   C63       1.0  0.92420  0.71810  0.38620  1.0000 0.2589257698
C   C64       1.0  0.76360  0.49820  0.90750  1.0000 -0.2111178437
C   C65       1.0  0.74360  0.44620  0.87910  1.0000 -0.0782686497
C   C66       1.0  0.87380  0.45120  0.80530  1.0000 -0.0782686497
C   C67       1.0  0.02890  0.60440  0.96530  1.0000 -0.2000877966
C   C68       1.0  0.96970  0.75580  0.53400  1.0000 -0.1754550856
C   C69       1.0  0.39900  0.92310  0.85130  1.0000 -0.0731389454
C   C70       1.0  0.40060  0.97910  0.84460  1.0000 -0.2310318919
C   C71       1.0  0.42040  0.13640  0.71800  1.0000 -0.0782686497
C   C72       1.0  0.10950  0.63530  0.95610  1.0000 -0.0782686497
C   C73       1.0  0.33980  0.00870  0.88270  1.0000 0.2669749934
C   C74       1.0  0.95660  0.68870  0.31930  1.0000 -0.5078909617
C   C75       1.0  0.57620  0.75420  0.05910  1.0000 0.0808202975
C   C76       1.0  0.64070  0.75060  0.13780  1.0000 -0.1711422227
C   C77       1.0  0.00780  0.66930  0.82390  1.0000 -0.0731389454
C   C78       1.0  0.92610  0.63860  0.83300  1.0000 -0.1921796349
C   C79       1.0  0.48730  0.11200  0.88900  1.0000 -0.2111178437
C   C80       1.0  0.39650  0.09300  0.84080  1.0000 0.2393538881
C   C81       1.0  0.36190  0.10410  0.75550  1.0000 -0.2000877966
C   C82       1.0  0.28090  0.92850  0.93460  1.0000 -0.0731389454
C   C83       1.0  0.64470  0.69610  0.35790  1.0000 -0.5164354813
C   C84       1.0  0.27970  0.98430  0.92800  1.0000 -0.2111178437
C   C85       1.0  0.16350  0.78090  0.06550  1.0000 0.1046462286
C   C86       1.0  0.77840  0.13490  0.30030  1.0000 0.5283744115
C   C87       1.0  0.18730  0.80012  0.37460  1.0000 0.5825340974
C   C88       1.0  0.45190  0.79210  0.60060  1.0000 0.1115699935
C   C89       1.0  0.51450  0.79730  0.68240  1.0000 -0.1619996575
C   C90       1.0  0.79820  0.07780  0.32910  1.0000 -0.0505783056
C   C91       1.0  0.10020  0.83281  0.38490  1.0000 -0.0505783056
C   C92       1.0  0.09630  0.79240  0.98770  1.0000 -0.1619996575
C   C93       1.0  0.57440  0.30770  0.22480  1.0000 0.5825340974
C   C94       1.0  0.34060  0.60210  0.39700  1.0000 -0.0505783056
C   C95       1.0  0.61140  0.77610  0.70230  1.0000 0.0808202975
C   C96       1.0  0.93790  0.89270  0.40340  1.0000 0.2393538881
C   C97       1.0  0.99670  0.77340  0.97020  1.0000 0.0734903847
C   C98       1.0  0.51300  0.34330  0.26570  1.0000 -0.0505783056
C   C99       1.0  0.04020  0.73530  0.10970  1.0000 0.0808202975
C   C100      1.0  0.34300  0.66130  0.40900  1.0000 0.5482544679
C   C101      1.0  0.68130  0.78020  0.78880  1.0000 0.2669749934
C   C102      1.0  0.84050  0.97320  0.38510  1.0000 0.2589257698
C   C103      1.0  0.89550  0.99560  0.33420  1.0000 -0.2395256233
C   C104      1.0  0.54570  0.35590  0.35060  1.0000 -0.0731389454
C   C105      1.0  0.92420  0.78190  0.88620  1.0000 0.2589257698
C   C106      1.0  0.76360  0.00180  0.40750  1.0000 -0.2111178437
C   C107      1.0  0.74360  0.05380  0.37910  1.0000 -0.0782686497
C   C108      1.0  0.87380  0.04880  0.30530  1.0000 -0.0782686497
C   C109      1.0  0.02890  0.89560  0.46530  1.0000 -0.2000877966
C   C110      1.0  0.96970  0.74420  0.03400  1.0000 -0.1754550856
C   C111      1.0  0.39900  0.57690  0.35130  1.0000 -0.0731389454
C   C112      1.0  0.40060  0.52090  0.34460  1.0000 -0.2310318919
C   C113      1.0  0.42040  0.36360  0.21800  1.0000 -0.0782686497
C   C114      1.0  0.10950  0.86470  0.45610  1.0000 -0.0782686497
C   C115      1.0  0.33980  0.49130  0.38270  1.0000 0.2669749934
C   C116      1.0  0.95660  0.81130  0.81930  1.0000 -0.5078909617
C   C117      1.0  0.57620  0.74580  0.55910  1.0000 0.0734903847
C   C118      1.0  0.64070  0.74940  0.63780  1.0000 -0.1711422227
C   C119      1.0  0.00780  0.83070  0.32390  1.0000 -0.0731389454
C   C120      1.0  0.92610  0.86140  0.33300  1.0000 -0.1921796349
C   C121      1.0  0.48730  0.38800  0.38900  1.0000 -0.2111178437
C   C122      1.0  0.39650  0.40700  0.34080  1.0000 0.2393538881
C   C123      1.0  0.36190  0.39590  0.25550  1.0000 -0.2000877966
C   C124      1.0  0.28090  0.57150  0.43460  1.0000 -0.0731389454
C   C125      1.0  0.64470  0.80390  0.85790  1.0000 -0.5164354813
C   C126      1.0  0.27970  0.51570  0.42800  1.0000 -0.2216484703
C   C127      1.0  0.83650  0.28090  0.43450  1.0000 0.1046462286
C   C128      1.0  0.22160  0.63490  0.19970  1.0000 0.5283744115
C   C129      1.0  0.81270  0.30012  0.12540  1.0000 0.5825340974
C   C130      1.0  0.54810  0.29210  0.89940  1.0000 0.1115699935
C   C131      1.0  0.48550  0.29730  0.81760  1.0000 -0.1619996575
C   C132      1.0  0.20180  0.57780  0.17090  1.0000 -0.0505783056
C   C133      1.0  0.89980  0.33281  0.11510  1.0000 -0.0505783056
C   C134      1.0  0.90370  0.29240  0.51230  1.0000 -0.1619996575
C   C135      1.0  0.42560  0.80770  0.27520  1.0000 0.5825340974
C   C136      1.0  0.65940  0.10210  0.10300  1.0000 -0.0505783056
C   C137      1.0  0.38860  0.27610  0.79770  1.0000 0.0808202975
C   C138      1.0  0.06210  0.39270  0.09660  1.0000 0.2393538881
C   C139      1.0  0.00330  0.27340  0.52980  1.0000 0.0734903847
C   C140      1.0  0.48700  0.84330  0.23430  1.0000 -0.0505783056
C   C141      1.0  0.95980  0.23530  0.39030  1.0000 0.0808202975
C   C142      1.0  0.65700  0.16130  0.09100  1.0000 0.5482544679
C   C143      1.0  0.31870  0.28020  0.71120  1.0000 0.2669749934
C   C144      1.0  0.15950  0.47320  0.11490  1.0000 0.2589257698
C   C145      1.0  0.10450  0.49560  0.16580  1.0000 -0.2395256233
C   C146      1.0  0.45430  0.85590  0.14940  1.0000 -0.0731389454
C   C147      1.0  0.07580  0.28190  0.61380  1.0000 0.2589257698
C   C148      1.0  0.23640  0.50180  0.09250  1.0000 -0.2111178437
C   C149      1.0  0.25640  0.55380  0.12090  1.0000 -0.0782686497
C   C150      1.0  0.12620  0.54880  0.19470  1.0000 -0.0782686497
C   C151      1.0  0.97110  0.39560  0.03470  1.0000 -0.2000877966
C   C152      1.0  0.03030  0.24420  0.46600  1.0000 -0.1711422227
C   C153      1.0  0.60100  0.07690  0.14870  1.0000 -0.0731389454
C   C154      1.0  0.59940  0.02090  0.15540  1.0000 -0.2310318919
C   C155      1.0  0.57960  0.86360  0.28200  1.0000 -0.0782686497
C   C156      1.0  0.89050  0.36470  0.04390  1.0000 -0.0782686497
C   C157      1.0  0.66020  0.99130  0.11730  1.0000 0.2669749934
C   C158      1.0  0.04340  0.31130  0.68070  1.0000 -0.5078909617
C   C159      1.0  0.42380  0.24580  0.94090  1.0000 0.0734903847
C   C160      1.0  0.35930  0.24940  0.86220  1.0000 -0.1711422227
C   C161      1.0  0.99220  0.33070  0.17610  1.0000 -0.0731389454
C   C162      1.0  0.07390  0.36140  0.16700  1.0000 -0.1921796349
C   C163      1.0  0.51270  0.88800  0.11100  1.0000 -0.2111178437
C   C164      1.0  0.60350  0.90700  0.15920  1.0000 0.2393538881
C   C165      1.0  0.63810  0.89590  0.24450  1.0000 -0.2000877966
C   C166      1.0  0.71910  0.07150  0.06540  1.0000 -0.0731389454
C   C167      1.0  0.35530  0.30390  0.64210  1.0000 -0.5164354813
C   C168      1.0  0.72030  0.01570  0.07200  1.0000 -0.2111178437
N   N1        1.0  0.51770  0.23273  0.46010  1.0000 -0.2395256233
N   N2        1.0  0.86320  0.24669  0.87410  1.0000 -0.2395256233
N   N3        1.0  0.22870  0.23750  0.20370  1.0000 -0.2395256233
N   N4        1.0  0.16360  0.23880  0.12250  1.0000 -0.2395256233
N   N5        1.0  0.48230  0.73273  0.03990  1.0000 -0.2395256233
N   N6        1.0  0.13680  0.74669  0.62590  1.0000 -0.2395256233
N   N7        1.0  0.77130  0.73750  0.29630  1.0000 -0.2395256233
N   N8        1.0  0.83640  0.73880  0.37750  1.0000 -0.2395256233
N   N9        1.0  0.48230  0.76727  0.53990  1.0000 -0.2395256233
N   N10       1.0  0.13680  0.75331  0.12590  1.0000 -0.2395256233
N   N11       1.0  0.77130  0.76250  0.79630  1.0000 -0.2395256233
N   N12       1.0  0.83640  0.76120  0.87750  1.0000 -0.2395256233
N   N13       1.0  0.51770  0.26727  0.96010  1.0000 -0.2395256233
N   N14       1.0  0.86320  0.25331  0.37410  1.0000 -0.2395256233
N   N15       1.0  0.22870  0.26250  0.70370  1.0000 -0.2395256233
N   N16       1.0  0.16360  0.26120  0.62250  1.0000 -0.2395256233
O   O1        1.0  0.82830  0.23206  0.68690  1.0000 -0.5616086569
O   O2        1.0  0.17090  0.84386  0.74450  1.0000 -0.5258562487
O   O3        1.0  0.34870  0.71467  0.72890  1.0000 -0.5465290916
O   O4        1.0  0.72820  0.19370  0.57120  1.0000 -0.5370160065
O   O5        1.0  0.28860  0.83869  0.67640  1.0000 -0.5370160065
O   O6        1.0  0.68980  0.31815  0.53520  1.0000 -0.5164354813
O   O7        1.0  0.45700  0.69769  0.85450  1.0000 -0.5370160065
O   O8        1.0  0.61820  0.30900  0.63840  1.0000 -0.5616086569
O   O9        1.0  0.14570  0.07898  0.58430  1.0000 -0.2310318919
O   O10       1.0  0.66570  0.56431  0.62000  1.0000 -0.2216484703
O   O11       1.0  0.17170  0.73206  0.81310  1.0000 -0.5616086569
O   O12       1.0  0.82910  0.34386  0.75550  1.0000 -0.5258562487
O   O13       1.0  0.65130  0.21467  0.77110  1.0000 -0.5465290916
O   O14       1.0  0.27180  0.69370  0.92880  1.0000 -0.5370160065
O   O15       1.0  0.71140  0.33869  0.82360  1.0000 -0.5370160065
O   O16       1.0  0.31020  0.81815  0.96480  1.0000 -0.5164354813
O   O17       1.0  0.54300  0.19769  0.64550  1.0000 -0.5370160065
O   O18       1.0  0.38180  0.80900  0.86160  1.0000 -0.5616086569
O   O19       1.0  0.85430  0.57898  0.91570  1.0000 -0.2310318919
O   O20       1.0  0.33430  0.06431  0.88000  1.0000 -0.2216484703
O   O21       1.0  0.17170  0.76794  0.31310  1.0000 -0.5616086569
O   O22       1.0  0.82910  0.15614  0.25550  1.0000 -0.5258562487
O   O23       1.0  0.65130  0.28533  0.27110  1.0000 -0.5465290916
O   O24       1.0  0.27180  0.80630  0.42880  1.0000 -0.5370160065
O   O25       1.0  0.71140  0.16131  0.32360  1.0000 -0.5370160065
O   O26       1.0  0.31020  0.68185  0.46480  1.0000 -0.5164354813
O   O27       1.0  0.54300  0.30231  0.14550  1.0000 -0.5370160065
O   O28       1.0  0.38180  0.69100  0.36160  1.0000 -0.5616086569
O   O29       1.0  0.85430  0.92102  0.41570  1.0000 -0.2216484703
O   O30       1.0  0.33430  0.43569  0.38000  1.0000 -0.2216484703
O   O31       1.0  0.82830  0.26794  0.18690  1.0000 -0.5616086569
O   O32       1.0  0.17090  0.65614  0.24450  1.0000 -0.5258562487
O   O33       1.0  0.34870  0.78533  0.22890  1.0000 -0.5465290916
O   O34       1.0  0.72820  0.30630  0.07120  1.0000 -0.5370160065
O   O35       1.0  0.28860  0.66131  0.17640  1.0000 -0.5370160065
O   O36       1.0  0.68980  0.18185  0.03520  1.0000 -0.5164354813
O   O37       1.0  0.45700  0.80231  0.35450  1.0000 -0.5370160065
O   O38       1.0  0.61820  0.19100  0.13840  1.0000 -0.5616086569
O   O39       1.0  0.14570  0.42102  0.08430  1.0000 -0.2216484703
O   O40       1.0  0.66570  0.93569  0.12000  1.0000 -0.2216484703
