# DDEC6 charges by PACMAN v1.1 (https://github.com/mtap-research/PACMAN-charge/)
data_2020[Cu][nan]2[FSR]11
_chemical_formula_sum              "Cu4 H68 C88 I4 N12 O4"
_cell_length_a       13.6445
_cell_length_b       13.6445
_cell_length_c       17.903
_cell_angle_alpha    69.5761
_cell_angle_beta     110.424
_cell_angle_gamma    124.804

_symmetry_space_group_name_H-M    "P 1"
_symmetry_Int_Tables_number       1

loop_
  _symmetry_equiv_pos_as_xyz
  'x, y, z'

loop_
  _atom_site_type_symbol
  _atom_site_label
  _atom_site_symmetry_multiplicity
  _atom_site_fract_x
  _atom_site_fract_y
  _atom_site_fract_z
  _atom_site_occupancy
  _atom_site_charge
Cu  Cu1       1.0  0.54878  0.55196  0.43507  1.0000 0.1943492563
Cu  Cu2       1.0  0.55196  0.54878  0.06493  1.0000 0.1943492563
Cu  Cu3       1.0  0.45122  0.44804  0.56493  1.0000 0.1943492563
Cu  Cu4       1.0  0.44804  0.45122  0.93507  1.0000 0.1943492563
H   H1        1.0  0.41728  0.79192  0.54788  1.0000 0.1216109732
H   H2        1.0  0.14612  0.53634  0.71219  1.0000 0.1290505612
H   H3        1.0  0.46677  0.68591  0.65241  1.0000 0.1216109732
H   H4        1.0  0.13395  0.81005  0.38890  1.0000 0.1120890716
H   H5        1.0  0.52964  0.59930  0.78185  1.0000 0.0918132346
H   H6        1.0  0.21778  0.45618  0.83778  1.0000 0.1016039299
H   H7        1.0  0.72304  0.47964  0.55766  1.0000 0.1016039299
H   H8        1.0  0.50836  0.88278  0.44766  1.0000 0.1120890716
H   H9        1.0  0.26404  0.98424  0.32911  1.0000 0.1120890716
H   H10       1.0  0.92517  0.53999  0.58494  1.0000 0.1290505612
H   H11       1.0  0.63348  0.01980  0.35445  1.0000 0.1290505612
H   H12       1.0  0.94309  0.73323  0.36015  1.0000 0.1290505612
H   H13       1.0  0.74646  0.66954  0.34043  1.0000 0.1120890716
H   H14       1.0  0.38725  0.12699  0.23852  1.0000 0.1429566564
H   H15       1.0  0.75503  0.22415  0.27520  1.0000 0.1216109732
H   H16       1.0  0.69361  0.10617  0.24104  1.0000 0.1120890716
H   H17       1.0  0.72903  0.23211  0.18142  1.0000 0.1216109732
H   H18       1.0  0.79192  0.41728  0.95212  1.0000 0.1216109732
H   H19       1.0  0.53634  0.14612  0.78781  1.0000 0.1290505612
H   H20       1.0  0.68591  0.46677  0.84759  1.0000 0.1216109732
H   H21       1.0  0.81005  0.13395  0.11110  1.0000 0.1120890716
H   H22       1.0  0.59930  0.52964  0.71815  1.0000 0.0918132346
H   H23       1.0  0.45618  0.21778  0.66222  1.0000 0.1016039299
H   H24       1.0  0.47964  0.72304  0.94234  1.0000 0.1016039299
H   H25       1.0  0.88278  0.50836  0.05234  1.0000 0.1120890716
H   H26       1.0  0.98424  0.26404  0.17089  1.0000 0.1120890716
H   H27       1.0  0.53999  0.92517  0.91506  1.0000 0.1290505612
H   H28       1.0  0.01980  0.63348  0.14555  1.0000 0.1290505612
H   H29       1.0  0.73323  0.94309  0.13985  1.0000 0.1290505612
H   H30       1.0  0.66954  0.74646  0.15957  1.0000 0.1120890716
H   H31       1.0  0.12699  0.38725  0.26148  1.0000 0.1429566564
H   H32       1.0  0.22415  0.75503  0.22480  1.0000 0.1216109732
H   H33       1.0  0.10617  0.69361  0.25896  1.0000 0.1120890716
H   H34       1.0  0.23211  0.72903  0.31858  1.0000 0.1216109732
H   H35       1.0  0.58272  0.20808  0.45212  1.0000 0.1216109732
H   H36       1.0  0.85388  0.46366  0.28781  1.0000 0.1290505612
H   H37       1.0  0.53323  0.31409  0.34759  1.0000 0.1216109732
H   H38       1.0  0.86605  0.18995  0.61110  1.0000 0.1120890716
H   H39       1.0  0.47036  0.40070  0.21815  1.0000 0.0918132346
H   H40       1.0  0.78222  0.54382  0.16222  1.0000 0.1016039299
H   H41       1.0  0.27696  0.52036  0.44234  1.0000 0.1016039299
H   H42       1.0  0.49164  0.11722  0.55234  1.0000 0.1120890716
H   H43       1.0  0.73596  0.01576  0.67089  1.0000 0.1120890716
H   H44       1.0  0.07483  0.46001  0.41506  1.0000 0.1290505612
H   H45       1.0  0.36652  0.98020  0.64555  1.0000 0.1290505612
H   H46       1.0  0.05691  0.26677  0.63985  1.0000 0.1290505612
H   H47       1.0  0.25354  0.33046  0.65957  1.0000 0.1120890716
H   H48       1.0  0.61275  0.87301  0.76148  1.0000 0.1429566564
H   H49       1.0  0.24497  0.77585  0.72480  1.0000 0.1216109732
H   H50       1.0  0.30639  0.89383  0.75896  1.0000 0.1120890716
H   H51       1.0  0.27097  0.76789  0.81858  1.0000 0.1216109732
H   H52       1.0  0.20808  0.58272  0.04788  1.0000 0.1216109732
H   H53       1.0  0.46366  0.85388  0.21219  1.0000 0.1290505612
H   H54       1.0  0.31409  0.53323  0.15241  1.0000 0.1216109732
H   H55       1.0  0.18995  0.86605  0.88890  1.0000 0.1120890716
H   H56       1.0  0.40070  0.47036  0.28185  1.0000 0.0918132346
H   H57       1.0  0.54382  0.78222  0.33778  1.0000 0.1016039299
H   H58       1.0  0.52036  0.27696  0.05766  1.0000 0.1016039299
H   H59       1.0  0.11722  0.49164  0.94766  1.0000 0.1120890716
H   H60       1.0  0.01576  0.73596  0.82911  1.0000 0.1120890716
H   H61       1.0  0.46001  0.07483  0.08494  1.0000 0.1290505612
H   H62       1.0  0.98020  0.36652  0.85445  1.0000 0.1290505612
H   H63       1.0  0.26677  0.05691  0.86015  1.0000 0.1290505612
H   H64       1.0  0.33046  0.25354  0.84043  1.0000 0.1120890716
H   H65       1.0  0.87301  0.61275  0.73852  1.0000 0.1429566564
H   H66       1.0  0.77585  0.24497  0.77520  1.0000 0.1216109732
H   H67       1.0  0.89383  0.30639  0.74104  1.0000 0.1120890716
H   H68       1.0  0.76789  0.27097  0.68142  1.0000 0.1216109732
C   C1        1.0  0.29300  0.82260  0.45860  1.0000 0.1216109732
C   C2        1.0  0.25770  0.68190  0.58570  1.0000 0.1995974491
C   C3        1.0  0.30040  0.62240  0.66880  1.0000 0.0918132346
C   C4        1.0  0.33560  0.76900  0.53310  1.0000 -0.2238664097
C   C5        1.0  0.09280  0.69260  0.49420  1.0000 0.2139745625
C   C6        1.0  0.37210  0.91510  0.40040  1.0000 0.0323106283
C   C7        1.0  0.22510  0.55130  0.72520  1.0000 -0.1702530516
C   C8        1.0  0.41480  0.64020  0.68940  1.0000 -0.1702530516
C   C9        1.0  0.16740  0.77960  0.43940  1.0000 -0.2522410033
C   C10       1.0  0.45170  0.58730  0.76790  1.0000 0.0709715159
C   C11       1.0  0.96300  0.65000  0.47690  1.0000 0.0796310128
C   C12       1.0  0.26920  0.50360  0.80050  1.0000 0.0623485418
C   C13       1.0  0.76920  0.53540  0.51810  1.0000 0.0709715159
C   C14       1.0  0.48260  0.93040  0.40440  1.0000 -0.1223803451
C   C15       1.0  0.51770  0.08050  0.28390  1.0000 0.2434466155
C   C16       1.0  0.33800  0.99120  0.33460  1.0000 -0.1291587679
C   C17       1.0  0.89140  0.57040  0.53460  1.0000 -0.1702530516
C   C18       1.0  0.55890  0.01190  0.34860  1.0000 -0.2318728669
C   C19       1.0  0.90200  0.68380  0.40300  1.0000 -0.1905043339
C   C20       1.0  0.78350  0.64590  0.39200  1.0000 0.0496920003
C   C21       1.0  0.40970  0.07470  0.27910  1.0000 -0.2096697269
C   C22       1.0  0.69960  0.18320  0.23090  1.0000 -0.2318728669
C   C23       1.0  0.82260  0.29300  0.04140  1.0000 0.1216109732
C   C24       1.0  0.68190  0.25770  0.91430  1.0000 0.1995974491
C   C25       1.0  0.62240  0.30040  0.83120  1.0000 0.0918132346
C   C26       1.0  0.76900  0.33560  0.96690  1.0000 -0.2238664097
C   C27       1.0  0.69260  0.09280  0.00580  1.0000 0.2139745625
C   C28       1.0  0.91510  0.37210  0.09960  1.0000 0.0323106283
C   C29       1.0  0.55130  0.22510  0.77480  1.0000 -0.1702530516
C   C30       1.0  0.64020  0.41480  0.81060  1.0000 -0.1702530516
C   C31       1.0  0.77960  0.16740  0.06060  1.0000 -0.2522410033
C   C32       1.0  0.58730  0.45170  0.73210  1.0000 0.0709715159
C   C33       1.0  0.65000  0.96300  0.02310  1.0000 0.0796310128
C   C34       1.0  0.50360  0.26920  0.69950  1.0000 0.0623485418
C   C35       1.0  0.53540  0.76920  0.98190  1.0000 0.0709715159
C   C36       1.0  0.93040  0.48260  0.09560  1.0000 -0.1223803451
C   C37       1.0  0.08050  0.51770  0.21610  1.0000 0.2434466155
C   C38       1.0  0.99120  0.33800  0.16540  1.0000 -0.1291587679
C   C39       1.0  0.57040  0.89140  0.96540  1.0000 -0.1702530516
C   C40       1.0  0.01190  0.55890  0.15140  1.0000 -0.2318728669
C   C41       1.0  0.68380  0.90200  0.09700  1.0000 -0.1905043339
C   C42       1.0  0.64590  0.78350  0.10800  1.0000 0.0496920003
C   C43       1.0  0.07470  0.40970  0.22090  1.0000 -0.2096697269
C   C44       1.0  0.18320  0.69960  0.26910  1.0000 -0.2318728669
C   C45       1.0  0.70700  0.17740  0.54140  1.0000 0.1216109732
C   C46       1.0  0.74230  0.31810  0.41430  1.0000 0.1995974491
C   C47       1.0  0.69960  0.37760  0.33120  1.0000 0.0918132346
C   C48       1.0  0.66440  0.23100  0.46690  1.0000 -0.2238664097
C   C49       1.0  0.90720  0.30740  0.50580  1.0000 0.2139745625
C   C50       1.0  0.62790  0.08490  0.59960  1.0000 0.0323106283
C   C51       1.0  0.77490  0.44870  0.27480  1.0000 -0.1702530516
C   C52       1.0  0.58520  0.35980  0.31060  1.0000 -0.1702530516
C   C53       1.0  0.83260  0.22040  0.56060  1.0000 -0.2522410033
C   C54       1.0  0.54830  0.41270  0.23210  1.0000 0.0709715159
C   C55       1.0  0.03700  0.35000  0.52310  1.0000 0.0796310128
C   C56       1.0  0.73080  0.49640  0.19950  1.0000 0.0623485418
C   C57       1.0  0.23080  0.46460  0.48190  1.0000 0.0709715159
C   C58       1.0  0.51740  0.06960  0.59560  1.0000 -0.1223803451
C   C59       1.0  0.48230  0.91950  0.71610  1.0000 0.2434466155
C   C60       1.0  0.66200  0.00880  0.66540  1.0000 -0.1291587679
C   C61       1.0  0.10860  0.42960  0.46540  1.0000 -0.1647218643
C   C62       1.0  0.44110  0.98810  0.65140  1.0000 -0.2318728669
C   C63       1.0  0.09800  0.31620  0.59700  1.0000 -0.1905043339
C   C64       1.0  0.21650  0.35410  0.60800  1.0000 0.0496920003
C   C65       1.0  0.59030  0.92530  0.72090  1.0000 -0.2096697269
C   C66       1.0  0.30040  0.81680  0.76910  1.0000 -0.2318728669
C   C67       1.0  0.17740  0.70700  0.95860  1.0000 0.1216109732
C   C68       1.0  0.31810  0.74230  0.08570  1.0000 0.1995974491
C   C69       1.0  0.37760  0.69960  0.16880  1.0000 0.0918132346
C   C70       1.0  0.23100  0.66440  0.03310  1.0000 -0.2238664097
C   C71       1.0  0.30740  0.90720  0.99420  1.0000 0.2139745625
C   C72       1.0  0.08490  0.62790  0.90040  1.0000 0.0323106283
C   C73       1.0  0.44870  0.77490  0.22520  1.0000 -0.1702530516
C   C74       1.0  0.35980  0.58520  0.18940  1.0000 -0.1702530516
C   C75       1.0  0.22040  0.83260  0.93940  1.0000 -0.2522410033
C   C76       1.0  0.41270  0.54830  0.26790  1.0000 0.0709715159
C   C77       1.0  0.35000  0.03700  0.97690  1.0000 0.0796310128
C   C78       1.0  0.49640  0.73080  0.30050  1.0000 0.0623485418
C   C79       1.0  0.46460  0.23080  0.01810  1.0000 0.0709715159
C   C80       1.0  0.06960  0.51740  0.90440  1.0000 -0.1223803451
C   C81       1.0  0.91950  0.48230  0.78390  1.0000 0.2434466155
C   C82       1.0  0.00880  0.66200  0.83460  1.0000 -0.1291587679
C   C83       1.0  0.42960  0.10860  0.03460  1.0000 -0.1647218643
C   C84       1.0  0.98810  0.44110  0.84860  1.0000 -0.2318728669
C   C85       1.0  0.31620  0.09800  0.90300  1.0000 -0.1905043339
C   C86       1.0  0.35410  0.21650  0.89200  1.0000 0.0496920003
C   C87       1.0  0.92530  0.59030  0.77910  1.0000 -0.2096697269
C   C88       1.0  0.81680  0.30040  0.73090  1.0000 -0.2318728669
I   I1        1.0  0.40191  0.31177  0.46513  1.0000 -0.4448247133
I   I2        1.0  0.31177  0.40191  0.03487  1.0000 -0.4448247133
I   I3        1.0  0.59809  0.68823  0.53487  1.0000 -0.4448247133
I   I4        1.0  0.68823  0.59809  0.96513  1.0000 -0.4448247133
N   N1        1.0  0.38200  0.52060  0.82410  1.0000 -0.1806958197
N   N2        1.0  0.13390  0.64050  0.56760  1.0000 -0.3758545024
N   N3        1.0  0.71470  0.57790  0.44820  1.0000 -0.1806958197
N   N4        1.0  0.52060  0.38200  0.67590  1.0000 -0.1806958197
N   N5        1.0  0.64050  0.13390  0.93240  1.0000 -0.3758545024
N   N6        1.0  0.57790  0.71470  0.05180  1.0000 -0.1806958197
N   N7        1.0  0.61800  0.47940  0.17590  1.0000 -0.1806958197
N   N8        1.0  0.86610  0.35950  0.43240  1.0000 -0.3758545024
N   N9        1.0  0.28530  0.42210  0.55180  1.0000 -0.1806958197
N   N10       1.0  0.47940  0.61800  0.32410  1.0000 -0.1806958197
N   N11       1.0  0.35950  0.86610  0.06760  1.0000 -0.3758545024
N   N12       1.0  0.42210  0.28530  0.94820  1.0000 -0.1806958197
O   O1        1.0  0.58160  0.16360  0.22360  1.0000 -0.1501558153
O   O2        1.0  0.16360  0.58160  0.27640  1.0000 -0.1501558153
O   O3        1.0  0.41840  0.83640  0.77640  1.0000 -0.1501558153
O   O4        1.0  0.83640  0.41840  0.72360  1.0000 -0.1501558153
