# DDEC6 charges by PACMAN v1.1 (https://github.com/mtap-research/PACMAN-charge/)
data_2020[Cu][sql]2[FSR]17
_chemical_formula_sum              "Cu2 H40 C40 N8 O4"
_cell_length_a       11.0582
_cell_length_b       11.0604
_cell_length_c       20.709
_cell_angle_alpha    96.428
_cell_angle_beta     99.216
_cell_angle_gamma    119.149

_symmetry_space_group_name_H-M    "P 1"
_symmetry_Int_Tables_number       1

loop_
  _symmetry_equiv_pos_as_xyz
  'x, y, z'

loop_
  _atom_site_type_symbol
  _atom_site_label
  _atom_site_symmetry_multiplicity
  _atom_site_fract_x
  _atom_site_fract_y
  _atom_site_fract_z
  _atom_site_occupancy
  _atom_site_charge
Cu  Cu1       1.0  0.52138  0.27146  0.74996  1.0000 0.5311743015
Cu  Cu2       1.0  0.47862  0.72854  0.25004  1.0000 0.5311743015
H   H1        1.0  0.38640  0.95420  0.70750  1.0000 0.090444505
H   H2        1.0  0.18200  0.74640  0.70440  1.0000 0.1284096906
H   H3        1.0  0.04230  0.97710  0.79630  1.0000 0.1284096906
H   H4        1.0  0.24690  0.17900  0.79220  1.0000 0.090444505
H   H5        1.0  0.85790  0.65500  0.65130  1.0000 0.1284096906
H   H6        1.0  0.65340  0.45200  0.65410  1.0000 0.1001162474
H   H7        1.0  0.79780  0.49930  0.84570  1.0000 0.1001162474
H   H8        1.0  0.00390  0.70640  0.84900  1.0000 0.1284096906
H   H9        1.0  0.69490  0.17720  0.68600  1.0000 0.090444505
H   H10       1.0  0.68590  0.05710  0.58660  1.0000 0.1195029033
H   H11       1.0  0.32390  0.04410  0.50590  1.0000 0.1195029033
H   H12       1.0  0.33780  0.15780  0.60950  1.0000 0.090444505
H   H13       1.0  0.48990  0.50910  0.81400  1.0000 0.090444505
H   H14       1.0  0.47310  0.60010  0.91360  1.0000 0.1195029033
H   H15       1.0  0.53770  0.31660  0.99350  1.0000 0.1195029033
H   H16       1.0  0.54890  0.22910  0.89080  1.0000 0.1001162474
H   H17       1.0  0.74860  0.24120  0.80690  1.0000 0.2893679732
H   H18       1.0  0.63820  0.09940  0.79360  1.0000 0.2984556252
H   H19       1.0  0.36950  0.40200  0.71960  1.0000 0.1924323732
H   H20       1.0  0.31360  0.29890  0.67310  1.0000 0.1958547228
H   H21       1.0  0.61360  0.04580  0.29250  1.0000 0.090444505
H   H22       1.0  0.81800  0.25360  0.29560  1.0000 0.1284096906
H   H23       1.0  0.95770  0.02290  0.20370  1.0000 0.1284096906
H   H24       1.0  0.75310  0.82100  0.20780  1.0000 0.090444505
H   H25       1.0  0.14210  0.34500  0.34870  1.0000 0.1284096906
H   H26       1.0  0.34660  0.54800  0.34590  1.0000 0.1001162474
H   H27       1.0  0.20220  0.50070  0.15430  1.0000 0.1001162474
H   H28       1.0  0.99610  0.29360  0.15100  1.0000 0.1284096906
H   H29       1.0  0.30510  0.82280  0.31400  1.0000 0.090444505
H   H30       1.0  0.31410  0.94290  0.41340  1.0000 0.1195029033
H   H31       1.0  0.67610  0.95590  0.49410  1.0000 0.1195029033
H   H32       1.0  0.66220  0.84220  0.39050  1.0000 0.090444505
H   H33       1.0  0.51010  0.49090  0.18600  1.0000 0.090444505
H   H34       1.0  0.52690  0.39990  0.08640  1.0000 0.1195029033
H   H35       1.0  0.46230  0.68340  0.00650  1.0000 0.1195029033
H   H36       1.0  0.45110  0.77090  0.10920  1.0000 0.1001162474
H   H37       1.0  0.25140  0.75880  0.19310  1.0000 0.2893679732
H   H38       1.0  0.36180  0.90060  0.20640  1.0000 0.2984556252
H   H39       1.0  0.63050  0.59800  0.28040  1.0000 0.1924323732
H   H40       1.0  0.68640  0.70110  0.32690  1.0000 0.1958547228
C   C1        1.0  0.31550  0.95850  0.72470  1.0000 0.0414523709
C   C2        1.0  0.19340  0.83290  0.72310  1.0000 -0.1979159169
C   C3        1.0  0.08770  0.83720  0.74980  1.0000 0.090444505
C   C4        1.0  0.10990  0.97010  0.77710  1.0000 -0.1979159169
C   C5        1.0  0.23420  0.09100  0.77520  1.0000 0.0414523709
C   C6        1.0  0.95390  0.70390  0.74990  1.0000 0.090444505
C   C7        1.0  0.84730  0.62560  0.69140  1.0000 -0.1922666089
C   C8        1.0  0.72490  0.50320  0.69350  1.0000 0.051952517
C   C9        1.0  0.80980  0.53170  0.80630  1.0000 0.0414523709
C   C10       1.0  0.93460  0.65600  0.80880  1.0000 -0.1979159169
C   C11       1.0  0.61840  0.14850  0.64960  1.0000 0.029835814
C   C12       1.0  0.61480  0.07810  0.58960  1.0000 -0.1979159169
C   C13       1.0  0.50420  0.03780  0.53290  1.0000 0.090444505
C   C14       1.0  0.40000  0.06920  0.54190  1.0000 -0.1979159169
C   C15       1.0  0.40900  0.13830  0.60460  1.0000 0.0414523709
C   C16       1.0  0.49860  0.46930  0.85040  1.0000 0.021073771
C   C17       1.0  0.48960  0.52520  0.91040  1.0000 -0.1979159169
C   C18       1.0  0.50490  0.47170  0.96700  1.0000 0.090444505
C   C19       1.0  0.52730  0.35730  0.95760  1.0000 -0.1979159169
C   C20       1.0  0.53390  0.30500  0.89570  1.0000 0.051952517
C   C21       1.0  0.68450  0.04150  0.27530  1.0000 0.0414523709
C   C22       1.0  0.80660  0.16710  0.27690  1.0000 -0.1979159169
C   C23       1.0  0.91230  0.16280  0.25020  1.0000 0.090444505
C   C24       1.0  0.89010  0.02990  0.22290  1.0000 -0.1979159169
C   C25       1.0  0.76580  0.90900  0.22480  1.0000 0.0414523709
C   C26       1.0  0.04610  0.29610  0.25010  1.0000 0.090444505
C   C27       1.0  0.15270  0.37440  0.30860  1.0000 -0.1922666089
C   C28       1.0  0.27510  0.49680  0.30650  1.0000 0.051952517
C   C29       1.0  0.19020  0.46830  0.19370  1.0000 0.0414523709
C   C30       1.0  0.06540  0.34400  0.19120  1.0000 -0.1979159169
C   C31       1.0  0.38160  0.85150  0.35040  1.0000 0.029835814
C   C32       1.0  0.38520  0.92190  0.41040  1.0000 -0.1979159169
C   C33       1.0  0.49580  0.96220  0.46710  1.0000 0.090444505
C   C34       1.0  0.60000  0.93080  0.45810  1.0000 -0.1979159169
C   C35       1.0  0.59100  0.86170  0.39540  1.0000 0.0414523709
C   C36       1.0  0.50140  0.53070  0.14960  1.0000 0.021073771
C   C37       1.0  0.51040  0.47480  0.08960  1.0000 -0.1922666089
C   C38       1.0  0.49510  0.52830  0.03300  1.0000 0.090444505
C   C39       1.0  0.47270  0.64270  0.04240  1.0000 -0.1979159169
C   C40       1.0  0.46610  0.69500  0.10430  1.0000 0.051952517
N   N1        1.0  0.33700  0.08750  0.75001  1.0000 -0.262371496
N   N2        1.0  0.51690  0.17770  0.65824  1.0000 -0.262371496
N   N3        1.0  0.51950  0.35860  0.84181  1.0000 -0.2679375714
N   N4        1.0  0.70460  0.45480  0.75017  1.0000 -0.262371496
N   N5        1.0  0.66300  0.91250  0.24999  1.0000 -0.262371496
N   N6        1.0  0.48310  0.82230  0.34176  1.0000 -0.262371496
N   N7        1.0  0.48050  0.64140  0.15819  1.0000 -0.2679375714
N   N8        1.0  0.29540  0.54520  0.24983  1.0000 -0.262371496
O   O1        1.0  0.66430  0.18780  0.80581  1.0000 -0.7109431928
O   O2        1.0  0.38320  0.36000  0.69409  1.0000 -0.5930601365
O   O3        1.0  0.33570  0.81220  0.19419  1.0000 -0.7109431928
O   O4        1.0  0.61680  0.64000  0.30591  1.0000 -0.5930601365
