# DDEC6 charges by PACMAN v1.1 (https://github.com/mtap-research/PACMAN-charge/)
data_2020[GeCu][sql]2[FSR]3
_chemical_formula_sum              "Cu2 Ge2 H32 C40 S4 N8 F12"
_cell_length_a       13.4812
_cell_length_b       13.4812
_cell_length_c       13.4812
_cell_angle_alpha    137.205
_cell_angle_beta     105.699
_cell_angle_gamma    89.7495

_symmetry_space_group_name_H-M    "P 1"
_symmetry_Int_Tables_number       1

loop_
  _symmetry_equiv_pos_as_xyz
  'x, y, z'

loop_
  _atom_site_type_symbol
  _atom_site_label
  _atom_site_symmetry_multiplicity
  _atom_site_fract_x
  _atom_site_fract_y
  _atom_site_fract_z
  _atom_site_occupancy
  _atom_site_charge
Cu  Cu1       1.0  0.25000  0.50000  0.75000  1.0000 0.7058220997
Cu  Cu2       1.0  0.75000  0.50000  0.25000  1.0000 0.7058220997
Ge  Ge1       1.0  0.50000  0.50000  0.00000  1.0000 1.7173213556
Ge  Ge2       1.0  0.00000  0.50000  0.50000  1.0000 1.7173213556
H   H1        1.0  0.02629  0.27947  0.54208  1.0000 0.1211724624
H   H2        1.0  0.94423  0.02176  0.36047  1.0000 0.1460946787
H   H3        1.0  0.23794  0.97159  0.45337  1.0000 0.1460946787
H   H4        1.0  0.31322  0.22949  0.63029  1.0000 0.1211724624
H   H5        1.0  0.26261  0.72053  0.74682  1.0000 0.1211724624
H   H6        1.0  0.33871  0.97824  0.92247  1.0000 0.1460946787
H   H7        1.0  0.48178  0.02841  0.26635  1.0000 0.1460946787
H   H8        1.0  0.40080  0.77051  0.08373  1.0000 0.1211724624
H   H9        1.0  0.47371  0.51579  0.75318  1.0000 0.1211724624
H   H10       1.0  0.55577  0.41624  0.57753  1.0000 0.1460946787
H   H11       1.0  0.26206  0.21543  0.23365  1.0000 0.1460946787
H   H12       1.0  0.18678  0.31707  0.41627  1.0000 0.1211724624
H   H13       1.0  0.23739  0.48421  0.95792  1.0000 0.1211724624
H   H14       1.0  0.16129  0.58376  0.13953  1.0000 0.1460946787
H   H15       1.0  0.01822  0.78457  0.04663  1.0000 0.1460946787
H   H16       1.0  0.09920  0.68293  0.86971  1.0000 0.1211724624
H   H17       1.0  0.97371  0.72053  0.45792  1.0000 0.1211724624
H   H18       1.0  0.05577  0.97824  0.63953  1.0000 0.1460946787
H   H19       1.0  0.76206  0.02841  0.54663  1.0000 0.1460946787
H   H20       1.0  0.68678  0.77051  0.36971  1.0000 0.1211724624
H   H21       1.0  0.73739  0.27947  0.25318  1.0000 0.1211724624
H   H22       1.0  0.66129  0.02176  0.07753  1.0000 0.1460946787
H   H23       1.0  0.51822  0.97159  0.73365  1.0000 0.1460946787
H   H24       1.0  0.59920  0.22949  0.91627  1.0000 0.1211724624
H   H25       1.0  0.52629  0.48421  0.24682  1.0000 0.1211724624
H   H26       1.0  0.44423  0.58376  0.42247  1.0000 0.1460946787
H   H27       1.0  0.73794  0.78457  0.76635  1.0000 0.1460946787
H   H28       1.0  0.81322  0.68293  0.58373  1.0000 0.1211724624
H   H29       1.0  0.76261  0.51579  0.04208  1.0000 0.1211724624
H   H30       1.0  0.83871  0.41624  0.86047  1.0000 0.1460946787
H   H31       1.0  0.98178  0.21543  0.95337  1.0000 0.1460946787
H   H32       1.0  0.90080  0.31707  0.13029  1.0000 0.1211724624
C   C1        1.0  0.07000  0.21610  0.52370  1.0000 0.0935391586
C   C2        1.0  0.02040  0.06320  0.41540  1.0000 -0.203563656
C   C3        1.0  0.08510  0.97140  0.38890  1.0000 0.106711921
C   C4        1.0  0.19310  0.03310  0.46940  1.0000 -0.1819394336
C   C5        1.0  0.23700  0.18690  0.57530  1.0000 0.0989511579
C   C6        1.0  0.30760  0.78390  0.85390  1.0000 0.0935391586
C   C7        1.0  0.35220  0.93680  0.95720  1.0000 -0.203563656
C   C8        1.0  0.41750  0.02860  0.11370  1.0000 0.106711921
C   C9        1.0  0.43630  0.96690  0.16000  1.0000 -0.1819394336
C   C10       1.0  0.38840  0.81310  0.05010  1.0000 0.0989511579
C   C11       1.0  0.43000  0.45370  0.64610  1.0000 0.0935391586
C   C12       1.0  0.47960  0.39500  0.54280  1.0000 -0.203563656
C   C13       1.0  0.41490  0.30380  0.38630  1.0000 0.106711921
C   C14       1.0  0.30690  0.27630  0.34000  1.0000 -0.1819394336
C   C15       1.0  0.26300  0.33830  0.44990  1.0000 0.0989511579
C   C16       1.0  0.19240  0.54630  0.97630  1.0000 0.0935391586
C   C17       1.0  0.14780  0.60500  0.08460  1.0000 -0.203563656
C   C18       1.0  0.08250  0.69620  0.11110  1.0000 0.106711921
C   C19       1.0  0.06370  0.72370  0.03060  1.0000 -0.1819394336
C   C20       1.0  0.11160  0.66170  0.92470  1.0000 0.0989511579
C   C21       1.0  0.93000  0.78390  0.47630  1.0000 0.0935391586
C   C22       1.0  0.97960  0.93680  0.58460  1.0000 -0.203563656
C   C23       1.0  0.91490  0.02860  0.61110  1.0000 0.106711921
C   C24       1.0  0.80690  0.96690  0.53060  1.0000 -0.1819394336
C   C25       1.0  0.76300  0.81310  0.42470  1.0000 0.0989511579
C   C26       1.0  0.69240  0.21610  0.14610  1.0000 0.0935391586
C   C27       1.0  0.64780  0.06320  0.04280  1.0000 -0.203563656
C   C28       1.0  0.58250  0.97140  0.88630  1.0000 0.106711921
C   C29       1.0  0.56370  0.03310  0.84000  1.0000 -0.1819394336
C   C30       1.0  0.61160  0.18690  0.94990  1.0000 0.0989511579
C   C31       1.0  0.57000  0.54630  0.35390  1.0000 0.0935391586
C   C32       1.0  0.52040  0.60500  0.45720  1.0000 -0.203563656
C   C33       1.0  0.58510  0.69620  0.61370  1.0000 0.106711921
C   C34       1.0  0.69310  0.72370  0.66000  1.0000 -0.1819394336
C   C35       1.0  0.73700  0.66170  0.55010  1.0000 0.0989511579
C   C36       1.0  0.80760  0.45370  0.02370  1.0000 0.0935391586
C   C37       1.0  0.85220  0.39500  0.91540  1.0000 -0.203563656
C   C38       1.0  0.91750  0.30380  0.88890  1.0000 0.106711921
C   C39       1.0  0.93630  0.27630  0.96940  1.0000 -0.1819394336
C   C40       1.0  0.88840  0.33830  0.07530  1.0000 0.0989511579
S   S1        1.0  0.02170  0.77170  0.25000  1.0000 -0.0123537017
S   S2        1.0  0.47830  0.22830  0.25000  1.0000 -0.0123537017
S   S3        1.0  0.97830  0.22830  0.75000  1.0000 -0.0123537017
S   S4        1.0  0.52170  0.77170  0.75000  1.0000 -0.0123537017
N   N1        1.0  0.17730  0.27980  0.60450  1.0000 -0.218426726
N   N2        1.0  0.32470  0.72020  0.89750  1.0000 -0.218426726
N   N3        1.0  0.32270  0.42720  0.60250  1.0000 -0.218426726
N   N4        1.0  0.17530  0.57280  0.89550  1.0000 -0.218426726
N   N5        1.0  0.82270  0.72020  0.39550  1.0000 -0.218426726
N   N6        1.0  0.67530  0.27980  0.10250  1.0000 -0.218426726
N   N7        1.0  0.67730  0.57280  0.39750  1.0000 -0.218426726
N   N8        1.0  0.82470  0.42720  0.10450  1.0000 -0.218426726
F   F1        1.0  0.49360  0.31690  0.82330  1.0000 -0.5606607601
F   F2        1.0  0.58850  0.57580  0.98730  1.0000 -0.5301080302
F   F3        1.0  0.50640  0.68310  0.17670  1.0000 -0.5606607601
F   F4        1.0  0.41150  0.42420  0.01270  1.0000 -0.5301080302
F   F5        1.0  0.00640  0.32970  0.32330  1.0000 -0.5606607601
F   F6        1.0  0.91150  0.39880  0.48730  1.0000 -0.5301080302
F   F7        1.0  0.99360  0.67030  0.67670  1.0000 -0.5606607601
F   F8        1.0  0.08850  0.60120  0.51270  1.0000 -0.5301080302
F   F9        1.0  0.38850  0.50000  0.88850  1.0000 -0.5680626437
F   F10       1.0  0.11150  0.50000  0.61150  1.0000 -0.5680626437
F   F11       1.0  0.61150  0.50000  0.11150  1.0000 -0.5680626437
F   F12       1.0  0.88850  0.50000  0.38850  1.0000 -0.5680626437
