# DDEC6 charges by PACMAN v1.1 (https://github.com/mtap-research/PACMAN-charge/)
data_2022[Zn][dia]3[FSR]2
_chemical_formula_sum              "Zn4 H92 C136 N24 Cl4 O28"
_cell_length_a       13.0542
_cell_length_b       13.0542
_cell_length_c       25.2867
_cell_angle_alpha    82.698
_cell_angle_beta     97.302
_cell_angle_gamma    80.3203

_symmetry_space_group_name_H-M    "P 1"
_symmetry_Int_Tables_number       1

loop_
  _symmetry_equiv_pos_as_xyz
  'x, y, z'

loop_
  _atom_site_type_symbol
  _atom_site_label
  _atom_site_symmetry_multiplicity
  _atom_site_fract_x
  _atom_site_fract_y
  _atom_site_fract_z
  _atom_site_occupancy
  _atom_site_charge
Zn  Zn1       1.0  0.77080  0.87880  0.73514  1.0000 0.7321791356
Zn  Zn2       1.0  0.12120  0.22920  0.23514  1.0000 0.7321791356
Zn  Zn3       1.0  0.73318  0.62854  0.33594  1.0000 0.7321791356
Zn  Zn4       1.0  0.37146  0.26682  0.83594  1.0000 0.7321791356
H   H1        1.0  0.64700  0.09120  0.74370  1.0000 0.1200961712
H   H2        1.0  0.48370  0.19790  0.71160  1.0000 0.1456065333
H   H3        1.0  0.41900  0.98100  0.61690  1.0000 0.1420058187
H   H4        1.0  0.58550  0.88370  0.65010  1.0000 0.110394552
H   H5        1.0  0.31000  0.23160  0.65350  1.0000 0.1200961712
H   H6        1.0  0.15370  0.25970  0.60620  1.0000 0.2604275947
H   H7        1.0  0.00430  0.34190  0.60240  1.0000 0.130890444
H   H8        1.0  0.72820  0.42160  0.49900  1.0000 0.130890444
H   H9        1.0  0.93540  0.15640  0.49030  1.0000 0.130890444
H   H10       1.0  0.65770  0.39290  0.42750  1.0000 0.2740619784
H   H11       1.0  0.51500  0.43740  0.36260  1.0000 0.130890444
H   H12       1.0  0.36810  0.47150  0.28450  1.0000 0.1420058187
H   H13       1.0  0.22390  0.42110  0.23900  1.0000 0.110394552
H   H14       1.0  0.28390  0.14730  0.33230  1.0000 0.1200961712
H   H15       1.0  0.42730  0.19030  0.38170  1.0000 0.130890444
H   H16       1.0  0.96660  0.95700  0.58680  1.0000 0.110394552
H   H17       1.0  0.01400  0.92640  0.50330  1.0000 0.1420058187
H   H18       1.0  0.83750  0.69890  0.50080  1.0000 0.130890444
H   H19       1.0  0.79930  0.72210  0.58630  1.0000 0.110394552
H   H20       1.0  0.09140  0.76580  0.38470  1.0000 0.130890444
H   H21       1.0  0.13760  0.89340  0.32340  1.0000 0.1200961712
H   H22       1.0  0.90670  0.11210  0.35660  1.0000 0.1200961712
H   H23       1.0  0.85850  0.98490  0.41860  1.0000 0.1420058187
H   H24       1.0  0.90880  0.35300  0.24370  1.0000 0.1200961712
H   H25       1.0  0.80210  0.51630  0.21160  1.0000 0.1456065333
H   H26       1.0  0.01900  0.58100  0.11690  1.0000 0.1420058187
H   H27       1.0  0.11630  0.41450  0.15010  1.0000 0.110394552
H   H28       1.0  0.76840  0.69000  0.15350  1.0000 0.1200961712
H   H29       1.0  0.74030  0.84630  0.10620  1.0000 0.2604275947
H   H30       1.0  0.65810  0.99570  0.10240  1.0000 0.130890444
H   H31       1.0  0.57840  0.27180  0.99900  1.0000 0.130890444
H   H32       1.0  0.84360  0.06460  0.99030  1.0000 0.130890444
H   H33       1.0  0.60710  0.34230  0.92750  1.0000 0.2740619784
H   H34       1.0  0.56260  0.48500  0.86260  1.0000 0.130890444
H   H35       1.0  0.52850  0.63190  0.78450  1.0000 0.1420058187
H   H36       1.0  0.57890  0.77610  0.73900  1.0000 0.110394552
H   H37       1.0  0.85270  0.71610  0.83230  1.0000 0.1200961712
H   H38       1.0  0.80970  0.57270  0.88170  1.0000 0.130890444
H   H39       1.0  0.04300  0.03340  0.08680  1.0000 0.110394552
H   H40       1.0  0.07360  0.98600  0.00330  1.0000 0.1420058187
H   H41       1.0  0.30110  0.16250  0.00080  1.0000 0.130890444
H   H42       1.0  0.27790  0.20070  0.08630  1.0000 0.110394552
H   H43       1.0  0.23420  0.90860  0.88470  1.0000 0.130890444
H   H44       1.0  0.10660  0.86240  0.82340  1.0000 0.1200961712
H   H45       1.0  0.88790  0.09330  0.85660  1.0000 0.1200961712
H   H46       1.0  0.01510  0.14150  0.91860  1.0000 0.1420058187
H   H47       1.0  0.84770  0.40550  0.33050  1.0000 0.1200961712
H   H48       1.0  0.00020  0.28880  0.37200  1.0000 0.1456065333
H   H49       1.0  0.05830  0.50390  0.46920  1.0000 0.1456065333
H   H50       1.0  0.90920  0.61540  0.42320  1.0000 0.110394552
H   H51       1.0  0.16250  0.24490  0.44110  1.0000 0.1200961712
H   H52       1.0  0.32020  0.21980  0.48990  1.0000 0.2476516669
H   H53       1.0  0.47280  0.15040  0.48250  1.0000 0.1200961712
H   H54       1.0  0.75910  0.07810  0.57620  1.0000 0.130890444
H   H55       1.0  0.54660  0.33020  0.59600  1.0000 0.130890444
H   H56       1.0  0.83730  0.10290  0.64530  1.0000 0.2740619784
H   H57       1.0  0.99780  0.05920  0.69000  1.0000 0.130890444
H   H58       1.0  0.19060  0.02520  0.73070  1.0000 0.1456065333
H   H59       1.0  0.33030  0.07510  0.78140  1.0000 0.110394552
H   H60       1.0  0.00250  0.29150  0.75330  1.0000 0.1456065333
H   H61       1.0  0.14710  0.33170  0.80460  1.0000 0.130890444
H   H62       1.0  0.52470  0.52410  0.48110  1.0000 0.110394552
H   H63       1.0  0.46610  0.55730  0.56240  1.0000 0.1420058187
H   H64       1.0  0.58600  0.82520  0.55300  1.0000 0.1200961712
H   H65       1.0  0.64040  0.79340  0.47110  1.0000 0.110394552
H   H66       1.0  0.34290  0.72990  0.66480  1.0000 0.1420058187
H   H67       1.0  0.30010  0.60350  0.72740  1.0000 0.130890444
H   H68       1.0  0.55980  0.39780  0.71110  1.0000 0.130890444
H   H69       1.0  0.60490  0.52430  0.64940  1.0000 0.1420058187
H   H70       1.0  0.59450  0.15230  0.83050  1.0000 0.1200961712
H   H71       1.0  0.71120  0.99980  0.87200  1.0000 0.1456065333
H   H72       1.0  0.49610  0.94170  0.96920  1.0000 0.1456065333
H   H73       1.0  0.38460  0.09080  0.92320  1.0000 0.110394552
H   H74       1.0  0.75510  0.83750  0.94110  1.0000 0.1200961712
H   H75       1.0  0.78020  0.67980  0.98990  1.0000 0.2476516669
H   H76       1.0  0.84960  0.52720  0.98250  1.0000 0.1200961712
H   H77       1.0  0.92190  0.24090  0.07620  1.0000 0.130890444
H   H78       1.0  0.66980  0.45340  0.09600  1.0000 0.130890444
H   H79       1.0  0.89710  0.16270  0.14530  1.0000 0.2740619784
H   H80       1.0  0.94080  0.00220  0.19000  1.0000 0.130890444
H   H81       1.0  0.97480  0.80940  0.23070  1.0000 0.1456065333
H   H82       1.0  0.92490  0.66970  0.28140  1.0000 0.110394552
H   H83       1.0  0.70850  0.99750  0.25330  1.0000 0.1456065333
H   H84       1.0  0.66830  0.85290  0.30460  1.0000 0.130890444
H   H85       1.0  0.47590  0.47530  0.98110  1.0000 0.110394552
H   H86       1.0  0.44270  0.53390  0.06240  1.0000 0.1420058187
H   H87       1.0  0.17480  0.41400  0.05300  1.0000 0.1200961712
H   H88       1.0  0.20660  0.35960  0.97110  1.0000 0.110394552
H   H89       1.0  0.27010  0.65710  0.16480  1.0000 0.1420058187
H   H90       1.0  0.39650  0.69990  0.22740  1.0000 0.130890444
H   H91       1.0  0.60220  0.44020  0.21110  1.0000 0.130890444
H   H92       1.0  0.47570  0.39510  0.14940  1.0000 0.1420058187
C   C1        1.0  0.59980  0.06880  0.71781  1.0000 0.088265319
C   C2        1.0  0.50210  0.13270  0.69909  1.0000 -0.196608963
C   C3        1.0  0.43190  0.09970  0.66187  1.0000 0.130890444
C   C4        1.0  0.46430  0.00510  0.64309  1.0000 -0.1806626508
C   C5        1.0  0.56340  0.94740  0.66337  1.0000 0.080023699
C   C6        1.0  0.32770  0.16450  0.64279  1.0000 -0.040733982
C   C7        1.0  0.08700  0.16160  0.56670  1.0000 0.4280394582
C   C8        1.0  0.98570  0.23870  0.54860  1.0000 -0.0124709496
C   C9        1.0  0.95810  0.32750  0.57327  1.0000 -0.228275587
C   C10       1.0  0.86190  0.39430  0.55436  1.0000 0.1676693974
C   C11       1.0  0.79320  0.37480  0.51170  1.0000 -0.196608963
C   C12       1.0  0.82090  0.28610  0.48811  1.0000 -0.0008340186
C   C13       1.0  0.91720  0.21740  0.50656  1.0000 -0.1459755743
C   C14       1.0  0.74790  0.25350  0.44496  1.0000 0.4280394582
C   C15       1.0  0.50710  0.36590  0.36620  1.0000 -0.0124709496
C   C16       1.0  0.41440  0.33600  0.33860  1.0000 0.130890444
C   C17       1.0  0.35180  0.40460  0.29540  1.0000 -0.1806626508
C   C18       1.0  0.26570  0.37410  0.26860  1.0000 0.0735300002
C   C19       1.0  0.30040  0.21480  0.32309  1.0000 0.080023699
C   C20       1.0  0.38690  0.23930  0.35235  1.0000 -0.1806626508
C   C21       1.0  0.84240  0.86800  0.64597  1.0000 0.5506409859
C   C22       1.0  0.87530  0.84550  0.59386  1.0000 -0.0518091107
C   C23       1.0  0.94070  0.90430  0.56928  1.0000 -0.0818763921
C   C24       1.0  0.96820  0.88720  0.51964  1.0000 -0.2118848493
C   C25       1.0  0.92750  0.81090  0.49425  1.0000 0.2604275947
C   C26       1.0  0.86430  0.75070  0.51863  1.0000 -0.2118848493
C   C27       1.0  0.84000  0.76580  0.56875  1.0000 -0.088834618
C   C28       1.0  0.97410  0.86570  0.40828  1.0000 0.2476516669
C   C29       1.0  0.05510  0.83670  0.37959  1.0000 -0.2118848493
C   C30       1.0  0.08230  0.91210  0.34347  1.0000 -0.088834618
C   C31       1.0  0.02880  0.01600  0.33628  1.0000 -0.0518091107
C   C32       1.0  0.94520  0.04200  0.36315  1.0000 -0.0818763921
C   C33       1.0  0.91600  0.96700  0.39993  1.0000 -0.222596019
C   C34       1.0  0.06280  0.09820  0.29971  1.0000 0.542834044
C   C35       1.0  0.93120  0.40020  0.21781  1.0000 0.088265319
C   C36       1.0  0.86730  0.49790  0.19909  1.0000 -0.196608963
C   C37       1.0  0.90030  0.56810  0.16187  1.0000 0.130890444
C   C38       1.0  0.99490  0.53570  0.14309  1.0000 -0.1806626508
C   C39       1.0  0.05260  0.43660  0.16337  1.0000 0.080023699
C   C40       1.0  0.83550  0.67230  0.14279  1.0000 -0.040733982
C   C41       1.0  0.83840  0.91300  0.06670  1.0000 0.4280394582
C   C42       1.0  0.76130  0.01430  0.04860  1.0000 -0.0124709496
C   C43       1.0  0.67250  0.04190  0.07327  1.0000 -0.228275587
C   C44       1.0  0.60570  0.13810  0.05436  1.0000 0.1676693974
C   C45       1.0  0.62520  0.20680  0.01170  1.0000 -0.1927581603
C   C46       1.0  0.71390  0.17910  0.98811  1.0000 -0.0008340186
C   C47       1.0  0.78260  0.08280  0.00656  1.0000 -0.1459755743
C   C48       1.0  0.74650  0.25210  0.94496  1.0000 0.4280394582
C   C49       1.0  0.63410  0.49290  0.86620  1.0000 -0.0124709496
C   C50       1.0  0.66400  0.58560  0.83860  1.0000 0.130890444
C   C51       1.0  0.59540  0.64820  0.79540  1.0000 -0.1806626508
C   C52       1.0  0.62590  0.73430  0.76860  1.0000 0.0735300002
C   C53       1.0  0.78520  0.69960  0.82309  1.0000 0.080023699
C   C54       1.0  0.76070  0.61310  0.85235  1.0000 -0.1806626508
C   C55       1.0  0.13200  0.15760  0.14597  1.0000 0.5506409859
C   C56       1.0  0.15450  0.12470  0.09386  1.0000 -0.0518091107
C   C57       1.0  0.09570  0.05930  0.06928  1.0000 -0.0818763921
C   C58       1.0  0.11280  0.03180  0.01964  1.0000 -0.2118848493
C   C59       1.0  0.18910  0.07250  0.99425  1.0000 0.2604275947
C   C60       1.0  0.24930  0.13570  0.01863  1.0000 -0.2118848493
C   C61       1.0  0.23420  0.16000  0.06875  1.0000 -0.088834618
C   C62       1.0  0.13430  0.02590  0.90828  1.0000 0.2476516669
C   C63       1.0  0.16330  0.94490  0.87959  1.0000 -0.2118848493
C   C64       1.0  0.08790  0.91770  0.84347  1.0000 -0.088834618
C   C65       1.0  0.98400  0.97120  0.83628  1.0000 -0.0518091107
C   C66       1.0  0.95800  0.05480  0.86315  1.0000 -0.0818763921
C   C67       1.0  0.03300  0.08400  0.89993  1.0000 -0.222596019
C   C68       1.0  0.90180  0.93720  0.79971  1.0000 0.542834044
C   C69       1.0  0.89230  0.42590  0.35834  1.0000 0.088265319
C   C70       1.0  0.98290  0.35570  0.38300  1.0000 -0.1927581603
C   C71       1.0  0.04750  0.38530  0.42401  1.0000 0.130890444
C   C72       1.0  0.01740  0.48300  0.44000  1.0000 -0.1806626508
C   C73       1.0  0.92800  0.54820  0.41290  1.0000 0.080023699
C   C74       1.0  0.14840  0.31560  0.44770  1.0000 -0.031170932
C   C75       1.0  0.39050  0.32410  0.52170  1.0000 0.4280394582
C   C76       1.0  0.49320  0.25020  0.53755  1.0000 -0.0124709496
C   C77       1.0  0.52100  0.16520  0.51070  1.0000 -0.222596019
C   C78       1.0  0.61950  0.10270  0.52561  1.0000 0.1676693974
C   C79       1.0  0.69170  0.12210  0.56657  1.0000 -0.1927581603
C   C80       1.0  0.66353  0.20793  0.59349  1.0000 -0.0124709496
C   C81       1.0  0.56530  0.27130  0.57831  1.0000 -0.1317915911
C   C82       1.0  0.73770  0.23890  0.63634  1.0000 0.4280394582
C   C83       1.0  0.99210  0.12630  0.70145  1.0000 -0.031170932
C   C84       1.0  0.08060  0.15420  0.73535  1.0000 0.130890444
C   C85       1.0  0.18000  0.08940  0.74492  1.0000 -0.196608963
C   C86       1.0  0.26300  0.11960  0.77526  1.0000 0.0735300002
C   C87       1.0  0.06890  0.24590  0.75830  1.0000 -0.1806626508
C   C88       1.0  0.15590  0.26950  0.78850  1.0000 0.0979958443
C   C89       1.0  0.63880  0.62780  0.42022  1.0000 0.5506409859
C   C90       1.0  0.59320  0.65260  0.46960  1.0000 -0.040733982
C   C91       1.0  0.53860  0.58440  0.49610  1.0000 -0.0818763921
C   C92       1.0  0.50410  0.60350  0.54454  1.0000 -0.222596019
C   C93       1.0  0.52640  0.69120  0.56602  1.0000 0.2604275947
C   C94       1.0  0.57510  0.76330  0.53878  1.0000 -0.2118848493
C   C95       1.0  0.60770  0.74390  0.49037  1.0000 -0.0818763921
C   C96       1.0  0.47600  0.63740  0.65082  1.0000 0.2476516669
C   C97       1.0  0.38640  0.66220  0.67421  1.0000 -0.2118848493
C   C98       1.0  0.36160  0.58760  0.71120  1.0000 -0.0984539831
C   C99       1.0  0.42630  0.48770  0.72527  1.0000 -0.040733982
C   C100      1.0  0.51610  0.46530  0.70173  1.0000 -0.0818763921
C   C101      1.0  0.54250  0.53950  0.66493  1.0000 -0.2118848493
C   C102      1.0  0.39790  0.40730  0.76598  1.0000 0.542834044
C   C103      1.0  0.57410  0.10770  0.85834  1.0000 0.088265319
C   C104      1.0  0.64430  0.01710  0.88300  1.0000 -0.1927581603
C   C105      1.0  0.61470  0.95250  0.92401  1.0000 0.130890444
C   C106      1.0  0.51700  0.98260  0.94000  1.0000 -0.1806626508
C   C107      1.0  0.45180  0.07200  0.91290  1.0000 0.080023699
C   C108      1.0  0.68440  0.85160  0.94770  1.0000 -0.031170932
C   C109      1.0  0.67590  0.60950  0.02170  1.0000 0.4280394582
C   C110      1.0  0.74980  0.50680  0.03755  1.0000 -0.0124709496
C   C111      1.0  0.83480  0.47900  0.01070  1.0000 -0.222596019
C   C112      1.0  0.89730  0.38050  0.02561  1.0000 0.1676693974
C   C113      1.0  0.87790  0.30830  0.06657  1.0000 -0.1927581603
C   C114      1.0  0.79207  0.33647  0.09349  1.0000 -0.0124709496
C   C115      1.0  0.72870  0.43470  0.07831  1.0000 -0.1317915911
C   C116      1.0  0.76110  0.26230  0.13634  1.0000 0.4280394582
C   C117      1.0  0.87370  0.00790  0.20145  1.0000 -0.031170932
C   C118      1.0  0.84580  0.91940  0.23535  1.0000 0.130890444
C   C119      1.0  0.91060  0.82000  0.24492  1.0000 -0.196608963
C   C120      1.0  0.88040  0.73700  0.27526  1.0000 0.0735300002
C   C121      1.0  0.75410  0.93110  0.25830  1.0000 -0.1806626508
C   C122      1.0  0.73050  0.84410  0.28850  1.0000 0.0979958443
C   C123      1.0  0.37220  0.36120  0.92022  1.0000 0.5506409859
C   C124      1.0  0.34740  0.40680  0.96960  1.0000 -0.040733982
C   C125      1.0  0.41560  0.46140  0.99610  1.0000 -0.0818763921
C   C126      1.0  0.39650  0.49590  0.04454  1.0000 -0.222596019
C   C127      1.0  0.30880  0.47360  0.06602  1.0000 0.2604275947
C   C128      1.0  0.23670  0.42490  0.03878  1.0000 -0.2118848493
C   C129      1.0  0.25610  0.39230  0.99037  1.0000 -0.0818763921
C   C130      1.0  0.36260  0.52400  0.15082  1.0000 0.2476516669
C   C131      1.0  0.33780  0.61360  0.17421  1.0000 -0.2118848493
C   C132      1.0  0.41240  0.63840  0.21120  1.0000 -0.0984539831
C   C133      1.0  0.51230  0.57370  0.22527  1.0000 -0.040733982
C   C134      1.0  0.53470  0.48390  0.20173  1.0000 -0.0818763921
C   C135      1.0  0.46050  0.45750  0.16493  1.0000 -0.2118848493
C   C136      1.0  0.59270  0.60210  0.26598  1.0000 0.542834044
N   N1        1.0  0.62976  0.97696  0.70083  1.0000 -0.228275587
N   N2        1.0  0.26026  0.13046  0.61167  1.0000 -0.117889942
N   N3        1.0  0.16452  0.19672  0.59671  1.0000 -0.2458989056
N   N4        1.0  0.66086  0.32646  0.42351  1.0000 -0.228275587
N   N5        1.0  0.57768  0.29428  0.39545  1.0000 -0.10892
N   N6        1.0  0.23858  0.28058  0.28256  1.0000 -0.2118848493
N   N7        1.0  0.02304  0.37024  0.20083  1.0000 -0.228275587
N   N8        1.0  0.86954  0.73974  0.11167  1.0000 -0.117889942
N   N9        1.0  0.80328  0.83548  0.09671  1.0000 -0.2458989056
N   N10       1.0  0.67354  0.33914  0.92351  1.0000 -0.228275587
N   N11       1.0  0.70572  0.42232  0.89545  1.0000 -0.10892
N   N12       1.0  0.71942  0.76142  0.78256  1.0000 -0.2118848493
N   N13       1.0  0.86532  0.52172  0.37235  1.0000 -0.228275587
N   N14       1.0  0.21630  0.35190  0.47728  1.0000 -0.117889942
N   N15       1.0  0.31100  0.28580  0.49529  1.0000 -0.2458989056
N   N16       1.0  0.82918  0.16618  0.65464  1.0000 -0.228275587
N   N17       1.0  0.90671  0.19551  0.68774  1.0000 -0.088834618
N   N18       1.0  0.25154  0.20874  0.79606  1.0000 -0.228275587
N   N19       1.0  0.47828  0.13468  0.87235  1.0000 -0.228275587
N   N20       1.0  0.64810  0.78370  0.97728  1.0000 -0.117889942
N   N21       1.0  0.71420  0.68900  0.99529  1.0000 -0.2458989056
N   N22       1.0  0.83382  0.17082  0.15464  1.0000 -0.228275587
N   N23       1.0  0.80449  0.09329  0.18774  1.0000 -0.088834618
N   N24       1.0  0.79126  0.74846  0.29606  1.0000 -0.228275587
Cl  Cl1       1.0  0.82694  0.50438  0.58447  1.0000 -0.0566919192
Cl  Cl2       1.0  0.49562  0.17306  0.08447  1.0000 -0.0518091107
Cl  Cl3       1.0  0.65394  0.99696  0.49188  1.0000 -0.0566919192
Cl  Cl4       1.0  0.00304  0.34606  0.99188  1.0000 -0.0566919192
O   O1        1.0  0.09830  0.07290  0.55473  1.0000 -0.4323045308
O   O2        1.0  0.76562  0.16562  0.43188  1.0000 -0.4516209061
O   O3        1.0  0.85867  0.94987  0.66382  1.0000 -0.5649408395
O   O4        1.0  0.79615  0.80315  0.67124  1.0000 -0.5317576621
O   O5        1.0  0.95218  0.78678  0.44531  1.0000 -0.228275587
O   O6        1.0  0.14583  0.07463  0.27880  1.0000 -0.5317576621
O   O7        1.0  0.01103  0.19103  0.29042  1.0000 -0.5649408395
O   O8        1.0  0.92710  0.90170  0.05473  1.0000 -0.4323045308
O   O9        1.0  0.83438  0.23438  0.93188  1.0000 -0.4516209061
O   O10       1.0  0.05013  0.14133  0.16382  1.0000 -0.5649408395
O   O11       1.0  0.19685  0.20385  0.17124  1.0000 -0.5317576621
O   O12       1.0  0.21322  0.04782  0.94531  1.0000 -0.228275587
O   O13       1.0  0.92537  0.85417  0.77880  1.0000 -0.5317576621
O   O14       1.0  0.80897  0.98897  0.79042  1.0000 -0.5689348514
O   O15       1.0  0.37834  0.41314  0.53372  1.0000 -0.4361998731
O   O16       1.0  0.71799  0.32239  0.65240  1.0000 -0.4361998731
O   O17       1.0  0.68979  0.69319  0.39903  1.0000 -0.5360454911
O   O18       1.0  0.62967  0.54387  0.40307  1.0000 -0.5689348514
O   O19       1.0  0.49789  0.71589  0.61401  1.0000 -0.222596019
O   O20       1.0  0.31714  0.42954  0.78741  1.0000 -0.5317576621
O   O21       1.0  0.45840  0.31800  0.77847  1.0000 -0.5689348514
O   O22       1.0  0.58686  0.62166  0.03372  1.0000 -0.4361998731
O   O23       1.0  0.67761  0.28201  0.15240  1.0000 -0.4361998731
O   O24       1.0  0.30681  0.31021  0.89903  1.0000 -0.5360454911
O   O25       1.0  0.45613  0.37033  0.90307  1.0000 -0.5689348514
O   O26       1.0  0.28411  0.50211  0.11401  1.0000 -0.222596019
O   O27       1.0  0.57046  0.68286  0.28741  1.0000 -0.5317576621
O   O28       1.0  0.68200  0.54160  0.27847  1.0000 -0.5689348514
