# DDEC6 charges by PACMAN v1.1 (https://github.com/mtap-research/PACMAN-charge/)
data_2023[Zn][nan]3[FSR]6
_chemical_formula_sum              "Zn4 H80 C116 N4 O20"
_cell_length_a       14.0446
_cell_length_b       14.0446
_cell_length_c       28.9377
_cell_angle_alpha    87.2312
_cell_angle_beta     92.7688
_cell_angle_gamma    145.926

_symmetry_space_group_name_H-M    "P 1"
_symmetry_Int_Tables_number       1

loop_
  _symmetry_equiv_pos_as_xyz
  'x, y, z'

loop_
  _atom_site_type_symbol
  _atom_site_label
  _atom_site_symmetry_multiplicity
  _atom_site_fract_x
  _atom_site_fract_y
  _atom_site_fract_z
  _atom_site_occupancy
  _atom_site_charge
Zn  Zn1       1.0  0.59468  0.66606  0.50589  1.0000 0.8206270096
Zn  Zn2       1.0  0.66606  0.59468  0.99411  1.0000 0.8206270096
Zn  Zn3       1.0  0.40532  0.33394  0.49411  1.0000 0.8206270096
Zn  Zn4       1.0  0.33394  0.40532  0.00589  1.0000 0.8206270096
H   H1        1.0  0.90505  0.01915  0.46700  1.0000 0.1196240113
H   H2        1.0  0.01915  0.90505  0.03300  1.0000 0.1196240113
H   H3        1.0  0.09495  0.98085  0.53300  1.0000 0.1196240113
H   H4        1.0  0.98085  0.09495  0.96700  1.0000 0.1196240113
H   H5        1.0  0.53635  0.80595  0.54222  1.0000 0.1107491659
H   H6        1.0  0.80595  0.53635  0.95778  1.0000 0.1107491659
H   H7        1.0  0.46365  0.19405  0.45778  1.0000 0.1107491659
H   H8        1.0  0.19405  0.46365  0.04222  1.0000 0.1107491659
H   H9        1.0  0.04498  0.98254  0.91590  1.0000 0.1196240113
H   H10       1.0  0.98254  0.04498  0.58410  1.0000 0.1196240113
H   H11       1.0  0.95502  0.01746  0.08410  1.0000 0.1196240113
H   H12       1.0  0.01746  0.95502  0.41590  1.0000 0.1196240113
H   H13       1.0  0.49558  0.22328  0.90817  1.0000 0.1196240113
H   H14       1.0  0.22328  0.49558  0.59183  1.0000 0.1196240113
H   H15       1.0  0.50442  0.77672  0.09183  1.0000 0.1196240113
H   H16       1.0  0.77672  0.50442  0.40817  1.0000 0.1196240113
H   H17       1.0  0.65367  0.05279  0.54240  1.0000 0.1289543141
H   H18       1.0  0.05279  0.65367  0.95760  1.0000 0.1289543141
H   H19       1.0  0.34633  0.94721  0.45760  1.0000 0.1289543141
H   H20       1.0  0.94721  0.34633  0.04240  1.0000 0.1289543141
H   H21       1.0  0.03246  0.27242  0.46460  1.0000 0.1358963308
H   H22       1.0  0.27242  0.03246  0.03540  1.0000 0.1358963308
H   H23       1.0  0.96754  0.72758  0.53540  1.0000 0.1358963308
H   H24       1.0  0.72758  0.96754  0.96460  1.0000 0.1358963308
H   H25       1.0  0.37532  0.01598  0.85908  1.0000 0.1107491659
H   H26       1.0  0.01598  0.37532  0.64092  1.0000 0.1107491659
H   H27       1.0  0.62468  0.98402  0.14092  1.0000 0.1107491659
H   H28       1.0  0.98402  0.62468  0.35908  1.0000 0.1107491659
H   H29       1.0  0.15563  0.70299  0.85065  1.0000 0.1358963308
H   H30       1.0  0.70299  0.15563  0.64935  1.0000 0.1358963308
H   H31       1.0  0.84437  0.29701  0.14935  1.0000 0.1358963308
H   H32       1.0  0.29701  0.84437  0.35065  1.0000 0.1358963308
H   H33       1.0  0.92756  0.78156  0.86491  1.0000 0.1196240113
H   H34       1.0  0.78156  0.92756  0.63509  1.0000 0.1196240113
H   H35       1.0  0.07244  0.21843  0.13509  1.0000 0.1196240113
H   H36       1.0  0.21843  0.07244  0.36491  1.0000 0.1196240113
H   H37       1.0  0.82684  0.48712  0.51099  1.0000 0.1196240113
H   H38       1.0  0.48712  0.82684  0.98901  1.0000 0.1196240113
H   H39       1.0  0.17316  0.51288  0.48901  1.0000 0.1196240113
H   H40       1.0  0.51288  0.17316  0.01099  1.0000 0.1196240113
H   H41       1.0  0.71197  0.24011  0.51337  1.0000 0.1107491659
H   H42       1.0  0.24011  0.71197  0.98663  1.0000 0.1107491659
H   H43       1.0  0.28803  0.75989  0.48663  1.0000 0.1107491659
H   H44       1.0  0.75989  0.28803  0.01337  1.0000 0.1107491659
H   H45       1.0  0.60888  0.35496  0.61496  1.0000 0.1196240113
H   H46       1.0  0.35496  0.60888  0.88504  1.0000 0.1196240113
H   H47       1.0  0.39112  0.64504  0.38504  1.0000 0.1196240113
H   H48       1.0  0.64504  0.39112  0.11496  1.0000 0.1196240113
H   H49       1.0  0.91057  0.46907  0.72905  1.0000 0.1196240113
H   H50       1.0  0.46907  0.91057  0.77095  1.0000 0.1196240113
H   H51       1.0  0.08943  0.53093  0.27095  1.0000 0.1196240113
H   H52       1.0  0.53093  0.08943  0.22905  1.0000 0.1196240113
H   H53       1.0  0.70763  0.37067  0.68485  1.0000 0.1107491659
H   H54       1.0  0.37067  0.70763  0.81515  1.0000 0.1107491659
H   H55       1.0  0.29237  0.62933  0.31515  1.0000 0.1107491659
H   H56       1.0  0.62933  0.29237  0.18485  1.0000 0.1107491659
H   H57       1.0  0.95821  0.76879  0.78041  1.0000 0.1107491659
H   H58       1.0  0.76879  0.95821  0.71959  1.0000 0.1107491659
H   H59       1.0  0.04179  0.23121  0.21959  1.0000 0.1107491659
H   H60       1.0  0.23121  0.04179  0.28041  1.0000 0.1107491659
H   H61       1.0  0.86034  0.80498  0.63860  1.0000 0.1196240113
H   H62       1.0  0.80498  0.86034  0.86140  1.0000 0.1196240113
H   H63       1.0  0.13966  0.19502  0.36140  1.0000 0.1196240113
H   H64       1.0  0.19502  0.13966  0.13860  1.0000 0.1196240113
H   H65       1.0  0.96182  0.82278  0.70802  1.0000 0.1107491659
H   H66       1.0  0.82278  0.96182  0.79198  1.0000 0.1107491659
H   H67       1.0  0.03818  0.17722  0.29198  1.0000 0.1107491659
H   H68       1.0  0.17722  0.03818  0.20802  1.0000 0.1107491659
H   H69       1.0  0.06192  0.37342  0.77099  1.0000 0.1289543141
H   H70       1.0  0.37342  0.06192  0.72901  1.0000 0.1289543141
H   H71       1.0  0.93808  0.62658  0.22901  1.0000 0.1358963308
H   H72       1.0  0.62658  0.93808  0.27099  1.0000 0.1289543141
H   H73       1.0  0.90492  0.30794  0.75723  1.0000 0.1196240113
H   H74       1.0  0.30794  0.90492  0.74277  1.0000 0.1196240113
H   H75       1.0  0.09508  0.69206  0.24277  1.0000 0.1196240113
H   H76       1.0  0.69206  0.09508  0.25723  1.0000 0.1196240113
H   H77       1.0  0.08099  0.47375  0.73404  1.0000 0.1196240113
H   H78       1.0  0.47375  0.08099  0.76596  1.0000 0.1196240113
H   H79       1.0  0.91901  0.52625  0.26596  1.0000 0.1196240113
H   H80       1.0  0.52625  0.91901  0.23404  1.0000 0.1196240113
C   C1        1.0  0.85451  0.02669  0.48210  1.0000 0.1034339395
C   C2        1.0  0.02669  0.85451  0.01790  1.0000 0.1034339395
C   C3        1.0  0.14549  0.97331  0.51790  1.0000 0.1034339395
C   C4        1.0  0.97331  0.14549  0.98210  1.0000 0.1034339395
C   C5        1.0  0.93048  0.35012  0.50132  1.0000 0.0637065117
C   C6        1.0  0.35012  0.93048  0.99868  1.0000 0.0637065117
C   C7        1.0  0.06952  0.64988  0.49868  1.0000 0.0637065117
C   C8        1.0  0.64988  0.06952  0.00132  1.0000 0.0637065117
C   C9        1.0  0.63712  0.90108  0.52655  1.0000 0.0921012416
C   C10       1.0  0.90108  0.63712  0.97345  1.0000 0.0921012416
C   C11       1.0  0.36288  0.09892  0.47345  1.0000 0.0921012416
C   C12       1.0  0.09892  0.36288  0.02655  1.0000 0.0921012416
C   C13       1.0  0.28378  0.12662  0.91651  1.0000 -0.0366850704
C   C14       1.0  0.12662  0.28378  0.58349  1.0000 -0.0366850704
C   C15       1.0  0.71622  0.87338  0.08349  1.0000 -0.0366850704
C   C16       1.0  0.87338  0.71622  0.41651  1.0000 -0.0366850704
C   C17       1.0  0.85554  0.19146  0.50278  1.0000 0.1196240113
C   C18       1.0  0.19146  0.85554  0.99722  1.0000 0.1196240113
C   C19       1.0  0.14446  0.80854  0.49722  1.0000 0.1196240113
C   C20       1.0  0.80854  0.14446  0.00278  1.0000 0.1196240113
C   C21       1.0  0.11230  0.99130  0.90388  1.0000 -0.0948806721
C   C22       1.0  0.99130  0.11230  0.59612  1.0000 -0.0948806721
C   C23       1.0  0.88770  0.00870  0.09612  1.0000 -0.0948806721
C   C24       1.0  0.00870  0.88770  0.40388  1.0000 -0.0948806721
C   C25       1.0  0.38157  0.13463  0.89955  1.0000 -0.1027368455
C   C26       1.0  0.13463  0.38157  0.60045  1.0000 -0.1027368455
C   C27       1.0  0.61843  0.86537  0.10045  1.0000 -0.1027368455
C   C28       1.0  0.86537  0.61843  0.39955  1.0000 -0.1027368455
C   C29       1.0  0.72495  0.57885  0.61913  1.0000 -0.0366850704
C   C30       1.0  0.57885  0.72495  0.88087  1.0000 -0.0366850704
C   C31       1.0  0.27505  0.42115  0.38087  1.0000 -0.0366850704
C   C32       1.0  0.42115  0.27505  0.11913  1.0000 -0.0366850704
C   C33       1.0  0.70639  0.04881  0.52658  1.0000 -0.2026045787
C   C34       1.0  0.04881  0.70639  0.97342  1.0000 -0.2026045787
C   C35       1.0  0.29361  0.95119  0.47342  1.0000 -0.2026045787
C   C36       1.0  0.95119  0.29361  0.02658  1.0000 -0.2026045787
C   C37       1.0  0.93137  0.17903  0.48042  1.0000 -0.1886089387
C   C38       1.0  0.17903  0.93137  0.01958  1.0000 -0.1886089387
C   C39       1.0  0.06863  0.82097  0.51958  1.0000 -0.1886089387
C   C40       1.0  0.82097  0.06863  0.98042  1.0000 -0.1886089387
C   C41       1.0  0.65536  0.56464  0.57450  1.0000 0.57215455
C   C42       1.0  0.56464  0.65536  0.92550  1.0000 0.57215455
C   C43       1.0  0.34464  0.43536  0.42550  1.0000 0.57215455
C   C44       1.0  0.43536  0.34464  0.07450  1.0000 0.57215455
C   C45       1.0  0.30956  0.01064  0.86977  1.0000 -0.1622524875
C   C46       1.0  0.01064  0.30956  0.63023  1.0000 -0.1622524875
C   C47       1.0  0.69044  0.98936  0.13023  1.0000 -0.1622524875
C   C48       1.0  0.98936  0.69044  0.36977  1.0000 -0.1622524875
C   C49       1.0  0.09644  0.68076  0.82518  1.0000 -0.2814527991
C   C50       1.0  0.68076  0.09644  0.67482  1.0000 -0.2814527991
C   C51       1.0  0.90356  0.31924  0.17482  1.0000 -0.2814527991
C   C52       1.0  0.31924  0.90356  0.32518  1.0000 -0.2814527991
C   C53       1.0  0.06792  0.75488  0.82126  1.0000 0.0921012416
C   C54       1.0  0.75488  0.06792  0.67874  1.0000 0.0921012416
C   C55       1.0  0.93208  0.24512  0.17874  1.0000 0.0921012416
C   C56       1.0  0.24512  0.93208  0.32126  1.0000 0.0921012416
C   C57       1.0  0.03551  0.57249  0.79059  1.0000 0.2581094262
C   C58       1.0  0.57249  0.03551  0.70941  1.0000 0.2581094262
C   C59       1.0  0.96449  0.42751  0.20941  1.0000 0.2581094262
C   C60       1.0  0.42751  0.96449  0.29059  1.0000 0.2581094262
C   C61       1.0  0.04145  0.86975  0.87356  1.0000 -0.1513977689
C   C62       1.0  0.86975  0.04145  0.62644  1.0000 -0.1513977689
C   C63       1.0  0.95855  0.13025  0.12644  1.0000 -0.1513977689
C   C64       1.0  0.13025  0.95855  0.37356  1.0000 -0.1513977689
C   C65       1.0  0.89654  0.49266  0.50660  1.0000 -0.1327377091
C   C66       1.0  0.49266  0.89654  0.99340  1.0000 -0.1327377091
C   C67       1.0  0.10346  0.50734  0.49340  1.0000 -0.1327377091
C   C68       1.0  0.50734  0.10346  0.00660  1.0000 -0.1327377091
C   C69       1.0  0.13911  0.87809  0.85581  1.0000 0.0701082425
C   C70       1.0  0.87809  0.13911  0.64419  1.0000 0.0701082425
C   C71       1.0  0.86089  0.12191  0.14419  1.0000 0.0701082425
C   C72       1.0  0.12191  0.86089  0.35581  1.0000 0.0701082425
C   C73       1.0  0.36282  0.26158  0.94831  1.0000 0.57215455
C   C74       1.0  0.26158  0.36282  0.55169  1.0000 0.57215455
C   C75       1.0  0.63718  0.73842  0.05169  1.0000 0.57215455
C   C76       1.0  0.73842  0.63718  0.44831  1.0000 0.57215455
C   C77       1.0  0.82735  0.34405  0.50799  1.0000 -0.1396890822
C   C78       1.0  0.34405  0.82735  0.99201  1.0000 -0.1396890822
C   C79       1.0  0.17265  0.65595  0.49201  1.0000 -0.1396890822
C   C80       1.0  0.65595  0.17265  0.00799  1.0000 -0.1396890822
C   C81       1.0  0.67977  0.44903  0.63357  1.0000 -0.1027368455
C   C82       1.0  0.44903  0.67977  0.86643  1.0000 -0.1027368455
C   C83       1.0  0.32023  0.55097  0.36643  1.0000 -0.1027368455
C   C84       1.0  0.55097  0.32023  0.13357  1.0000 -0.1027368455
C   C85       1.0  0.94985  0.54075  0.75192  1.0000 -0.3017114195
C   C86       1.0  0.54075  0.94985  0.74808  1.0000 -0.3017114195
C   C87       1.0  0.05015  0.45925  0.24808  1.0000 -0.3017114195
C   C88       1.0  0.45925  0.05015  0.25192  1.0000 -0.3017114195
C   C89       1.0  0.84790  0.59970  0.70400  1.0000 0.0701082425
C   C90       1.0  0.59970  0.84790  0.79600  1.0000 0.0701082425
C   C91       1.0  0.15210  0.40030  0.29600  1.0000 0.0701082425
C   C92       1.0  0.40030  0.15210  0.20400  1.0000 0.0701082425
C   C93       1.0  0.73983  0.45897  0.67554  1.0000 -0.1513977689
C   C94       1.0  0.45897  0.73983  0.82446  1.0000 -0.1513977689
C   C95       1.0  0.26017  0.54103  0.32446  1.0000 -0.1513977689
C   C96       1.0  0.54103  0.26017  0.17554  1.0000 -0.1513977689
C   C97       1.0  0.97933  0.72107  0.78258  1.0000 -0.2410416099
C   C98       1.0  0.72107  0.97933  0.71742  1.0000 -0.2410416099
C   C99       1.0  0.02067  0.27893  0.21742  1.0000 -0.2410416099
C   C100      1.0  0.27893  0.02067  0.28258  1.0000 -0.2410416099
C   C101      1.0  0.83036  0.71804  0.64768  1.0000 -0.1096142008
C   C102      1.0  0.71804  0.83036  0.85232  1.0000 -0.1096142008
C   C103      1.0  0.16964  0.28196  0.35232  1.0000 -0.1096142008
C   C104      1.0  0.28196  0.16964  0.14768  1.0000 -0.1096142008
C   C105      1.0  0.92257  0.61743  0.74737  1.0000 0.1034339395
C   C106      1.0  0.61743  0.92257  0.75263  1.0000 0.1107491659
C   C107      1.0  0.07743  0.38257  0.25263  1.0000 0.1107491659
C   C108      1.0  0.38257  0.07743  0.24737  1.0000 0.1107491659
C   C109      1.0  0.89129  0.72871  0.68945  1.0000 -0.1513977689
C   C110      1.0  0.72871  0.89129  0.81055  1.0000 -0.1513977689
C   C111      1.0  0.10871  0.27129  0.31055  1.0000 -0.1513977689
C   C112      1.0  0.27129  0.10871  0.18945  1.0000 -0.1513977689
C   C113      1.0  0.02583  0.40717  0.76212  1.0000 -0.2345905769
C   C114      1.0  0.40717  0.02583  0.73788  1.0000 -0.2345905769
C   C115      1.0  0.97417  0.59283  0.23788  1.0000 -0.2345905769
C   C116      1.0  0.59283  0.97417  0.26212  1.0000 -0.2345905769
N   N1        1.0  0.70915  0.88925  0.50487  1.0000 -0.2194370496
N   N2        1.0  0.88925  0.70915  0.99513  1.0000 -0.2194370496
N   N3        1.0  0.29085  0.11075  0.49513  1.0000 -0.2194370496
N   N4        1.0  0.11075  0.29085  0.00487  1.0000 -0.2194370496
O   O1        1.0  0.26669  0.24151  0.96511  1.0000 -0.5409076057
O   O2        1.0  0.24151  0.26669  0.53489  1.0000 -0.5409076057
O   O3        1.0  0.73331  0.75849  0.03489  1.0000 -0.5409076057
O   O4        1.0  0.75849  0.73331  0.46511  1.0000 -0.5409076057
O   O5        1.0  0.70074  0.68566  0.56291  1.0000 -0.5312510672
O   O6        1.0  0.68566  0.70074  0.93709  1.0000 -0.5312510672
O   O7        1.0  0.29926  0.31434  0.43709  1.0000 -0.5312510672
O   O8        1.0  0.31434  0.29926  0.06291  1.0000 -0.5312510672
O   O9        1.0  0.55520  0.43220  0.55197  1.0000 -0.5409076057
O   O10       1.0  0.43220  0.55520  0.94803  1.0000 -0.5409076057
O   O11       1.0  0.44480  0.56780  0.44803  1.0000 -0.5409076057
O   O12       1.0  0.56780  0.44480  0.05197  1.0000 -0.5409076057
O   O13       1.0  0.07002  0.50598  0.79789  1.0000 -0.1396890822
O   O14       1.0  0.50598  0.07002  0.70211  1.0000 -0.1396890822
O   O15       1.0  0.92998  0.49402  0.20211  1.0000 -0.1396890822
O   O16       1.0  0.49402  0.92998  0.29789  1.0000 -0.1396890822
O   O17       1.0  0.51951  0.38529  0.95563  1.0000 -0.5409076057
O   O18       1.0  0.38529  0.51951  0.54437  1.0000 -0.5409076057
O   O19       1.0  0.48049  0.61471  0.04437  1.0000 -0.5409076057
O   O20       1.0  0.61471  0.48049  0.45563  1.0000 -0.5409076057
