# DDEC6 charges by PACMAN v1.1 (https://github.com/mtap-research/PACMAN-charge/)
data_2023[Zn][srs]3[FSR]1
_chemical_formula_sum              "Zn4 H68 C68 N20 O8"
_cell_length_a       9.151
_cell_length_b       14.175
_cell_length_c       22.583
_cell_angle_alpha    90
_cell_angle_beta     90
_cell_angle_gamma    90

_symmetry_space_group_name_H-M    "P 1"
_symmetry_Int_Tables_number       1

loop_
  _symmetry_equiv_pos_as_xyz
  'x, y, z'

loop_
  _atom_site_type_symbol
  _atom_site_label
  _atom_site_symmetry_multiplicity
  _atom_site_fract_x
  _atom_site_fract_y
  _atom_site_fract_z
  _atom_site_occupancy
  _atom_site_charge
Zn  Zn1       1.0  0.17004  0.35958  0.38332  1.0000 0.6528611114
Zn  Zn2       1.0  0.32996  0.64042  0.88332  1.0000 0.6528611114
Zn  Zn3       1.0  0.82996  0.85958  0.11668  1.0000 0.6528611114
Zn  Zn4       1.0  0.67004  0.14042  0.61668  1.0000 0.6528611114
H   H1        1.0  0.30765  0.27625  0.47065  1.0000 0.1275122084
H   H2        1.0  0.19235  0.72375  0.97065  1.0000 0.1275122084
H   H3        1.0  0.69235  0.77625  0.02935  1.0000 0.1275122084
H   H4        1.0  0.80765  0.22375  0.52935  1.0000 0.1275122084
H   H5        1.0  0.44047  0.01196  0.43213  1.0000 0.147856318
H   H6        1.0  0.05953  0.98804  0.93213  1.0000 0.147856318
H   H7        1.0  0.55953  0.51196  0.06787  1.0000 0.147856318
H   H8        1.0  0.94047  0.48804  0.56787  1.0000 0.147856318
H   H9        1.0  0.46172  0.27526  0.55334  1.0000 0.1196816686
H   H10       1.0  0.03828  0.72474  0.05334  1.0000 0.1196816686
H   H11       1.0  0.53828  0.77526  0.94666  1.0000 0.1196816686
H   H12       1.0  0.96172  0.22474  0.44666  1.0000 0.1196816686
H   H13       1.0  0.84950  0.05202  0.15817  1.0000 0.1196816686
H   H14       1.0  0.65050  0.94798  0.65817  1.0000 0.1196816686
H   H15       1.0  0.15050  0.55202  0.34183  1.0000 0.1196816686
H   H16       1.0  0.34950  0.44798  0.84183  1.0000 0.1196816686
H   H17       1.0  0.15169  0.91371  0.29544  1.0000 0.147856318
H   H18       1.0  0.34831  0.08629  0.79544  1.0000 0.147856318
H   H19       1.0  0.84831  0.41371  0.20456  1.0000 0.147856318
H   H20       1.0  0.65169  0.58629  0.70456  1.0000 0.147856318
H   H21       1.0  0.58383  0.01298  0.51628  1.0000 0.1196816686
H   H22       1.0  0.91617  0.98702  0.01628  1.0000 0.1196816686
H   H23       1.0  0.41617  0.51298  0.98372  1.0000 0.1196816686
H   H24       1.0  0.08383  0.48702  0.48372  1.0000 0.1196816686
H   H25       1.0  0.04215  0.82444  0.21962  1.0000 0.1100412538
H   H26       1.0  0.45785  0.17556  0.71962  1.0000 0.1100412538
H   H27       1.0  0.95785  0.32444  0.28038  1.0000 0.1100412538
H   H28       1.0  0.54215  0.67556  0.78038  1.0000 0.1100412538
H   H29       1.0  0.96528  0.14955  0.22548  1.0000 0.147856318
H   H30       1.0  0.53472  0.85045  0.72548  1.0000 0.147856318
H   H31       1.0  0.03472  0.64955  0.27452  1.0000 0.147856318
H   H32       1.0  0.46528  0.35045  0.77452  1.0000 0.147856318
H   H33       1.0  0.45091  0.63131  0.37355  1.0000 0.1100412538
H   H34       1.0  0.04909  0.36869  0.87355  1.0000 0.1100412538
H   H35       1.0  0.54909  0.13131  0.12645  1.0000 0.1100412538
H   H36       1.0  0.95091  0.86869  0.62645  1.0000 0.1100412538
H   H37       1.0  0.43535  0.60812  0.44262  1.0000 0.1196816686
H   H38       1.0  0.06465  0.39188  0.94262  1.0000 0.1196816686
H   H39       1.0  0.56465  0.10812  0.05738  1.0000 0.1196816686
H   H40       1.0  0.93535  0.89188  0.55738  1.0000 0.1196816686
H   H41       1.0  0.58660  0.64758  0.41708  1.0000 0.1196816686
H   H42       1.0  0.91340  0.35242  0.91708  1.0000 0.1196816686
H   H43       1.0  0.41340  0.14758  0.08292  1.0000 0.1196816686
H   H44       1.0  0.08660  0.85242  0.58292  1.0000 0.1196816686
H   H45       1.0  0.56705  0.46599  0.48215  1.0000 0.1358886479
H   H46       1.0  0.93295  0.53401  0.98215  1.0000 0.1358886479
H   H47       1.0  0.43295  0.96599  0.01785  1.0000 0.1358886479
H   H48       1.0  0.06705  0.03401  0.51785  1.0000 0.1358886479
H   H49       1.0  0.65680  0.40061  0.43726  1.0000 0.1275122084
H   H50       1.0  0.84320  0.59939  0.93726  1.0000 0.1275122084
H   H51       1.0  0.34320  0.90061  0.06274  1.0000 0.1275122084
H   H52       1.0  0.15680  0.09939  0.56274  1.0000 0.1275122084
H   H53       1.0  0.71894  0.50213  0.45533  1.0000 0.1196816686
H   H54       1.0  0.78106  0.49787  0.95533  1.0000 0.1196816686
H   H55       1.0  0.28106  0.00213  0.04467  1.0000 0.1196816686
H   H56       1.0  0.21894  0.99787  0.54467  1.0000 0.1196816686
H   H57       1.0  0.60507  0.53339  0.31153  1.0000 0.1275122084
H   H58       1.0  0.89493  0.46661  0.81153  1.0000 0.1275122084
H   H59       1.0  0.39493  0.03339  0.18847  1.0000 0.1275122084
H   H60       1.0  0.10507  0.96661  0.68847  1.0000 0.1275122084
H   H61       1.0  0.74175  0.54144  0.35545  1.0000 0.1100412538
H   H62       1.0  0.75825  0.45856  0.85545  1.0000 0.1100412538
H   H63       1.0  0.25825  0.04144  0.14455  1.0000 0.1100412538
H   H64       1.0  0.24175  0.95856  0.64455  1.0000 0.1100412538
H   H65       1.0  0.67960  0.43992  0.33737  1.0000 0.1196816686
H   H66       1.0  0.82040  0.56008  0.83737  1.0000 0.1196816686
H   H67       1.0  0.32040  0.93992  0.16263  1.0000 0.1196816686
H   H68       1.0  0.17960  0.06008  0.66263  1.0000 0.1196816686
C   C1        1.0  0.25980  0.14640  0.39010  1.0000 0.2548627486
C   C2        1.0  0.24020  0.85360  0.89010  1.0000 0.2548627486
C   C3        1.0  0.74020  0.64640  0.10990  1.0000 0.2559057107
C   C4        1.0  0.75980  0.35360  0.60990  1.0000 0.2559057107
C   C5        1.0  0.36380  0.22160  0.47940  1.0000 -0.1655650655
C   C6        1.0  0.13620  0.77840  0.97940  1.0000 -0.1655650655
C   C7        1.0  0.63620  0.72160  0.02060  1.0000 -0.1655650655
C   C8        1.0  0.86380  0.27840  0.52060  1.0000 -0.1655650655
C   C9        1.0  0.13780  0.09700  0.31630  1.0000 0.2559057107
C   C10       1.0  0.36220  0.90300  0.81630  1.0000 0.2559057107
C   C11       1.0  0.86220  0.59700  0.18370  1.0000 0.2559057107
C   C12       1.0  0.63780  0.40300  0.68370  1.0000 0.2559057107
C   C13       1.0  0.44100  0.06600  0.45700  1.0000 -0.179191993
C   C14       1.0  0.05900  0.93400  0.95700  1.0000 -0.179191993
C   C15       1.0  0.55900  0.56600  0.04300  1.0000 -0.179191993
C   C16       1.0  0.94100  0.43400  0.54300  1.0000 -0.179191993
C   C17       1.0  0.35580  0.14410  0.44270  1.0000 0.0996170608
C   C18       1.0  0.14420  0.85590  0.94270  1.0000 0.0996170608
C   C19       1.0  0.64420  0.64410  0.05730  1.0000 0.0996170608
C   C20       1.0  0.85580  0.35590  0.55730  1.0000 0.0996170608
C   C21       1.0  0.45350  0.22050  0.52930  1.0000 0.0397796338
C   C22       1.0  0.04650  0.77950  0.02930  1.0000 0.0397796338
C   C23       1.0  0.54650  0.72050  0.97070  1.0000 0.0397796338
C   C24       1.0  0.95350  0.27950  0.47070  1.0000 0.0397796338
C   C25       1.0  0.91450  0.02410  0.18590  1.0000 0.0841064235
C   C26       1.0  0.58550  0.97590  0.68590  1.0000 0.0841064235
C   C27       1.0  0.08550  0.52410  0.31410  1.0000 0.0841064235
C   C28       1.0  0.41450  0.47590  0.81410  1.0000 0.0841064235
C   C29       1.0  0.07090  0.03980  0.27020  1.0000 0.0928756674
C   C30       1.0  0.42910  0.96020  0.77020  1.0000 0.0928756674
C   C31       1.0  0.92910  0.53980  0.22980  1.0000 0.0928756674
C   C32       1.0  0.57090  0.46020  0.72980  1.0000 0.0928756674
C   C33       1.0  0.09150  0.94420  0.26700  1.0000 -0.1554890493
C   C34       1.0  0.40850  0.05580  0.76700  1.0000 -0.1554890493
C   C35       1.0  0.90850  0.44420  0.23300  1.0000 -0.1554890493
C   C36       1.0  0.59150  0.55580  0.73300  1.0000 -0.1554890493
C   C37       1.0  0.42230  0.44290  0.38430  1.0000 0.5452240338
C   C38       1.0  0.07770  0.55710  0.88430  1.0000 0.5452240338
C   C39       1.0  0.57770  0.94290  0.11570  1.0000 0.5452240338
C   C40       1.0  0.92230  0.05710  0.61570  1.0000 0.5452240338
C   C41       1.0  0.52640  0.06710  0.50760  1.0000 0.0996170608
C   C42       1.0  0.97360  0.93290  0.00760  1.0000 0.0996170608
C   C43       1.0  0.47360  0.56710  0.99240  1.0000 0.0996170608
C   C44       1.0  0.02640  0.43290  0.49240  1.0000 0.0996170608
C   C45       1.0  0.02420  0.89030  0.22200  1.0000 0.0737841358
C   C46       1.0  0.47580  0.10970  0.72200  1.0000 0.0737841358
C   C47       1.0  0.97580  0.39030  0.27800  1.0000 0.0737841358
C   C48       1.0  0.52420  0.60970  0.77800  1.0000 0.0737841358
C   C49       1.0  0.97990  0.08320  0.22650  1.0000 -0.179191993
C   C50       1.0  0.52010  0.91680  0.72650  1.0000 -0.179191993
C   C51       1.0  0.02010  0.58320  0.27350  1.0000 -0.179191993
C   C52       1.0  0.47990  0.41680  0.77350  1.0000 -0.179191993
C   C53       1.0  0.55260  0.50800  0.39740  1.0000 0.1587143769
C   C54       1.0  0.94740  0.49200  0.89740  1.0000 0.1587143769
C   C55       1.0  0.44740  0.00800  0.10260  1.0000 0.1587143769
C   C56       1.0  0.05260  0.99200  0.60260  1.0000 0.1587143769
C   C57       1.0  0.50190  0.60740  0.40860  1.0000 -0.4290648828
C   C58       1.0  0.99810  0.39260  0.90860  1.0000 -0.4290648828
C   C59       1.0  0.49810  0.10740  0.09140  1.0000 -0.4290648828
C   C60       1.0  0.00190  0.89260  0.59140  1.0000 -0.4290648828
C   C61       1.0  0.63020  0.46570  0.44710  1.0000 -0.4565890948
C   C62       1.0  0.86980  0.53430  0.94710  1.0000 -0.4565890948
C   C63       1.0  0.36980  0.96570  0.05290  1.0000 -0.4565890948
C   C64       1.0  0.13020  0.03430  0.55290  1.0000 -0.4565890948
C   C65       1.0  0.65330  0.50550  0.34610  1.0000 -0.435117043
C   C66       1.0  0.84670  0.49450  0.84610  1.0000 -0.4290648828
C   C67       1.0  0.34670  0.00550  0.15390  1.0000 -0.4290648828
C   C68       1.0  0.15330  0.99450  0.65390  1.0000 -0.435117043
N   N1        1.0  0.19130  0.21900  0.36790  1.0000 -0.2404321799
N   N2        1.0  0.30870  0.78100  0.86790  1.0000 -0.2404321799
N   N3        1.0  0.80870  0.71900  0.13210  1.0000 -0.2404321799
N   N4        1.0  0.69130  0.28100  0.63210  1.0000 -0.2404321799
N   N5        1.0  0.11000  0.18880  0.32160  1.0000 -0.2775786886
N   N6        1.0  0.39000  0.81120  0.82160  1.0000 -0.2775786886
N   N7        1.0  0.89000  0.68880  0.17840  1.0000 -0.2775786886
N   N8        1.0  0.61000  0.31120  0.67840  1.0000 -0.2775786886
N   N9        1.0  0.23130  0.06550  0.35770  1.0000 -0.4290648828
N   N10       1.0  0.26870  0.93450  0.85770  1.0000 -0.4290648828
N   N11       1.0  0.76870  0.56550  0.14230  1.0000 -0.4290648828
N   N12       1.0  0.73130  0.43450  0.64230  1.0000 -0.4290648828
N   N13       1.0  0.53210  0.13830  0.54400  1.0000 -0.2344066123
N   N14       1.0  0.96790  0.86170  0.04400  1.0000 -0.2344066123
N   N15       1.0  0.46790  0.63830  0.95600  1.0000 -0.2344066123
N   N16       1.0  0.03210  0.36170  0.45600  1.0000 -0.2344066123
N   N17       1.0  0.93460  0.93180  0.18220  1.0000 -0.2148088137
N   N18       1.0  0.56540  0.06820  0.68220  1.0000 -0.21514783
N   N19       1.0  0.06540  0.43180  0.31780  1.0000 -0.21514783
N   N20       1.0  0.43460  0.56820  0.81780  1.0000 -0.21514783
O   O1        1.0  0.31120  0.44730  0.41930  1.0000 -0.5617342362
O   O2        1.0  0.18880  0.55270  0.91930  1.0000 -0.5617342362
O   O3        1.0  0.68880  0.94730  0.08070  1.0000 -0.5617342362
O   O4        1.0  0.81120  0.05270  0.58070  1.0000 -0.5617342362
O   O5        1.0  0.41820  0.39480  0.33880  1.0000 -0.5322963963
O   O6        1.0  0.08180  0.60520  0.83880  1.0000 -0.5322963963
O   O7        1.0  0.58180  0.89480  0.16120  1.0000 -0.5322963963
O   O8        1.0  0.91820  0.10520  0.66120  1.0000 -0.5322963963
