# DDEC6 charges by PACMAN v1.1 (https://github.com/mtap-research/PACMAN-charge/)
data_0000[Zn][sql]2[ASR]1
_chemical_formula_sum              "Zn4 H44 C72 N28 O24"
_cell_length_a       13.9325
_cell_length_b       13.9325
_cell_length_c       14.412
_cell_angle_alpha    86.9831
_cell_angle_beta     93.0169
_cell_angle_gamma    133.489

_symmetry_space_group_name_H-M    "P 1"
_symmetry_Int_Tables_number       1

loop_
  _symmetry_equiv_pos_as_xyz
  'x, y, z'

loop_
  _atom_site_type_symbol
  _atom_site_label
  _atom_site_symmetry_multiplicity
  _atom_site_fract_x
  _atom_site_fract_y
  _atom_site_fract_z
  _atom_site_occupancy
  _atom_site_charge
Zn  Zn1       1.0  0.81074  0.20816  0.73269  1.0000 0.7612973203
Zn  Zn2       1.0  0.20816  0.81074  0.76731  1.0000 0.7612973203
Zn  Zn3       1.0  0.18926  0.79184  0.26731  1.0000 0.7612973203
Zn  Zn4       1.0  0.79184  0.18926  0.23269  1.0000 0.7612973203
H   H1        1.0  0.53784  0.95558  0.64819  1.0000 0.1322802877
H   H2        1.0  0.73112  0.99570  0.43407  1.0000 0.1322802877
H   H3        1.0  0.56146  0.74742  0.45336  1.0000 0.1213599869
H   H4        1.0  0.36606  0.53642  0.40659  1.0000 0.1213599869
H   H5        1.0  0.15092  0.61404  0.48506  1.0000 0.138645505
H   H6        1.0  0.34644  0.82660  0.52927  1.0000 0.1213599869
H   H7        1.0  0.15221  0.30519  0.44074  1.0000 0.1213599869
H   H8        1.0  0.01352  0.46374  0.34714  1.0000 0.1322802877
H   H9        1.0  0.76268  0.49380  0.78515  1.0000 0.1213599869
H   H10       1.0  0.43706  0.41196  0.86337  1.0000 0.1322802877
H   H11       1.0  0.31072  0.18604  0.84594  1.0000 0.1322802877
H   H12       1.0  0.95558  0.53784  0.85181  1.0000 0.1322802877
H   H13       1.0  0.99570  0.73112  0.06593  1.0000 0.1322802877
H   H14       1.0  0.74742  0.56146  0.04664  1.0000 0.1213599869
H   H15       1.0  0.53642  0.36606  0.09341  1.0000 0.1213599869
H   H16       1.0  0.61404  0.15092  0.01494  1.0000 0.138645505
H   H17       1.0  0.82660  0.34644  0.97073  1.0000 0.1213599869
H   H18       1.0  0.30519  0.15221  0.05926  1.0000 0.1213599869
H   H19       1.0  0.46374  0.01352  0.15286  1.0000 0.1322802877
H   H20       1.0  0.49380  0.76268  0.71485  1.0000 0.1213599869
H   H21       1.0  0.41196  0.43706  0.63663  1.0000 0.1322802877
H   H22       1.0  0.18604  0.31072  0.65406  1.0000 0.1322802877
H   H23       1.0  0.46216  0.04442  0.35181  1.0000 0.1322802877
H   H24       1.0  0.26888  0.00430  0.56593  1.0000 0.1322802877
H   H25       1.0  0.43854  0.25258  0.54664  1.0000 0.1213599869
H   H26       1.0  0.63394  0.46358  0.59341  1.0000 0.1213599869
H   H27       1.0  0.84908  0.38596  0.51494  1.0000 0.138645505
H   H28       1.0  0.65356  0.17340  0.47073  1.0000 0.1213599869
H   H29       1.0  0.84779  0.69481  0.55926  1.0000 0.1213599869
H   H30       1.0  0.98648  0.53626  0.65286  1.0000 0.1322802877
H   H31       1.0  0.23732  0.50620  0.21485  1.0000 0.1213599869
H   H32       1.0  0.56294  0.58804  0.13663  1.0000 0.1322802877
H   H33       1.0  0.68928  0.81396  0.15406  1.0000 0.1322802877
H   H34       1.0  0.04442  0.46216  0.14819  1.0000 0.1322802877
H   H35       1.0  0.00430  0.26888  0.93407  1.0000 0.1322802877
H   H36       1.0  0.25258  0.43854  0.95336  1.0000 0.1213599869
H   H37       1.0  0.46358  0.63394  0.90659  1.0000 0.1213599869
H   H38       1.0  0.38596  0.84908  0.98506  1.0000 0.138645505
H   H39       1.0  0.17340  0.65356  0.02927  1.0000 0.1213599869
H   H40       1.0  0.69481  0.84779  0.94074  1.0000 0.1213599869
H   H41       1.0  0.53626  0.98648  0.84714  1.0000 0.1322802877
H   H42       1.0  0.50620  0.23732  0.28515  1.0000 0.1213599869
H   H43       1.0  0.58804  0.56294  0.36337  1.0000 0.1322802877
H   H44       1.0  0.81396  0.68928  0.34594  1.0000 0.1322802877
C   C1        1.0  0.60615  0.98805  0.60690  1.0000 0.0971775465
C   C2        1.0  0.71187  0.01053  0.49090  1.0000 0.0971775465
C   C3        1.0  0.46936  0.80424  0.49552  1.0000 0.1580403777
C   C4        1.0  0.47794  0.72006  0.45930  1.0000 -0.1622431079
C   C5        1.0  0.36261  0.59559  0.43190  1.0000 -0.165227207
C   C6        1.0  0.24308  0.55832  0.44150  1.0000 0.1580403777
C   C7        1.0  0.23459  0.64201  0.47821  1.0000 -0.136283428
C   C8        1.0  0.34992  0.76708  0.50480  1.0000 -0.145228325
C   C9        1.0  0.09790  0.31630  0.41080  1.0000 0.0971775465
C   C10       1.0  0.02332  0.40328  0.36020  1.0000 0.1213599869
C   C11       1.0  0.65950  0.24970  0.75752  1.0000 0.5452795973
C   C12       1.0  0.59690  0.29630  0.78904  1.0000 -0.0347970301
C   C13       1.0  0.67106  0.43034  0.79830  1.0000 -0.165227207
C   C14       1.0  0.61077  0.47043  0.82680  1.0000 0.0650376728
C   C15       1.0  0.47688  0.38192  0.84470  1.0000 -0.136283428
C   C16       1.0  0.40293  0.24867  0.83460  1.0000 -0.1239980111
C   C17       1.0  0.46217  0.20543  0.80820  1.0000 0.0034316609
C   C18       1.0  0.37957  0.05883  0.80710  1.0000 0.5724085917
C   C19       1.0  0.98805  0.60615  0.89310  1.0000 0.0971775465
C   C20       1.0  0.01053  0.71187  0.00910  1.0000 0.0971775465
C   C21       1.0  0.80424  0.46936  0.00448  1.0000 0.1580403777
C   C22       1.0  0.72006  0.47794  0.04070  1.0000 -0.1622431079
C   C23       1.0  0.59559  0.36261  0.06810  1.0000 -0.165227207
C   C24       1.0  0.55832  0.24308  0.05850  1.0000 0.1580403777
C   C25       1.0  0.64201  0.23459  0.02179  1.0000 -0.136283428
C   C26       1.0  0.76708  0.34992  0.99520  1.0000 -0.145228325
C   C27       1.0  0.31630  0.09790  0.08920  1.0000 0.0971775465
C   C28       1.0  0.40328  0.02332  0.13980  1.0000 0.1213599869
C   C29       1.0  0.24970  0.65950  0.74248  1.0000 0.5452795973
C   C30       1.0  0.29630  0.59690  0.71096  1.0000 -0.0347970301
C   C31       1.0  0.43034  0.67106  0.70170  1.0000 -0.165227207
C   C32       1.0  0.47043  0.61077  0.67320  1.0000 0.0650376728
C   C33       1.0  0.38192  0.47688  0.65530  1.0000 -0.136283428
C   C34       1.0  0.24867  0.40293  0.66540  1.0000 -0.1239980111
C   C35       1.0  0.20543  0.46217  0.69180  1.0000 0.0034316609
C   C36       1.0  0.05883  0.37957  0.69290  1.0000 0.5724085917
C   C37       1.0  0.39385  0.01195  0.39310  1.0000 0.0971775465
C   C38       1.0  0.28813  0.98947  0.50910  1.0000 0.0971775465
C   C39       1.0  0.53064  0.19576  0.50448  1.0000 0.1580403777
C   C40       1.0  0.52206  0.27994  0.54070  1.0000 -0.1622431079
C   C41       1.0  0.63739  0.40441  0.56810  1.0000 -0.165227207
C   C42       1.0  0.75692  0.44168  0.55850  1.0000 0.1580403777
C   C43       1.0  0.76541  0.35799  0.52179  1.0000 -0.136283428
C   C44       1.0  0.65008  0.23292  0.49520  1.0000 -0.145228325
C   C45       1.0  0.90210  0.68370  0.58920  1.0000 0.0971775465
C   C46       1.0  0.97668  0.59672  0.63980  1.0000 0.1213599869
C   C47       1.0  0.34050  0.75030  0.24248  1.0000 0.5452795973
C   C48       1.0  0.40310  0.70370  0.21096  1.0000 -0.0347970301
C   C49       1.0  0.32894  0.56966  0.20170  1.0000 -0.165227207
C   C50       1.0  0.38923  0.52957  0.17320  1.0000 0.0650376728
C   C51       1.0  0.52312  0.61808  0.15530  1.0000 -0.136283428
C   C52       1.0  0.59707  0.75133  0.16540  1.0000 -0.1239980111
C   C53       1.0  0.53783  0.79457  0.19180  1.0000 0.0034316609
C   C54       1.0  0.62043  0.94117  0.19290  1.0000 0.5724085917
C   C55       1.0  0.01195  0.39385  0.10690  1.0000 0.0971775465
C   C56       1.0  0.98947  0.28813  0.99090  1.0000 0.0971775465
C   C57       1.0  0.19576  0.53064  0.99552  1.0000 0.1580403777
C   C58       1.0  0.27994  0.52206  0.95930  1.0000 -0.1622431079
C   C59       1.0  0.40441  0.63739  0.93190  1.0000 -0.165227207
C   C60       1.0  0.44168  0.75692  0.94150  1.0000 0.1580403777
C   C61       1.0  0.35799  0.76541  0.97821  1.0000 -0.136283428
C   C62       1.0  0.23292  0.65008  0.00480  1.0000 -0.145228325
C   C63       1.0  0.68370  0.90210  0.91080  1.0000 0.0971775465
C   C64       1.0  0.59672  0.97668  0.86020  1.0000 0.1213599869
C   C65       1.0  0.75030  0.34050  0.25752  1.0000 0.5452795973
C   C66       1.0  0.70370  0.40310  0.28904  1.0000 -0.0347970301
C   C67       1.0  0.56966  0.32894  0.29830  1.0000 -0.165227207
C   C68       1.0  0.52957  0.38923  0.32680  1.0000 0.0650376728
C   C69       1.0  0.61808  0.52312  0.34470  1.0000 -0.136283428
C   C70       1.0  0.75133  0.59707  0.33460  1.0000 -0.1239980111
C   C71       1.0  0.79457  0.53783  0.30820  1.0000 0.0034316609
C   C72       1.0  0.94117  0.62043  0.30710  1.0000 0.5724085917
N   N1        1.0  0.73090  0.09470  0.61867  1.0000 -0.1788900804
N   N2        1.0  0.79977  0.11003  0.54460  1.0000 -0.1788900804
N   N3        1.0  0.58888  0.93072  0.52698  1.0000 -0.0216445272
N   N4        1.0  0.94102  0.28098  0.33360  1.0000 -0.1906357357
N   N5        1.0  0.98833  0.22447  0.36607  1.0000 -0.1788900804
N   N6        1.0  0.12505  0.43075  0.40934  1.0000 -0.0216445272
N   N7        1.0  0.69196  0.61104  0.84090  1.0000 0.4982570162
N   N8        1.0  0.09470  0.73090  0.88133  1.0000 -0.1788900804
N   N9        1.0  0.11003  0.79977  0.95540  1.0000 -0.1788900804
N   N10       1.0  0.93072  0.58888  0.97302  1.0000 -0.0216445272
N   N11       1.0  0.28098  0.94102  0.16640  1.0000 -0.1906357357
N   N12       1.0  0.22447  0.98833  0.13393  1.0000 -0.1788900804
N   N13       1.0  0.43075  0.12505  0.09066  1.0000 -0.0216445272
N   N14       1.0  0.61104  0.69196  0.65910  1.0000 0.4982570162
N   N15       1.0  0.26910  0.90530  0.38133  1.0000 -0.1788900804
N   N16       1.0  0.20023  0.88997  0.45540  1.0000 -0.1788900804
N   N17       1.0  0.41112  0.06928  0.47302  1.0000 -0.0216445272
N   N18       1.0  0.05898  0.71902  0.66640  1.0000 -0.1906357357
N   N19       1.0  0.01167  0.77553  0.63393  1.0000 -0.1788900804
N   N20       1.0  0.87495  0.56925  0.59066  1.0000 -0.0216445272
N   N21       1.0  0.30804  0.38896  0.15910  1.0000 0.4982570162
N   N22       1.0  0.90530  0.26910  0.11867  1.0000 -0.1788900804
N   N23       1.0  0.88997  0.20023  0.04460  1.0000 -0.1788900804
N   N24       1.0  0.06928  0.41112  0.02698  1.0000 -0.0216445272
N   N25       1.0  0.71902  0.05898  0.83360  1.0000 -0.1906357357
N   N26       1.0  0.77553  0.01167  0.86607  1.0000 -0.1788900804
N   N27       1.0  0.56925  0.87495  0.90934  1.0000 -0.0216445272
N   N28       1.0  0.38896  0.30804  0.34090  1.0000 0.4982570162
O   O1        1.0  0.78510  0.32626  0.76846  1.0000 -0.5368927369
O   O2        1.0  0.58836  0.13904  0.72357  1.0000 -0.5144276867
O   O3        1.0  0.29032  0.99508  0.74283  1.0000 -0.5278197298
O   O4        1.0  0.39522  0.00628  0.86881  1.0000 -0.5278197298
O   O5        1.0  0.63655  0.64885  0.85600  1.0000 -0.3392339298
O   O6        1.0  0.81188  0.68472  0.83760  1.0000 -0.2977464149
O   O7        1.0  0.32626  0.78510  0.73154  1.0000 -0.5368927369
O   O8        1.0  0.13904  0.58836  0.77643  1.0000 -0.5144276867
O   O9        1.0  0.99508  0.29032  0.75717  1.0000 -0.5247652182
O   O10       1.0  0.00628  0.39522  0.63119  1.0000 -0.5278197298
O   O11       1.0  0.64885  0.63655  0.64400  1.0000 -0.3392339298
O   O12       1.0  0.68472  0.81188  0.66240  1.0000 -0.2977464149
O   O13       1.0  0.21490  0.67374  0.23154  1.0000 -0.5368927369
O   O14       1.0  0.41164  0.86096  0.27643  1.0000 -0.5144276867
O   O15       1.0  0.70968  0.00492  0.25717  1.0000 -0.5247652182
O   O16       1.0  0.60478  0.99372  0.13119  1.0000 -0.5278197298
O   O17       1.0  0.36345  0.35115  0.14400  1.0000 -0.3392339298
O   O18       1.0  0.18812  0.31528  0.16240  1.0000 -0.2977464149
O   O19       1.0  0.67374  0.21490  0.26846  1.0000 -0.5368927369
O   O20       1.0  0.86096  0.41164  0.22357  1.0000 -0.5144276867
O   O21       1.0  0.00492  0.70968  0.24283  1.0000 -0.5247652182
O   O22       1.0  0.99372  0.60478  0.36881  1.0000 -0.5278197298
O   O23       1.0  0.35115  0.36345  0.35600  1.0000 -0.3392339298
O   O24       1.0  0.31528  0.18812  0.33760  1.0000 -0.2977464149
