# DDEC6 charges by PACMAN v1.1 (https://github.com/mtap-research/PACMAN-charge/)
data_0000[Cd][fsc]3[ASR]1
_chemical_formula_sum              "Cd1 H14 C24 N12 O8"
_cell_length_a       7.9013
_cell_length_b       10.4432
_cell_length_c       12.1454
_cell_angle_alpha    103.007
_cell_angle_beta     99.914
_cell_angle_gamma    100.085

_symmetry_space_group_name_H-M    "P 1"
_symmetry_Int_Tables_number       1

loop_
  _symmetry_equiv_pos_as_xyz
  'x, y, z'

loop_
  _atom_site_type_symbol
  _atom_site_label
  _atom_site_symmetry_multiplicity
  _atom_site_fract_x
  _atom_site_fract_y
  _atom_site_fract_z
  _atom_site_occupancy
  _atom_site_charge
Cd  Cd1       1.0  0.50000  0.50000  0.50000  1.0000 0.8128563983
H   H1        1.0  0.94515  0.20320  0.29284  1.0000 0.3493192119
H   H2        1.0  0.05485  0.79680  0.70716  1.0000 0.3493192119
H   H3        1.0  0.27718  0.00026  0.46004  1.0000 0.1445464266
H   H4        1.0  0.72282  0.99974  0.53996  1.0000 0.1445464266
H   H5        1.0  0.36306  0.79439  0.55658  1.0000 0.1200274972
H   H6        1.0  0.63694  0.20561  0.44342  1.0000 0.1200274972
H   H7        1.0  0.06902  0.46914  0.33901  1.0000 0.1200274972
H   H8        1.0  0.93098  0.53086  0.66099  1.0000 0.1200274972
H   H9        1.0  0.70524  0.53175  0.28291  1.0000 0.1106492999
H   H10       1.0  0.29476  0.46825  0.71709  1.0000 0.1106492999
H   H11       1.0  0.34796  0.21465  0.25546  1.0000 0.1306397142
H   H12       1.0  0.65204  0.78535  0.74454  1.0000 0.1306397142
H   H13       1.0  0.74622  0.91304  0.97517  1.0000 0.1504239512
H   H14       1.0  0.25378  0.08696  0.02483  1.0000 0.1504239512
C   C1        1.0  0.21200  0.24395  0.47234  1.0000 0.565684281
C   C2        1.0  0.78800  0.75605  0.52766  1.0000 0.565684281
C   C3        1.0  0.05960  0.88362  0.48151  1.0000 0.1200274972
C   C4        1.0  0.94040  0.11638  0.51849  1.0000 0.1200274972
C   C5        1.0  0.10620  0.12006  0.49372  1.0000 -0.0481889288
C   C6        1.0  0.89380  0.87994  0.50628  1.0000 -0.0481889288
C   C7        1.0  0.16620  0.00091  0.47578  1.0000 -0.1919868964
C   C8        1.0  0.83380  0.99909  0.52422  1.0000 -0.1919868964
C   C9        1.0  0.26990  0.73300  0.50230  1.0000 0.1106492999
C   C10       1.0  0.73010  0.26700  0.49770  1.0000 0.1106492999
C   C11       1.0  0.10770  0.55790  0.38380  1.0000 0.1573338134
C   C12       1.0  0.89230  0.44210  0.61620  1.0000 0.1573338134
C   C13       1.0  0.63600  0.44460  0.25660  1.0000 0.1504239512
C   C14       1.0  0.36400  0.55540  0.74340  1.0000 0.1504239512
C   C15       1.0  0.44120  0.27430  0.24390  1.0000 0.1106492999
C   C16       1.0  0.55880  0.72570  0.75610  1.0000 0.1106492999
C   C17       1.0  0.64820  0.94830  0.98580  1.0000 -0.1734791326
C   C18       1.0  0.35180  0.05170  0.01420  1.0000 -0.1734791326
C   C19       1.0  0.84870  0.13030  0.14580  1.0000 0.5549810154
C   C20       1.0  0.15130  0.86970  0.85420  1.0000 0.5549810154
C   C21       1.0  0.51780  0.11900  0.08184  1.0000 0.1200274972
C   C22       1.0  0.48220  0.88100  0.91816  1.0000 0.1200274972
C   C23       1.0  0.66730  0.06850  0.06934  1.0000 -0.060931124
C   C24       1.0  0.33270  0.93150  0.93066  1.0000 -0.060931124
N   N1        1.0  0.11920  0.76073  0.45744  1.0000 0.1306397142
N   N2        1.0  0.88080  0.23927  0.54256  1.0000 0.1306397142
N   N3        1.0  0.26710  0.60418  0.45771  1.0000 -0.3001950162
N   N4        1.0  0.73290  0.39582  0.54229  1.0000 -0.3001950162
N   N5        1.0  0.01210  0.64838  0.38050  1.0000 -0.2360470819
N   N6        1.0  0.98790  0.35162  0.61950  1.0000 -0.2360470819
N   N7        1.0  0.50220  0.40096  0.30545  1.0000 -0.3186222839
N   N8        1.0  0.49780  0.59904  0.69455  1.0000 -0.3186222839
N   N9        1.0  0.53250  0.24470  0.16300  1.0000 0.1306397142
N   N10       1.0  0.46750  0.75530  0.83700  1.0000 0.1306397142
N   N11       1.0  0.66030  0.35460  0.16964  1.0000 -0.2495640295
N   N12       1.0  0.33970  0.64540  0.83036  1.0000 -0.2495640295
O   O1        1.0  0.35769  0.30041  0.53727  1.0000 -0.5334699529
O   O2        1.0  0.64231  0.69959  0.46273  1.0000 -0.5334699529
O   O3        1.0  0.14630  0.27908  0.38555  1.0000 -0.5627768415
O   O4        1.0  0.85370  0.72092  0.61445  1.0000 -0.5627768415
O   O5        1.0  0.84700  0.16100  0.25519  1.0000 -0.5068104344
O   O6        1.0  0.15300  0.83900  0.74481  1.0000 -0.5068104344
O   O7        1.0  0.97850  0.14260  0.10630  1.0000 -0.5010461586
O   O8        1.0  0.02150  0.85740  0.89370  1.0000 -0.5010461586
