# DDEC6 charges by PACMAN v1.1 (https://github.com/mtap-research/PACMAN-charge/)
data_0000[Co][pcu]3[ASR]2
_chemical_formula_sum              "Co4 H48 C60 N8 O16"
_cell_length_a       8.287
_cell_length_b       14.726
_cell_length_c       14.224
_cell_angle_alpha    90
_cell_angle_beta     99.696
_cell_angle_gamma    90

_symmetry_space_group_name_H-M    "P 1"
_symmetry_Int_Tables_number       1

loop_
  _symmetry_equiv_pos_as_xyz
  'x, y, z'

loop_
  _atom_site_type_symbol
  _atom_site_label
  _atom_site_symmetry_multiplicity
  _atom_site_fract_x
  _atom_site_fract_y
  _atom_site_fract_z
  _atom_site_occupancy
  _atom_site_charge
Co  Co1       1.0  0.90593  0.08256  0.11991  1.0000 0.8494958307
Co  Co2       1.0  0.59407  0.58256  0.88009  1.0000 0.8494958307
Co  Co3       1.0  0.09407  0.91744  0.88009  1.0000 0.8494958307
Co  Co4       1.0  0.40593  0.41744  0.11991  1.0000 0.8494958307
H   H1        1.0  0.49570  0.30200  0.83870  1.0000 0.1213287191
H   H2        1.0  0.00430  0.80200  0.16130  1.0000 0.1213287191
H   H3        1.0  0.50430  0.69800  0.16130  1.0000 0.1213287191
H   H4        1.0  0.99570  0.19800  0.83870  1.0000 0.1213287191
H   H5        1.0  0.65580  0.05610  0.92330  1.0000 0.1253120031
H   H6        1.0  0.84420  0.55610  0.07670  1.0000 0.1253120031
H   H7        1.0  0.34420  0.94390  0.07670  1.0000 0.1253120031
H   H8        1.0  0.15580  0.44390  0.92330  1.0000 0.1253120031
H   H9        1.0  0.50530  0.07370  0.76460  1.0000 0.1025949565
H   H10       1.0  0.99470  0.57370  0.23540  1.0000 0.1025949565
H   H11       1.0  0.49470  0.92630  0.23540  1.0000 0.1025949565
H   H12       1.0  0.00530  0.42630  0.76460  1.0000 0.1025949565
H   H13       1.0  0.35040  0.11140  0.80090  1.0000 0.1106536399
H   H14       1.0  0.14960  0.61140  0.19910  1.0000 0.1106536399
H   H15       1.0  0.64960  0.88860  0.19910  1.0000 0.1106536399
H   H16       1.0  0.85040  0.38860  0.80090  1.0000 0.1106536399
H   H17       1.0  0.35240  0.23590  0.70890  1.0000 0.1106536399
H   H18       1.0  0.14760  0.73590  0.29110  1.0000 0.1106536399
H   H19       1.0  0.64760  0.76410  0.29110  1.0000 0.1106536399
H   H20       1.0  0.85240  0.26410  0.70890  1.0000 0.1106536399
H   H21       1.0  0.34880  0.14810  0.64630  1.0000 0.1106536399
H   H22       1.0  0.15120  0.64810  0.35370  1.0000 0.1106536399
H   H23       1.0  0.65120  0.85190  0.35370  1.0000 0.1106536399
H   H24       1.0  0.84880  0.35190  0.64630  1.0000 0.1106536399
H   H25       1.0  0.51270  0.20210  0.67510  1.0000 0.1106536399
H   H26       1.0  0.98730  0.70210  0.32490  1.0000 0.1106536399
H   H27       1.0  0.48730  0.79790  0.32490  1.0000 0.1106536399
H   H28       1.0  0.01270  0.29790  0.67510  1.0000 0.1106536399
H   H29       1.0  0.24660  0.10960  0.20760  1.0000 0.1213287191
H   H30       1.0  0.25340  0.60960  0.79240  1.0000 0.1213287191
H   H31       1.0  0.75340  0.89040  0.79240  1.0000 0.1213287191
H   H32       1.0  0.74660  0.39040  0.20760  1.0000 0.1213287191
H   H33       1.0  0.44270  0.08080  0.33610  1.0000 0.1406268752
H   H34       1.0  0.05730  0.58080  0.66390  1.0000 0.1406268752
H   H35       1.0  0.55730  0.91920  0.66390  1.0000 0.1406268752
H   H36       1.0  0.94270  0.41920  0.33610  1.0000 0.1406268752
H   H37       1.0  0.11840  0.92970  0.44150  1.0000 0.1406268752
H   H38       1.0  0.38160  0.42970  0.55850  1.0000 0.1406268752
H   H39       1.0  0.88160  0.07030  0.55850  1.0000 0.1406268752
H   H40       1.0  0.61840  0.57030  0.44150  1.0000 0.1406268752
H   H41       1.0  0.93280  0.96020  0.30890  1.0000 0.1106536399
H   H42       1.0  0.56720  0.46020  0.69110  1.0000 0.1106536399
H   H43       1.0  0.06720  0.03980  0.69110  1.0000 0.1106536399
H   H44       1.0  0.43280  0.53980  0.30890  1.0000 0.1106536399
H   H45       1.0  0.39080  0.94770  0.53760  1.0000 0.1213287191
H   H46       1.0  0.10920  0.44770  0.46240  1.0000 0.1213287191
H   H47       1.0  0.60920  0.05230  0.46240  1.0000 0.1213287191
H   H48       1.0  0.89080  0.55230  0.53760  1.0000 0.1213287191
C   C1        1.0  0.89460  0.27681  0.09801  1.0000 0.5257137444
C   C2        1.0  0.60540  0.77681  0.90199  1.0000 0.5257137444
C   C3        1.0  0.10540  0.72319  0.90199  1.0000 0.5257137444
C   C4        1.0  0.39460  0.22319  0.09801  1.0000 0.5257137444
C   C5        1.0  0.76450  0.24426  0.01841  1.0000 0.0611812647
C   C6        1.0  0.73550  0.74426  0.98159  1.0000 0.0611812647
C   C7        1.0  0.23550  0.75574  0.98159  1.0000 0.0611812647
C   C8        1.0  0.26450  0.25574  0.01841  1.0000 0.0611812647
C   C9        1.0  0.66270  0.30205  0.95841  1.0000 -0.0545027174
C   C10       1.0  0.83730  0.80205  0.04159  1.0000 -0.0545027174
C   C11       1.0  0.33730  0.69795  0.04159  1.0000 -0.0545027174
C   C12       1.0  0.16270  0.19795  0.95841  1.0000 -0.0545027174
C   C13       1.0  0.56280  0.26422  0.88087  1.0000 -0.1349795137
C   C14       1.0  0.93720  0.76422  0.11913  1.0000 -0.1349795137
C   C15       1.0  0.43720  0.73578  0.11913  1.0000 -0.1349795137
C   C16       1.0  0.06280  0.23578  0.88087  1.0000 -0.1349795137
C   C17       1.0  0.55970  0.17215  0.86421  1.0000 0.088680594
C   C18       1.0  0.94030  0.67215  0.13579  1.0000 0.088680594
C   C19       1.0  0.44030  0.82785  0.13579  1.0000 0.088680594
C   C20       1.0  0.05970  0.32785  0.86421  1.0000 0.088680594
C   C21       1.0  0.65940  0.11879  0.93093  1.0000 0.0479154817
C   C22       1.0  0.84060  0.61879  0.06907  1.0000 0.0479154817
C   C23       1.0  0.34060  0.88121  0.06907  1.0000 0.0479154817
C   C24       1.0  0.15940  0.38121  0.93093  1.0000 0.0479154817
C   C25       1.0  0.45230  0.12890  0.78090  1.0000 -0.1749700133
C   C26       1.0  0.04770  0.62890  0.21910  1.0000 -0.1749700133
C   C27       1.0  0.54770  0.87110  0.21910  1.0000 -0.1749700133
C   C28       1.0  0.95230  0.37110  0.78090  1.0000 -0.1749700133
C   C29       1.0  0.41330  0.18330  0.69570  1.0000 -0.3731876288
C   C30       1.0  0.08670  0.68330  0.30430  1.0000 -0.3731876288
C   C31       1.0  0.58670  0.81670  0.30430  1.0000 -0.3731876288
C   C32       1.0  0.91330  0.31670  0.69570  1.0000 -0.3731876288
C   C33       1.0  0.64710  0.40260  0.97528  1.0000 0.5973456528
C   C34       1.0  0.85290  0.90260  0.02472  1.0000 0.5973456528
C   C35       1.0  0.35290  0.59740  0.02472  1.0000 0.5973456528
C   C36       1.0  0.14710  0.09740  0.97528  1.0000 0.5973456528
C   C37       1.0  0.21990  0.07260  0.25570  1.0000 0.1025949565
C   C38       1.0  0.28010  0.57260  0.74430  1.0000 0.1025949565
C   C39       1.0  0.78010  0.92740  0.74430  1.0000 0.1025949565
C   C40       1.0  0.71990  0.42740  0.25570  1.0000 0.1025949565
C   C41       1.0  0.33870  0.05600  0.33300  1.0000 -0.1822965269
C   C42       1.0  0.16130  0.55600  0.66700  1.0000 -0.1822965269
C   C43       1.0  0.66130  0.94400  0.66700  1.0000 -0.1822965269
C   C44       1.0  0.83870  0.44400  0.33300  1.0000 -0.1822965269
C   C45       1.0  0.30360  0.00270  0.40600  1.0000 0.1406268752
C   C46       1.0  0.19640  0.50270  0.59400  1.0000 0.1406268752
C   C47       1.0  0.69640  0.99730  0.59400  1.0000 0.1406268752
C   C48       1.0  0.80360  0.49730  0.40600  1.0000 0.1406268752
C   C49       1.0  0.14800  0.96700  0.39450  1.0000 -0.2134997186
C   C50       1.0  0.35200  0.46700  0.60550  1.0000 -0.2134997186
C   C51       1.0  0.85200  0.03300  0.60550  1.0000 -0.2134997186
C   C52       1.0  0.64800  0.53300  0.39450  1.0000 -0.2134997186
C   C53       1.0  0.03660  0.98590  0.31470  1.0000 0.0654872384
C   C54       1.0  0.46340  0.48590  0.68530  1.0000 0.0654872384
C   C55       1.0  0.96340  0.01410  0.68530  1.0000 0.0654872384
C   C56       1.0  0.53660  0.51410  0.31470  1.0000 0.0654872384
C   C57       1.0  0.42400  0.98450  0.49130  1.0000 -0.1421805706
C   C58       1.0  0.07600  0.48450  0.50870  1.0000 -0.1421805706
C   C59       1.0  0.57600  0.01550  0.50870  1.0000 -0.1421805706
C   C60       1.0  0.92400  0.51550  0.49130  1.0000 -0.1421805706
N   N1        1.0  0.76000  0.15367  0.00552  1.0000 -0.2535587821
N   N2        1.0  0.74000  0.65367  0.99448  1.0000 -0.2535587821
N   N3        1.0  0.24000  0.84633  0.99448  1.0000 -0.2535587821
N   N4        1.0  0.26000  0.34633  0.00552  1.0000 -0.2535587821
N   N5        1.0  0.06950  0.03926  0.24486  1.0000 -0.2246652369
N   N6        1.0  0.43050  0.53926  0.75514  1.0000 -0.2246652369
N   N7        1.0  0.93050  0.96074  0.75514  1.0000 -0.2246652369
N   N8        1.0  0.56950  0.46074  0.24486  1.0000 -0.2246652369
O   O1        1.0  0.95810  0.21751  0.15804  1.0000 -0.5605384682
O   O2        1.0  0.54190  0.71751  0.84196  1.0000 -0.5605384682
O   O3        1.0  0.04190  0.78249  0.84196  1.0000 -0.5605384682
O   O4        1.0  0.45810  0.28249  0.15804  1.0000 -0.5605384682
O   O5        1.0  0.93400  0.35754  0.09924  1.0000 -0.4981542949
O   O6        1.0  0.56600  0.85754  0.90076  1.0000 -0.4981542949
O   O7        1.0  0.06600  0.64246  0.90076  1.0000 -0.4981542949
O   O8        1.0  0.43400  0.14246  0.09924  1.0000 -0.4981542949
O   O9        1.0  0.60280  0.42893  0.04958  1.0000 -0.5410912756
O   O10       1.0  0.89720  0.92893  0.95042  1.0000 -0.5410912756
O   O11       1.0  0.39720  0.57107  0.95042  1.0000 -0.5410912756
O   O12       1.0  0.10280  0.07107  0.04958  1.0000 -0.5410912756
O   O13       1.0  0.67310  0.45263  0.90797  1.0000 -0.5518319581
O   O14       1.0  0.82690  0.95263  0.09203  1.0000 -0.5518319581
O   O15       1.0  0.32690  0.54737  0.09203  1.0000 -0.5518319581
O   O16       1.0  0.17310  0.04737  0.90797  1.0000 -0.5518319581
