# DDEC6 charges by PACMAN v1.1 (https://github.com/mtap-research/PACMAN-charge/)
data_0000[Zn][kgd]2[ASR]1
_chemical_formula_sum              "Zn2 H20 C36 N4 O8"
_cell_length_a       9.6041
_cell_length_b       10.134
_cell_length_c       11.8192
_cell_angle_alpha    98.738
_cell_angle_beta     112.953
_cell_angle_gamma    106.108

_symmetry_space_group_name_H-M    "P 1"
_symmetry_Int_Tables_number       1

loop_
  _symmetry_equiv_pos_as_xyz
  'x, y, z'

loop_
  _atom_site_type_symbol
  _atom_site_label
  _atom_site_symmetry_multiplicity
  _atom_site_fract_x
  _atom_site_fract_y
  _atom_site_fract_z
  _atom_site_occupancy
  _atom_site_charge
Zn  Zn1       1.0  0.77915  0.04073  0.97480  1.0000 0.8466089337
Zn  Zn2       1.0  0.22085  0.95927  0.02520  1.0000 0.8466089337
H   H1        1.0  0.01908  0.01800  0.22895  1.0000 0.1262238181
H   H2        1.0  0.55444  0.79005  0.02783  1.0000 0.1229555241
H   H3        1.0  0.34018  0.65628  0.05176  1.0000 0.1229555241
H   H4        1.0  0.44955  0.29663  0.22755  1.0000 0.1229555241
H   H5        1.0  0.66036  0.49804  0.26115  1.0000 0.1229555241
H   H6        1.0  0.12965  0.45429  0.01910  1.0000 0.1262238181
H   H7        1.0  0.23107  0.78831  0.67082  1.0000 0.1229555241
H   H8        1.0  0.99902  0.73822  0.48396  1.0000 0.1229555241
H   H9        1.0  0.46582  0.11456  0.58425  1.0000 0.1262238181
H   H10       1.0  0.23440  0.06622  0.39727  1.0000 0.1262238181
H   H11       1.0  0.98092  0.98200  0.77105  1.0000 0.1262238181
H   H12       1.0  0.44556  0.20995  0.97217  1.0000 0.1229555241
H   H13       1.0  0.65982  0.34372  0.94824  1.0000 0.1229555241
H   H14       1.0  0.55045  0.70337  0.77245  1.0000 0.1229555241
H   H15       1.0  0.33964  0.50196  0.73885  1.0000 0.1229555241
H   H16       1.0  0.87035  0.54571  0.98090  1.0000 0.1262238181
H   H17       1.0  0.76893  0.21169  0.32918  1.0000 0.1229555241
H   H18       1.0  0.00098  0.26178  0.51604  1.0000 0.1229555241
H   H19       1.0  0.53418  0.88544  0.41575  1.0000 0.1262238181
H   H20       1.0  0.76560  0.93378  0.60273  1.0000 0.1262238181
C   C1        1.0  0.66430  0.72580  0.18070  1.0000 0.1697485118
C   C2        1.0  0.52430  0.59880  0.15960  1.0000 0.0440199885
C   C3        1.0  0.13020  0.21530  0.09080  1.0000 0.5774216621
C   C4        1.0  0.26530  0.35260  0.11810  1.0000 -0.0392453329
C   C5        1.0  0.93640  0.86610  0.30360  1.0000 0.1766709059
C   C6        1.0  0.92590  0.94460  0.21580  1.0000 -0.0179323934
C   C7        1.0  0.65470  0.80950  0.09690  1.0000 -0.014097215
C   C8        1.0  0.36250  0.58400  0.08690  1.0000 -0.1309101997
C   C9        1.0  0.42730  0.36860  0.19180  1.0000 -0.0973599454
C   C10       1.0  0.52430  0.99420  0.77170  1.0000 0.5432315438
C   C11       1.0  0.55370  0.48930  0.21190  1.0000 -0.1309101997
C   C12       1.0  0.37220  0.95990  0.64880  1.0000 -0.0179323934
C   C13       1.0  0.23640  0.46260  0.06740  1.0000 -0.0903536857
C   C14       1.0  0.08950  0.89900  0.42170  1.0000 0.0440199885
C   C15       1.0  0.23200  0.84580  0.61660  1.0000 -0.1054036722
C   C16       1.0  0.09250  0.81580  0.50420  1.0000 -0.1309101997
C   C17       1.0  0.37100  0.03920  0.56520  1.0000 -0.0973599454
C   C18       1.0  0.23180  0.01030  0.45250  1.0000 -0.1211486787
C   C19       1.0  0.33570  0.27420  0.81930  1.0000 0.1697485118
C   C20       1.0  0.47570  0.40120  0.84040  1.0000 0.0440199885
C   C21       1.0  0.86980  0.78470  0.90920  1.0000 0.5774216621
C   C22       1.0  0.73470  0.64740  0.88190  1.0000 -0.0392453329
C   C23       1.0  0.06360  0.13390  0.69640  1.0000 0.1766709059
C   C24       1.0  0.07410  0.05540  0.78420  1.0000 -0.0179323934
C   C25       1.0  0.34530  0.19050  0.90310  1.0000 -0.014097215
C   C26       1.0  0.63750  0.41600  0.91310  1.0000 -0.1309101997
C   C27       1.0  0.57270  0.63140  0.80820  1.0000 -0.0973599454
C   C28       1.0  0.47570  0.00580  0.22830  1.0000 0.5432315438
C   C29       1.0  0.44630  0.51070  0.78810  1.0000 -0.1309101997
C   C30       1.0  0.62780  0.04010  0.35120  1.0000 -0.0179323934
C   C31       1.0  0.76360  0.53740  0.93260  1.0000 -0.0903536857
C   C32       1.0  0.91050  0.10100  0.57830  1.0000 0.0440199885
C   C33       1.0  0.76800  0.15420  0.38340  1.0000 -0.1054036722
C   C34       1.0  0.90750  0.18420  0.49580  1.0000 -0.1309101997
C   C35       1.0  0.62900  0.96080  0.43480  1.0000 -0.0973599454
C   C36       1.0  0.76820  0.98970  0.54750  1.0000 -0.1211486787
N   N1        1.0  0.78500  0.91720  0.11265  1.0000 -0.1948052377
N   N2        1.0  0.80580  0.75510  0.28412  1.0000 -0.2839989097
N   N3        1.0  0.21500  0.08280  0.88735  1.0000 -0.1954008669
N   N4        1.0  0.19420  0.24490  0.71588  1.0000 -0.2839989097
O   O1        1.0  0.16570  0.11174  0.12293  1.0000 -0.5577748747
O   O2        1.0  0.98620  0.21218  0.03638  1.0000 -0.5350649983
O   O3        1.0  0.51590  0.92877  0.85351  1.0000 -0.5577748747
O   O4        1.0  0.65610  0.08430  0.79071  1.0000 -0.5210693807
O   O5        1.0  0.83430  0.88826  0.87707  1.0000 -0.5577748747
O   O6        1.0  0.01380  0.78782  0.96362  1.0000 -0.5350649983
O   O7        1.0  0.48410  0.07123  0.14649  1.0000 -0.5577748747
O   O8        1.0  0.34390  0.91570  0.20929  1.0000 -0.5210693807
