# DDEC6 charges by PACMAN v1.1 (https://github.com/mtap-research/PACMAN-charge/)
data_0000[Tb][tcs]3[ASR]1
_chemical_formula_sum              "Tb4 H12 C24 O24"
_cell_length_a       8.523
_cell_length_b       9.764
_cell_length_c       17.314
_cell_angle_alpha    90
_cell_angle_beta     90
_cell_angle_gamma    112.25

_symmetry_space_group_name_H-M    "P 1"
_symmetry_Int_Tables_number       1

loop_
  _symmetry_equiv_pos_as_xyz
  'x, y, z'

loop_
  _atom_site_type_symbol
  _atom_site_label
  _atom_site_symmetry_multiplicity
  _atom_site_fract_x
  _atom_site_fract_y
  _atom_site_fract_z
  _atom_site_occupancy
  _atom_site_charge
Tb  Tb1       1.0  0.84310  0.02600  0.25770  1.0000 2.0664237567
Tb  Tb2       1.0  0.15690  0.47400  0.75770  1.0000 2.0664237567
Tb  Tb3       1.0  0.15690  0.97400  0.74230  1.0000 2.0664237567
Tb  Tb4       1.0  0.84310  0.52600  0.24230  1.0000 2.0664237567
H   H1        1.0  0.88337  0.08070  0.97079  1.0000 0.1199549351
H   H2        1.0  0.28387  0.15433  0.32743  1.0000 0.1199549351
H   H3        1.0  0.40333  0.90722  0.26384  1.0000 0.1095661928
H   H4        1.0  0.11663  0.41930  0.47079  1.0000 0.1199549351
H   H5        1.0  0.71613  0.34567  0.82743  1.0000 0.1199549351
H   H6        1.0  0.59667  0.59278  0.76384  1.0000 0.1095661928
H   H7        1.0  0.11663  0.91930  0.02921  1.0000 0.1199549351
H   H8        1.0  0.71613  0.84567  0.67257  1.0000 0.1199549351
H   H9        1.0  0.59667  0.09278  0.73616  1.0000 0.1095661928
H   H10       1.0  0.88236  0.58106  0.52851  1.0000 0.1199549351
H   H11       1.0  0.28387  0.65433  0.17257  1.0000 0.1199549351
H   H12       1.0  0.40333  0.40722  0.23616  1.0000 0.1095661928
C   C1        1.0  0.90590  0.02290  0.09750  1.0000 0.6081765124
C   C2        1.0  0.94630  0.02790  0.01310  1.0000 -0.1267252101
C   C3        1.0  0.55770  0.20180  0.28970  1.0000 0.697724832
C   C4        1.0  0.37440  0.10540  0.30180  1.0000 -0.1526321641
C   C5        1.0  0.31340  0.96220  0.28320  1.0000 -0.1648651829
C   C6        1.0  0.12970  0.86830  0.28650  1.0000 0.7117504605
C   C7        1.0  0.09410  0.47710  0.59750  1.0000 0.6081765124
C   C8        1.0  0.05370  0.47210  0.51310  1.0000 -0.1267252101
C   C9        1.0  0.44230  0.29820  0.78970  1.0000 0.697724832
C   C10       1.0  0.62560  0.39460  0.80180  1.0000 -0.1526321641
C   C11       1.0  0.68660  0.53780  0.78320  1.0000 -0.1648651829
C   C12       1.0  0.87030  0.63170  0.78650  1.0000 0.7117504605
C   C13       1.0  0.09410  0.97710  0.90250  1.0000 0.6081765124
C   C14       1.0  0.05370  0.97210  0.98690  1.0000 -0.1267252101
C   C15       1.0  0.44230  0.79820  0.71030  1.0000 0.697724832
C   C16       1.0  0.62560  0.89460  0.69820  1.0000 -0.1526321641
C   C17       1.0  0.68660  0.03780  0.71680  1.0000 -0.1648651829
C   C18       1.0  0.87030  0.13170  0.71350  1.0000 0.7117504605
C   C19       1.0  0.90590  0.52290  0.40250  1.0000 0.6081765124
C   C20       1.0  0.94630  0.52790  0.48690  1.0000 -0.1267252101
C   C21       1.0  0.55770  0.70180  0.21030  1.0000 0.697724832
C   C22       1.0  0.37440  0.60540  0.19820  1.0000 -0.1526321641
C   C23       1.0  0.31340  0.46220  0.21680  1.0000 -0.1648651829
C   C24       1.0  0.12970  0.36830  0.21350  1.0000 0.7117504605
O   O1        1.0  0.96440  0.95610  0.14410  1.0000 -0.629648166
O   O2        1.0  0.81370  0.09190  0.12040  1.0000 -0.6158358625
O   O3        1.0  0.66110  0.14520  0.27030  1.0000 -0.7200429184
O   O4        1.0  0.59850  0.33930  0.29670  1.0000 -0.6464294365
O   O5        1.0  0.02350  0.92380  0.30520  1.0000 -0.7200429184
O   O6        1.0  0.08980  0.73490  0.26950  1.0000 -0.6572850815
O   O7        1.0  0.03560  0.54390  0.64410  1.0000 -0.629648166
O   O8        1.0  0.18630  0.40810  0.62040  1.0000 -0.6133011452
O   O9        1.0  0.33890  0.35480  0.77030  1.0000 -0.7252910903
O   O10       1.0  0.40150  0.16070  0.79670  1.0000 -0.6464294365
O   O11       1.0  0.97650  0.57620  0.80520  1.0000 -0.7200429184
O   O12       1.0  0.91020  0.76510  0.76950  1.0000 -0.6572850815
O   O13       1.0  0.03560  0.04390  0.85590  1.0000 -0.629648166
O   O14       1.0  0.18630  0.90810  0.87960  1.0000 -0.6133011452
O   O15       1.0  0.33890  0.85480  0.72970  1.0000 -0.7200429184
O   O16       1.0  0.40150  0.66070  0.70330  1.0000 -0.6464294365
O   O17       1.0  0.97650  0.07620  0.69480  1.0000 -0.7200429184
O   O18       1.0  0.91020  0.26510  0.73050  1.0000 -0.6572850815
O   O19       1.0  0.96440  0.45610  0.35590  1.0000 -0.629648166
O   O20       1.0  0.81370  0.59190  0.37960  1.0000 -0.6158358625
O   O21       1.0  0.66110  0.64520  0.22970  1.0000 -0.7200429184
O   O22       1.0  0.59850  0.83930  0.20330  1.0000 -0.6464294365
O   O23       1.0  0.02350  0.42380  0.19480  1.0000 -0.7200429184
O   O24       1.0  0.08980  0.23490  0.23050  1.0000 -0.6572850815
