# DDEC6 charges by PACMAN v1.1 (https://github.com/mtap-research/PACMAN-charge/)
data_0000[Zn][sra]3[ASR]1
_chemical_formula_sum              "Zn4 H28 C60 O24"
_cell_length_a       8.237
_cell_length_b       16.807
_cell_length_c       13.656
_cell_angle_alpha    90
_cell_angle_beta     99.089
_cell_angle_gamma    90

_symmetry_space_group_name_H-M    "P 1"
_symmetry_Int_Tables_number       1

loop_
  _symmetry_equiv_pos_as_xyz
  'x, y, z'

loop_
  _atom_site_type_symbol
  _atom_site_label
  _atom_site_symmetry_multiplicity
  _atom_site_fract_x
  _atom_site_fract_y
  _atom_site_fract_z
  _atom_site_occupancy
  _atom_site_charge
Zn  Zn1       1.0  0.12859  0.97711  0.13669  1.0000 0.9507107476
Zn  Zn2       1.0  0.37141  0.47711  0.86331  1.0000 0.9507107476
Zn  Zn3       1.0  0.87141  0.02289  0.86331  1.0000 0.9507107476
Zn  Zn4       1.0  0.62859  0.52289  0.13669  1.0000 0.9507107476
H   H1        1.0  0.18160  0.75640  0.97780  1.0000 0.147776697
H   H2        1.0  0.31840  0.25640  0.02220  1.0000 0.147776697
H   H3        1.0  0.81840  0.24360  0.02220  1.0000 0.147776697
H   H4        1.0  0.68160  0.74360  0.97780  1.0000 0.147776697
H   H5        1.0  0.12720  0.91540  0.75600  1.0000 0.1294008831
H   H6        1.0  0.37280  0.41540  0.24400  1.0000 0.1294008831
H   H7        1.0  0.87280  0.08460  0.24400  1.0000 0.1294008831
H   H8        1.0  0.62720  0.58460  0.75600  1.0000 0.1294008831
H   H9        1.0  0.20460  0.68540  0.70000  1.0000 0.1294008831
H   H10       1.0  0.29540  0.18540  0.30000  1.0000 0.1294008831
H   H11       1.0  0.79540  0.31460  0.30000  1.0000 0.1294008831
H   H12       1.0  0.70460  0.81460  0.70000  1.0000 0.1294008831
H   H13       1.0  0.33880  0.74510  0.57910  1.0000 0.1195595602
H   H14       1.0  0.16120  0.24510  0.42090  1.0000 0.1195595602
H   H15       1.0  0.66120  0.25490  0.42090  1.0000 0.1195595602
H   H16       1.0  0.83880  0.75490  0.57910  1.0000 0.1195595602
H   H17       1.0  0.34870  0.78070  0.41710  1.0000 0.1294008831
H   H18       1.0  0.15130  0.28070  0.58290  1.0000 0.1294008831
H   H19       1.0  0.65130  0.21930  0.58290  1.0000 0.1294008831
H   H20       1.0  0.84870  0.71930  0.41710  1.0000 0.1294008831
H   H21       1.0  0.98260  0.93470  0.42480  1.0000 0.1195595602
H   H22       1.0  0.51740  0.43470  0.57520  1.0000 0.1195595602
H   H23       1.0  0.01740  0.06530  0.57520  1.0000 0.1195595602
H   H24       1.0  0.48260  0.56530  0.42480  1.0000 0.1195595602
H   H25       1.0  0.98180  0.90520  0.59110  1.0000 0.1294008831
H   H26       1.0  0.51820  0.40520  0.40890  1.0000 0.1294008831
H   H27       1.0  0.01820  0.09480  0.40890  1.0000 0.1294008831
H   H28       1.0  0.48180  0.59480  0.59110  1.0000 0.1294008831
C   C1        1.0  0.19650  0.70810  0.84430  1.0000 0.0119011404
C   C2        1.0  0.30350  0.20810  0.15570  1.0000 0.0119011404
C   C3        1.0  0.80350  0.29190  0.15570  1.0000 0.0119011404
C   C4        1.0  0.69650  0.79190  0.84430  1.0000 0.0119011404
C   C5        1.0  0.17850  0.76830  0.91100  1.0000 -0.0963116249
C   C6        1.0  0.32150  0.26830  0.08900  1.0000 -0.0963116249
C   C7        1.0  0.82150  0.23170  0.08900  1.0000 -0.0963116249
C   C8        1.0  0.67850  0.73170  0.91100  1.0000 -0.0963116249
C   C9        1.0  0.15590  0.84630  0.87860  1.0000 -0.0033481052
C   C10       1.0  0.34410  0.34630  0.12140  1.0000 -0.0033481052
C   C11       1.0  0.84410  0.15370  0.12140  1.0000 -0.0033481052
C   C12       1.0  0.65590  0.65370  0.87860  1.0000 -0.0033481052
C   C13       1.0  0.14680  0.86340  0.77800  1.0000 -0.1318773178
C   C14       1.0  0.35320  0.36340  0.22200  1.0000 -0.1318773178
C   C15       1.0  0.85320  0.13660  0.22200  1.0000 -0.1318773178
C   C16       1.0  0.64680  0.63660  0.77800  1.0000 -0.1318773178
C   C17       1.0  0.16640  0.80400  0.71030  1.0000 0.0731408337
C   C18       1.0  0.33360  0.30400  0.28970  1.0000 0.0731408337
C   C19       1.0  0.83360  0.19600  0.28970  1.0000 0.0731408337
C   C20       1.0  0.66640  0.69600  0.71030  1.0000 0.0731408337
C   C21       1.0  0.19130  0.72580  0.74450  1.0000 -0.1387058048
C   C22       1.0  0.30870  0.22580  0.25550  1.0000 -0.1387058048
C   C23       1.0  0.80870  0.27420  0.25550  1.0000 -0.1387058048
C   C24       1.0  0.69130  0.77420  0.74450  1.0000 -0.1387058048
C   C25       1.0  0.16440  0.82320  0.60410  1.0000 0.0788599441
C   C26       1.0  0.33560  0.32320  0.39590  1.0000 0.0788599441
C   C27       1.0  0.83560  0.17680  0.39590  1.0000 0.0788599441
C   C28       1.0  0.66440  0.67680  0.60410  1.0000 0.0788599441
C   C29       1.0  0.26980  0.78500  0.54950  1.0000 -0.1387058048
C   C30       1.0  0.23020  0.28500  0.45050  1.0000 -0.1387058048
C   C31       1.0  0.73020  0.21500  0.45050  1.0000 -0.1387058048
C   C32       1.0  0.76980  0.71500  0.54950  1.0000 -0.1387058048
C   C33       1.0  0.27390  0.80550  0.45150  1.0000 -0.0831271818
C   C34       1.0  0.22610  0.30550  0.54850  1.0000 -0.0831271818
C   C35       1.0  0.72610  0.19450  0.54850  1.0000 -0.0831271818
C   C36       1.0  0.77390  0.69450  0.45150  1.0000 -0.0831271818
C   C37       1.0  0.16790  0.86210  0.40470  1.0000 -0.0124352028
C   C38       1.0  0.33210  0.36210  0.59530  1.0000 -0.0124352028
C   C39       1.0  0.83210  0.13790  0.59530  1.0000 -0.0124352028
C   C40       1.0  0.66790  0.63790  0.40470  1.0000 -0.0124352028
C   C41       1.0  0.05720  0.89790  0.45660  1.0000 -0.0831271818
C   C42       1.0  0.44280  0.39790  0.54340  1.0000 -0.0831271818
C   C43       1.0  0.94280  0.10210  0.54340  1.0000 -0.0831271818
C   C44       1.0  0.55720  0.60210  0.45660  1.0000 -0.0831271818
C   C45       1.0  0.05550  0.87960  0.55650  1.0000 -0.1387058048
C   C46       1.0  0.44450  0.37960  0.44350  1.0000 -0.1387058048
C   C47       1.0  0.94450  0.12040  0.44350  1.0000 -0.1387058048
C   C48       1.0  0.55550  0.62040  0.55650  1.0000 -0.1387058048
C   C49       1.0  0.21950  0.62330  0.88000  1.0000 0.539497439
C   C50       1.0  0.28050  0.12330  0.12000  1.0000 0.539497439
C   C51       1.0  0.78050  0.37670  0.12000  1.0000 0.539497439
C   C52       1.0  0.71950  0.87670  0.88000  1.0000 0.539497439
C   C53       1.0  0.13770  0.91220  0.94980  1.0000 0.5997980276
C   C54       1.0  0.36230  0.41220  0.05020  1.0000 0.5997980276
C   C55       1.0  0.86230  0.08780  0.05020  1.0000 0.5997980276
C   C56       1.0  0.63770  0.58780  0.94980  1.0000 0.5997980276
C   C57       1.0  0.18100  0.88840  0.30110  1.0000 0.551479418
C   C58       1.0  0.31900  0.38840  0.69890  1.0000 0.551479418
C   C59       1.0  0.81900  0.11160  0.69890  1.0000 0.551479418
C   C60       1.0  0.68100  0.61160  0.30110  1.0000 0.551479418
O   O1        1.0  0.24790  0.57250  0.81930  1.0000 -0.5084947408
O   O2        1.0  0.25210  0.07250  0.18070  1.0000 -0.5084947408
O   O3        1.0  0.75210  0.42750  0.18070  1.0000 -0.5084947408
O   O4        1.0  0.74790  0.92750  0.81930  1.0000 -0.5084947408
O   O5        1.0  0.17840  0.89640  0.04200  1.0000 -0.4812416917
O   O6        1.0  0.32160  0.39640  0.95800  1.0000 -0.4812416917
O   O7        1.0  0.82160  0.10360  0.95800  1.0000 -0.4812416917
O   O8        1.0  0.67840  0.60360  0.04200  1.0000 -0.4812416917
O   O9        1.0  0.09390  0.97866  0.91750  1.0000 -0.5084947408
O   O10       1.0  0.40610  0.47866  0.08250  1.0000 -0.5084947408
O   O11       1.0  0.90610  0.02134  0.08250  1.0000 -0.5084947408
O   O12       1.0  0.59390  0.52134  0.91750  1.0000 -0.5084947408
O   O13       1.0  0.06290  0.93170  0.25720  1.0000 -0.5153481027
O   O14       1.0  0.43710  0.43170  0.74280  1.0000 -0.5153481027
O   O15       1.0  0.93710  0.06830  0.74280  1.0000 -0.5153481027
O   O16       1.0  0.56290  0.56830  0.25720  1.0000 -0.5084947408
O   O17       1.0  0.30310  0.87050  0.26400  1.0000 -0.4522322302
O   O18       1.0  0.19690  0.37050  0.73600  1.0000 -0.4522322302
O   O19       1.0  0.69690  0.12950  0.73600  1.0000 -0.4522322302
O   O20       1.0  0.80310  0.62950  0.26400  1.0000 -0.4522322302
O   O21       1.0  0.21380  0.60870  0.96620  1.0000 -0.4194447061
O   O22       1.0  0.28620  0.10870  0.03380  1.0000 -0.4194447061
O   O23       1.0  0.78620  0.39130  0.03380  1.0000 -0.4194447061
O   O24       1.0  0.71380  0.89130  0.96620  1.0000 -0.4194447061
