# DDEC6 charges by PACMAN v1.1 (https://github.com/mtap-research/PACMAN-charge/)
data_0000[Mg][sra]3[ASR]1
_chemical_formula_sum              "Mg8 H40 C88 O32"
_cell_length_a       10.182
_cell_length_b       15.171
_cell_length_c       23.413
_cell_angle_alpha    90
_cell_angle_beta     98.309
_cell_angle_gamma    90

_symmetry_space_group_name_H-M    "P 1"
_symmetry_Int_Tables_number       1

loop_
  _symmetry_equiv_pos_as_xyz
  'x, y, z'

loop_
  _atom_site_type_symbol
  _atom_site_label
  _atom_site_symmetry_multiplicity
  _atom_site_fract_x
  _atom_site_fract_y
  _atom_site_fract_z
  _atom_site_occupancy
  _atom_site_charge
Mg  Mg1       1.0  0.53499  0.95835  0.10861  1.0000 1.3421492467
Mg  Mg2       1.0  0.46501  0.45835  0.39139  1.0000 1.3421492467
Mg  Mg3       1.0  0.46501  0.04165  0.89139  1.0000 1.3421492467
Mg  Mg4       1.0  0.53499  0.54165  0.60861  1.0000 1.3421492467
Mg  Mg5       1.0  0.80128  0.86755  0.19893  1.0000 1.3582795451
Mg  Mg6       1.0  0.19872  0.36755  0.30107  1.0000 1.3582795451
Mg  Mg7       1.0  0.19872  0.13245  0.80107  1.0000 1.3582795451
Mg  Mg8       1.0  0.80128  0.63245  0.69893  1.0000 1.3582795451
H   H1        1.0  0.07870  0.95747  0.11006  1.0000 0.1210558722
H   H2        1.0  0.92130  0.45747  0.38994  1.0000 0.1210558722
H   H3        1.0  0.92130  0.04253  0.88994  1.0000 0.1210558722
H   H4        1.0  0.07870  0.54253  0.61006  1.0000 0.1210558722
H   H5        1.0  0.20950  0.15733  0.02262  1.0000 0.1210558722
H   H6        1.0  0.79050  0.65733  0.47738  1.0000 0.1210558722
H   H7        1.0  0.79050  0.84267  0.97738  1.0000 0.1210558722
H   H8        1.0  0.20950  0.34267  0.52262  1.0000 0.1210558722
H   H9        1.0  0.81985  0.13173  0.02915  1.0000 0.1287930349
H   H10       1.0  0.18015  0.63173  0.47085  1.0000 0.1287930349
H   H11       1.0  0.18015  0.86827  0.97085  1.0000 0.1287930349
H   H12       1.0  0.81985  0.36827  0.52915  1.0000 0.1287930349
H   H13       1.0  0.13559  0.31180  0.02917  1.0000 0.1210558722
H   H14       1.0  0.86441  0.81180  0.47083  1.0000 0.1210558722
H   H15       1.0  0.86441  0.68820  0.97083  1.0000 0.1210558722
H   H16       1.0  0.13559  0.18820  0.52917  1.0000 0.1210558722
H   H17       1.0  0.09220  0.44208  0.97770  1.0000 0.1108353873
H   H18       1.0  0.90780  0.94208  0.52230  1.0000 0.1108353873
H   H19       1.0  0.90780  0.55792  0.02230  1.0000 0.1108353873
H   H20       1.0  0.09220  0.05792  0.47770  1.0000 0.1108353873
H   H21       1.0  0.91253  0.45053  0.90640  1.0000 0.1108353873
H   H22       1.0  0.08747  0.95053  0.59360  1.0000 0.1108353873
H   H23       1.0  0.08747  0.54947  0.09360  1.0000 0.1108353873
H   H24       1.0  0.91253  0.04947  0.40640  1.0000 0.1108353873
H   H25       1.0  0.82616  0.19805  0.93192  1.0000 0.1210558722
H   H26       1.0  0.17384  0.69805  0.56808  1.0000 0.1210558722
H   H27       1.0  0.17384  0.80195  0.06808  1.0000 0.1210558722
H   H28       1.0  0.82616  0.30195  0.43192  1.0000 0.1210558722
H   H29       1.0  0.80752  0.43406  0.82087  1.0000 0.1108353873
H   H30       1.0  0.19248  0.93406  0.67913  1.0000 0.1108353873
H   H31       1.0  0.19248  0.56594  0.17913  1.0000 0.1108353873
H   H32       1.0  0.80752  0.06594  0.32087  1.0000 0.1108353873
H   H33       1.0  0.46914  0.33907  0.73553  1.0000 0.1287930349
H   H34       1.0  0.53086  0.83907  0.76447  1.0000 0.1287930349
H   H35       1.0  0.53086  0.66093  0.26447  1.0000 0.1287930349
H   H36       1.0  0.46914  0.16093  0.23553  1.0000 0.1287930349
H   H37       1.0  0.62843  0.22947  0.88544  1.0000 0.1210558722
H   H38       1.0  0.37157  0.72947  0.61456  1.0000 0.1210558722
H   H39       1.0  0.37157  0.77053  0.11456  1.0000 0.1210558722
H   H40       1.0  0.62843  0.27053  0.38544  1.0000 0.1210558722
C   C1        1.0  0.82080  0.98920  0.09737  1.0000 0.6264746675
C   C2        1.0  0.17920  0.48920  0.40263  1.0000 0.6264746675
C   C3        1.0  0.17920  0.01080  0.90263  1.0000 0.6264746675
C   C4        1.0  0.82080  0.51080  0.59737  1.0000 0.6264746675
C   C5        1.0  0.93110  0.03690  0.07332  1.0000 -0.0301780512
C   C6        1.0  0.06890  0.53690  0.42668  1.0000 -0.0301780512
C   C7        1.0  0.06890  0.96310  0.92668  1.0000 -0.0301780512
C   C8        1.0  0.93110  0.46310  0.57332  1.0000 -0.0301780512
C   C9        1.0  0.06140  0.00730  0.08709  1.0000 -0.1138762606
C   C10       1.0  0.93860  0.50730  0.41291  1.0000 -0.1138762606
C   C11       1.0  0.93860  0.99270  0.91291  1.0000 -0.1138762606
C   C12       1.0  0.06140  0.49270  0.58709  1.0000 -0.1138762606
C   C13       1.0  0.16530  0.05050  0.06736  1.0000 -0.013966375
C   C14       1.0  0.83470  0.55050  0.43264  1.0000 -0.013966375
C   C15       1.0  0.83470  0.94950  0.93264  1.0000 -0.013966375
C   C16       1.0  0.16530  0.44950  0.56736  1.0000 -0.013966375
C   C17       1.0  0.13960  0.12680  0.03501  1.0000 -0.1504379099
C   C18       1.0  0.86040  0.62680  0.46499  1.0000 -0.1504379099
C   C19       1.0  0.86040  0.87320  0.96499  1.0000 -0.1504379099
C   C20       1.0  0.13960  0.37320  0.53501  1.0000 -0.1504379099
C   C21       1.0  0.01080  0.15840  0.02087  1.0000 0.0539397711
C   C22       1.0  0.98920  0.65840  0.47913  1.0000 0.0539397711
C   C23       1.0  0.98920  0.84160  0.97913  1.0000 0.0539397711
C   C24       1.0  0.01080  0.34160  0.52087  1.0000 0.0539397711
C   C25       1.0  0.90660  0.11210  0.03946  1.0000 -0.1443169376
C   C26       1.0  0.09340  0.61210  0.46054  1.0000 -0.1443169376
C   C27       1.0  0.09340  0.88790  0.96054  1.0000 -0.1443169376
C   C28       1.0  0.90660  0.38790  0.53946  1.0000 -0.1443169376
C   C29       1.0  0.30430  0.01600  0.08140  1.0000 0.5545229206
C   C30       1.0  0.69570  0.51600  0.41860  1.0000 0.5545229206
C   C31       1.0  0.69570  0.98400  0.91860  1.0000 0.5545229206
C   C32       1.0  0.30430  0.48400  0.58140  1.0000 0.5545229206
C   C33       1.0  0.98410  0.24160  0.98597  1.0000 0.0856420661
C   C34       1.0  0.01590  0.74160  0.51403  1.0000 0.0856420661
C   C35       1.0  0.01590  0.75840  0.01403  1.0000 0.0856420661
C   C36       1.0  0.98410  0.25840  0.48597  1.0000 0.0856420661
C   C37       1.0  0.06420  0.31500  0.99960  1.0000 -0.1504379099
C   C38       1.0  0.93580  0.81500  0.50040  1.0000 -0.1504379099
C   C39       1.0  0.93580  0.68500  0.00040  1.0000 -0.1504379099
C   C40       1.0  0.06420  0.18500  0.49960  1.0000 -0.1504379099
C   C41       1.0  0.03790  0.39320  0.96900  1.0000 -0.1035537904
C   C42       1.0  0.96210  0.89320  0.53100  1.0000 -0.1035537904
C   C43       1.0  0.96210  0.60680  0.03100  1.0000 -0.1035537904
C   C44       1.0  0.03790  0.10680  0.46900  1.0000 -0.1035537904
C   C45       1.0  0.93080  0.39750  0.92590  1.0000 -0.160326313
C   C46       1.0  0.06920  0.89750  0.57410  1.0000 -0.160326313
C   C47       1.0  0.06920  0.60250  0.07410  1.0000 -0.160326313
C   C48       1.0  0.93080  0.10250  0.42590  1.0000 -0.160326313
C   C49       1.0  0.84960  0.32610  0.91044  1.0000 0.0777290652
C   C50       1.0  0.15040  0.82610  0.58956  1.0000 0.0777290652
C   C51       1.0  0.15040  0.67390  0.08956  1.0000 0.0777290652
C   C52       1.0  0.84960  0.17390  0.41044  1.0000 0.0777290652
C   C53       1.0  0.87890  0.24740  0.94150  1.0000 -0.1756991481
C   C54       1.0  0.12110  0.74740  0.55850  1.0000 -0.1756991481
C   C55       1.0  0.12110  0.75260  0.05850  1.0000 -0.1756991481
C   C56       1.0  0.87890  0.25260  0.44150  1.0000 -0.1756991481
C   C57       1.0  0.73970  0.33120  0.86208  1.0000 0.0578870515
C   C58       1.0  0.26030  0.83120  0.63792  1.0000 0.0578870515
C   C59       1.0  0.26030  0.66880  0.13792  1.0000 0.0578870515
C   C60       1.0  0.73970  0.16880  0.36208  1.0000 0.0578870515
C   C61       1.0  0.73800  0.39380  0.81833  1.0000 -0.1283389589
C   C62       1.0  0.26200  0.89380  0.68167  1.0000 -0.1283389589
C   C63       1.0  0.26200  0.60620  0.18167  1.0000 -0.1283389589
C   C64       1.0  0.73800  0.10620  0.31833  1.0000 -0.1283389589
C   C65       1.0  0.63890  0.39950  0.77142  1.0000 -0.0404972991
C   C66       1.0  0.36110  0.89950  0.72858  1.0000 -0.0404972991
C   C67       1.0  0.36110  0.60050  0.22858  1.0000 -0.0404972991
C   C68       1.0  0.63890  0.10050  0.27142  1.0000 -0.0404972991
C   C69       1.0  0.53580  0.33770  0.76719  1.0000 -0.0863254329
C   C70       1.0  0.46420  0.83770  0.73281  1.0000 -0.0863254329
C   C71       1.0  0.46420  0.66230  0.23281  1.0000 -0.0863254329
C   C72       1.0  0.53580  0.16230  0.26719  1.0000 -0.0863254329
C   C73       1.0  0.53200  0.27380  0.81022  1.0000 -0.0301780512
C   C74       1.0  0.46800  0.77380  0.68978  1.0000 -0.0301780512
C   C75       1.0  0.46800  0.72620  0.18978  1.0000 -0.0301780512
C   C76       1.0  0.53200  0.22620  0.31022  1.0000 -0.0301780512
C   C77       1.0  0.63200  0.27150  0.85678  1.0000 -0.1219786142
C   C78       1.0  0.36800  0.77150  0.64322  1.0000 -0.1219786142
C   C79       1.0  0.36800  0.72850  0.14322  1.0000 -0.1219786142
C   C80       1.0  0.63200  0.22850  0.35678  1.0000 -0.1219786142
C   C81       1.0  0.41910  0.21150  0.80601  1.0000 0.6036167631
C   C82       1.0  0.58090  0.71150  0.69399  1.0000 0.6036167631
C   C83       1.0  0.58090  0.78850  0.19399  1.0000 0.6036167631
C   C84       1.0  0.41910  0.28850  0.30601  1.0000 0.6036167631
C   C85       1.0  0.64450  0.46870  0.72693  1.0000 0.6444280038
C   C86       1.0  0.35550  0.96870  0.77307  1.0000 0.6444280038
C   C87       1.0  0.35550  0.53130  0.27307  1.0000 0.6444280038
C   C88       1.0  0.64450  0.03130  0.22693  1.0000 0.6444280038
O   O1        1.0  0.85740  0.92900  0.13271  1.0000 -0.6867373099
O   O2        1.0  0.14260  0.42900  0.36729  1.0000 -0.6867373099
O   O3        1.0  0.14260  0.07100  0.86729  1.0000 -0.6867373099
O   O4        1.0  0.85740  0.57100  0.63271  1.0000 -0.6867373099
O   O5        1.0  0.70300  0.01219  0.08187  1.0000 -0.6262333418
O   O6        1.0  0.29700  0.51219  0.41813  1.0000 -0.6262333418
O   O7        1.0  0.29700  0.98781  0.91813  1.0000 -0.6225226731
O   O8        1.0  0.70300  0.48781  0.58187  1.0000 -0.6262333418
O   O9        1.0  0.32420  0.94432  0.10905  1.0000 -0.6225226731
O   O10       1.0  0.67580  0.44432  0.39095  1.0000 -0.6225226731
O   O11       1.0  0.67580  0.05568  0.89095  1.0000 -0.6225226731
O   O12       1.0  0.32420  0.55568  0.60905  1.0000 -0.6225226731
O   O13       1.0  0.40140  0.05743  0.06593  1.0000 -0.5956978013
O   O14       1.0  0.59860  0.55743  0.43407  1.0000 -0.5956978013
O   O15       1.0  0.59860  0.94257  0.93407  1.0000 -0.5956978013
O   O16       1.0  0.40140  0.44257  0.56593  1.0000 -0.5956978013
O   O17       1.0  0.40940  0.15701  0.84656  1.0000 -0.7098660728
O   O18       1.0  0.59060  0.65701  0.65344  1.0000 -0.7098660728
O   O19       1.0  0.59060  0.84299  0.15344  1.0000 -0.7098660728
O   O20       1.0  0.40940  0.34299  0.34656  1.0000 -0.7098660728
O   O21       1.0  0.32700  0.21730  0.76404  1.0000 -0.6146885862
O   O22       1.0  0.67300  0.71730  0.73596  1.0000 -0.6146885862
O   O23       1.0  0.67300  0.78270  0.23596  1.0000 -0.6146885862
O   O24       1.0  0.32700  0.28270  0.26404  1.0000 -0.6225226731
O   O25       1.0  0.55590  0.46786  0.68269  1.0000 -0.6262333418
O   O26       1.0  0.44410  0.96786  0.81731  1.0000 -0.6262333418
O   O27       1.0  0.44410  0.53214  0.31731  1.0000 -0.6262333418
O   O28       1.0  0.55590  0.03214  0.18269  1.0000 -0.6262333418
O   O29       1.0  0.73810  0.52310  0.73574  1.0000 -0.6669196596
O   O30       1.0  0.26190  0.02310  0.76426  1.0000 -0.6669196596
O   O31       1.0  0.26190  0.47690  0.26426  1.0000 -0.6669196596
O   O32       1.0  0.73810  0.97690  0.23574  1.0000 -0.6669196596
