# DDEC6 charges by PACMAN v1.1 (https://github.com/mtap-research/PACMAN-charge/)
data_0000[Cd][sra]3[ASR]2
_chemical_formula_sum              "Cd4 H24 C48 N8 O16"
_cell_length_a       10.1017
_cell_length_b       7.8858
_cell_length_c       17.3917
_cell_angle_alpha    90
_cell_angle_beta     101.935
_cell_angle_gamma    90

_symmetry_space_group_name_H-M    "P 1"
_symmetry_Int_Tables_number       1

loop_
  _symmetry_equiv_pos_as_xyz
  'x, y, z'

loop_
  _atom_site_type_symbol
  _atom_site_label
  _atom_site_symmetry_multiplicity
  _atom_site_fract_x
  _atom_site_fract_y
  _atom_site_fract_z
  _atom_site_occupancy
  _atom_site_charge
Cd  Cd1       1.0  0.53696  0.82270  0.12427  1.0000 0.8463769682
Cd  Cd2       1.0  0.46304  0.32270  0.37573  1.0000 0.8463769682
Cd  Cd3       1.0  0.46304  0.17730  0.87573  1.0000 0.8463769682
Cd  Cd4       1.0  0.53696  0.67730  0.62427  1.0000 0.8463769682
H   H1        1.0  0.16900  0.74470  0.92430  1.0000 0.1313363801
H   H2        1.0  0.96050  0.66580  0.85450  1.0000 0.120470367
H   H3        1.0  0.01050  0.83270  0.11290  1.0000 0.1313363801
H   H4        1.0  0.75070  0.77550  0.79130  1.0000 0.1313363801
H   H5        1.0  0.42570  0.50170  0.75510  1.0000 0.1101909555
H   H6        1.0  0.65930  0.49060  0.96200  1.0000 0.120470367
H   H7        1.0  0.83100  0.24470  0.57570  1.0000 0.1313363801
H   H8        1.0  0.03950  0.16580  0.64550  1.0000 0.120470367
H   H9        1.0  0.98950  0.33270  0.38710  1.0000 0.1313363801
H   H10       1.0  0.24930  0.27550  0.70870  1.0000 0.1313363801
H   H11       1.0  0.57430  0.00170  0.74490  1.0000 0.1101909555
H   H12       1.0  0.34070  0.99060  0.53800  1.0000 0.120470367
H   H13       1.0  0.83100  0.25530  0.07570  1.0000 0.1313363801
H   H14       1.0  0.03950  0.33420  0.14550  1.0000 0.120470367
H   H15       1.0  0.98950  0.16730  0.88710  1.0000 0.1313363801
H   H16       1.0  0.24930  0.22450  0.20870  1.0000 0.1313363801
H   H17       1.0  0.57430  0.49830  0.24490  1.0000 0.1101909555
H   H18       1.0  0.34070  0.50940  0.03800  1.0000 0.120470367
H   H19       1.0  0.16900  0.75530  0.42430  1.0000 0.1313363801
H   H20       1.0  0.96050  0.83420  0.35450  1.0000 0.120470367
H   H21       1.0  0.01050  0.66730  0.61290  1.0000 0.1313363801
H   H22       1.0  0.75070  0.72450  0.29130  1.0000 0.1313363801
H   H23       1.0  0.42570  0.99830  0.25510  1.0000 0.1101909555
H   H24       1.0  0.65930  0.00940  0.46200  1.0000 0.120470367
C   C1        1.0  0.25300  0.83730  0.07091  1.0000 0.5425088532
C   C2        1.0  0.11210  0.79710  0.02654  1.0000 -0.0145725667
C   C3        1.0  0.09490  0.74690  0.94839  1.0000 -0.1013149306
C   C4        1.0  0.96950  0.70070  0.90642  1.0000 -0.1411775522
C   C5        1.0  0.85590  0.70480  0.93950  1.0000 0.0592937447
C   C6        1.0  0.87190  0.75570  0.01885  1.0000 -0.0502191022
C   C7        1.0  0.00000  0.80010  0.06055  1.0000 -0.115290048
C   C8        1.0  0.75420  0.76970  0.05860  1.0000 0.5514198668
C   C9        1.0  0.72720  0.65000  0.88806  1.0000 0.0131102555
C   C10       1.0  0.69350  0.70070  0.80998  1.0000 0.0725890525
C   C11       1.0  0.50500  0.53640  0.78869  1.0000 0.195510456
C   C12       1.0  0.64040  0.53040  0.91053  1.0000 0.0998528987
C   C13       1.0  0.74700  0.33730  0.42909  1.0000 0.5425088532
C   C14       1.0  0.88790  0.29710  0.47346  1.0000 -0.0145725667
C   C15       1.0  0.90510  0.24690  0.55161  1.0000 -0.1013149306
C   C16       1.0  0.03050  0.20070  0.59358  1.0000 -0.1411775522
C   C17       1.0  0.14410  0.20480  0.56050  1.0000 0.0592937447
C   C18       1.0  0.12810  0.25570  0.48115  1.0000 -0.0502191022
C   C19       1.0  0.00000  0.30010  0.43945  1.0000 -0.1149679445
C   C20       1.0  0.24580  0.26970  0.44140  1.0000 0.5514198668
C   C21       1.0  0.27280  0.15000  0.61194  1.0000 0.0131102555
C   C22       1.0  0.30650  0.20070  0.69002  1.0000 0.0725890525
C   C23       1.0  0.49500  0.03640  0.71131  1.0000 0.195510456
C   C24       1.0  0.35960  0.03040  0.58947  1.0000 0.0998528987
C   C25       1.0  0.74700  0.16270  0.92909  1.0000 0.5425088532
C   C26       1.0  0.88790  0.20290  0.97346  1.0000 -0.0145725667
C   C27       1.0  0.90510  0.25310  0.05161  1.0000 -0.1013149306
C   C28       1.0  0.03050  0.29930  0.09358  1.0000 -0.1411775522
C   C29       1.0  0.14410  0.29520  0.06050  1.0000 0.0592937447
C   C30       1.0  0.12810  0.24430  0.98115  1.0000 -0.0502191022
C   C31       1.0  0.00000  0.19990  0.93945  1.0000 -0.1149679445
C   C32       1.0  0.24580  0.23030  0.94140  1.0000 0.5514198668
C   C33       1.0  0.27280  0.35000  0.11194  1.0000 0.0131102555
C   C34       1.0  0.30650  0.29930  0.19002  1.0000 0.0725890525
C   C35       1.0  0.49500  0.46360  0.21131  1.0000 0.195510456
C   C36       1.0  0.35960  0.46960  0.08947  1.0000 0.0998528987
C   C37       1.0  0.25300  0.66270  0.57091  1.0000 0.5425088532
C   C38       1.0  0.11210  0.70290  0.52654  1.0000 -0.0145725667
C   C39       1.0  0.09490  0.75310  0.44839  1.0000 -0.1013149306
C   C40       1.0  0.96950  0.79930  0.40642  1.0000 -0.1411775522
C   C41       1.0  0.85590  0.79520  0.43950  1.0000 0.0592937447
C   C42       1.0  0.87190  0.74430  0.51885  1.0000 -0.0502191022
C   C43       1.0  0.00000  0.69990  0.56055  1.0000 -0.115290048
C   C44       1.0  0.75420  0.73030  0.55860  1.0000 0.5514198668
C   C45       1.0  0.72720  0.85000  0.38806  1.0000 0.0131102555
C   C46       1.0  0.69350  0.79930  0.30998  1.0000 0.0725890525
C   C47       1.0  0.50500  0.96360  0.28869  1.0000 0.195510456
C   C48       1.0  0.64040  0.96960  0.41053  1.0000 0.0998528987
N   N1        1.0  0.58220  0.64660  0.76049  1.0000 -0.2712219529
N   N2        1.0  0.53100  0.47100  0.86084  1.0000 -0.2572539322
N   N3        1.0  0.41780  0.14660  0.73951  1.0000 -0.2712219529
N   N4        1.0  0.46900  0.97100  0.63916  1.0000 -0.2572539322
N   N5        1.0  0.41780  0.35340  0.23951  1.0000 -0.2712219529
N   N6        1.0  0.46900  0.52900  0.13916  1.0000 -0.2572539322
N   N7        1.0  0.58220  0.85340  0.26049  1.0000 -0.2712219529
N   N8        1.0  0.53100  0.02900  0.36084  1.0000 -0.2572539322
O   O1        1.0  0.27500  0.85990  0.14374  1.0000 -0.5779660814
O   O2        1.0  0.34620  0.83630  0.03227  1.0000 -0.5177872054
O   O3        1.0  0.77580  0.76980  0.13311  1.0000 -0.564805197
O   O4        1.0  0.63690  0.78440  0.01778  1.0000 -0.5143554084
O   O5        1.0  0.72500  0.35990  0.35626  1.0000 -0.5779660814
O   O6        1.0  0.65380  0.33630  0.46773  1.0000 -0.5177872054
O   O7        1.0  0.22420  0.26980  0.36689  1.0000 -0.564805197
O   O8        1.0  0.36310  0.28440  0.48222  1.0000 -0.5143554084
O   O9        1.0  0.72500  0.14010  0.85626  1.0000 -0.5779660814
O   O10       1.0  0.65380  0.16370  0.96773  1.0000 -0.5177872054
O   O11       1.0  0.22420  0.23020  0.86689  1.0000 -0.564805197
O   O12       1.0  0.36310  0.21560  0.98222  1.0000 -0.5143554084
O   O13       1.0  0.27500  0.64010  0.64374  1.0000 -0.5779660814
O   O14       1.0  0.34620  0.66370  0.53227  1.0000 -0.5177872054
O   O15       1.0  0.77580  0.73020  0.63311  1.0000 -0.564805197
O   O16       1.0  0.63690  0.71560  0.51778  1.0000 -0.5143554084
