# DDEC6 charges by PACMAN v1.1 (https://github.com/mtap-research/PACMAN-charge/)
data_0000[Fe][pcu]3[ASR]2
_chemical_formula_sum              "Fe4 H12 C12 O24"
_cell_length_a       8.413
_cell_length_b       8.9468
_cell_length_c       11.8306
_cell_angle_alpha    90
_cell_angle_beta     90
_cell_angle_gamma    90

_symmetry_space_group_name_H-M    "P 1"
_symmetry_Int_Tables_number       1

loop_
  _symmetry_equiv_pos_as_xyz
  'x, y, z'

loop_
  _atom_site_type_symbol
  _atom_site_label
  _atom_site_symmetry_multiplicity
  _atom_site_fract_x
  _atom_site_fract_y
  _atom_site_fract_z
  _atom_site_occupancy
  _atom_site_charge
Fe  Fe1       1.0  0.24750  0.25000  0.25000  1.0000 0.9675063419
Fe  Fe2       1.0  0.25250  0.25000  0.75000  1.0000 0.9675063419
Fe  Fe3       1.0  0.75250  0.75000  0.75000  1.0000 0.9675063419
Fe  Fe4       1.0  0.74750  0.75000  0.25000  1.0000 0.9675063419
H   H1        1.0  0.25000  0.29690  0.50000  1.0000 0.1284236253
H   H2        1.0  0.25000  0.20310  0.00000  1.0000 0.1284236253
H   H3        1.0  0.75000  0.70310  0.50000  1.0000 0.1284236253
H   H4        1.0  0.75000  0.79690  0.00000  1.0000 0.1284236253
H   H5        1.0  0.41430  0.93460  0.27410  1.0000 0.1284236253
H   H6        1.0  0.08570  0.93460  0.72590  1.0000 0.1284236253
H   H7        1.0  0.08570  0.56540  0.77410  1.0000 0.1284236253
H   H8        1.0  0.41430  0.56540  0.22590  1.0000 0.1284236253
H   H9        1.0  0.58570  0.06540  0.72590  1.0000 0.1284236253
H   H10       1.0  0.91430  0.06540  0.27410  1.0000 0.1284236253
H   H11       1.0  0.91430  0.43460  0.22590  1.0000 0.1284236253
H   H12       1.0  0.58570  0.43460  0.77410  1.0000 0.1284236253
C   C1        1.0  0.25000  0.19290  0.50000  1.0000 0.5300266075
C   C2        1.0  0.25000  0.30710  0.00000  1.0000 0.5300266075
C   C3        1.0  0.75000  0.80710  0.50000  1.0000 0.5300266075
C   C4        1.0  0.75000  0.69290  0.00000  1.0000 0.5300266075
C   C5        1.0  0.47710  0.98290  0.22070  1.0000 0.5300266075
C   C6        1.0  0.02290  0.98290  0.77930  1.0000 0.5300266075
C   C7        1.0  0.02290  0.51710  0.72070  1.0000 0.5300266075
C   C8        1.0  0.47710  0.51710  0.27930  1.0000 0.5300266075
C   C9        1.0  0.52290  0.01710  0.77930  1.0000 0.5300266075
C   C10       1.0  0.97710  0.01710  0.22070  1.0000 0.5300266075
C   C11       1.0  0.97710  0.48290  0.27930  1.0000 0.5300266075
C   C12       1.0  0.52290  0.48290  0.72070  1.0000 0.5300266075
O   O1        1.0  0.43878  0.11207  0.19286  1.0000 -0.468085326
O   O2        1.0  0.06122  0.11207  0.80714  1.0000 -0.468085326
O   O3        1.0  0.06122  0.38793  0.69286  1.0000 -0.468085326
O   O4        1.0  0.43878  0.38793  0.30714  1.0000 -0.468085326
O   O5        1.0  0.56122  0.88793  0.80714  1.0000 -0.468085326
O   O6        1.0  0.93878  0.88793  0.19286  1.0000 -0.468085326
O   O7        1.0  0.93878  0.61207  0.30714  1.0000 -0.468085326
O   O8        1.0  0.56122  0.61207  0.69286  1.0000 -0.468085326
O   O9        1.0  0.59350  0.91342  0.18212  1.0000 -0.5158649904
O   O10       1.0  0.90650  0.91342  0.81788  1.0000 -0.5158649904
O   O11       1.0  0.90650  0.58658  0.68212  1.0000 -0.5158649904
O   O12       1.0  0.59350  0.58658  0.31788  1.0000 -0.5158649904
O   O13       1.0  0.40650  0.08658  0.81788  1.0000 -0.5158649904
O   O14       1.0  0.09350  0.08658  0.18212  1.0000 -0.5158649904
O   O15       1.0  0.09350  0.41342  0.31788  1.0000 -0.5158649904
O   O16       1.0  0.40650  0.41342  0.68212  1.0000 -0.5158649904
O   O17       1.0  0.24412  0.13090  0.40639  1.0000 -0.4874782037
O   O18       1.0  0.25588  0.13090  0.59361  1.0000 -0.4874782037
O   O19       1.0  0.25588  0.36910  0.90639  1.0000 -0.4874782037
O   O20       1.0  0.24412  0.36910  0.09361  1.0000 -0.4874782037
O   O21       1.0  0.75588  0.86910  0.59361  1.0000 -0.4874782037
O   O22       1.0  0.74412  0.86910  0.40639  1.0000 -0.4874782037
O   O23       1.0  0.74412  0.63090  0.09361  1.0000 -0.4874782037
O   O24       1.0  0.75588  0.63090  0.90639  1.0000 -0.4874782037
