# DDEC6 charges by PACMAN v1.1 (https://github.com/mtap-research/PACMAN-charge/)
data_0000[Co][pcu]3[ASR]3
_chemical_formula_sum              "Co4 H44 C56 N8 O16"
_cell_length_a       8.267
_cell_length_b       14.724
_cell_length_c       13.344
_cell_angle_alpha    90
_cell_angle_beta     105.84
_cell_angle_gamma    90

_symmetry_space_group_name_H-M    "P 1"
_symmetry_Int_Tables_number       1

loop_
  _symmetry_equiv_pos_as_xyz
  'x, y, z'

loop_
  _atom_site_type_symbol
  _atom_site_label
  _atom_site_symmetry_multiplicity
  _atom_site_fract_x
  _atom_site_fract_y
  _atom_site_fract_z
  _atom_site_occupancy
  _atom_site_charge
Co  Co1       1.0  0.31660  0.08315  0.36953  1.0000 0.8500147574
Co  Co2       1.0  0.18340  0.58315  0.63047  1.0000 0.8500147574
Co  Co3       1.0  0.68340  0.91685  0.63047  1.0000 0.8500147574
Co  Co4       1.0  0.81660  0.41685  0.36953  1.0000 0.8500147574
H   H1        1.0  0.12020  0.30080  0.67660  1.0000 0.1225102116
H   H2        1.0  0.37980  0.80080  0.32340  1.0000 0.1225102116
H   H3        1.0  0.87980  0.69920  0.32340  1.0000 0.1225102116
H   H4        1.0  0.62020  0.19920  0.67660  1.0000 0.1225102116
H   H5        1.0  0.22010  0.05610  0.58460  1.0000 0.1225102116
H   H6        1.0  0.27990  0.55610  0.41540  1.0000 0.1225102116
H   H7        1.0  0.77990  0.94390  0.41540  1.0000 0.1225102116
H   H8        1.0  0.72010  0.44390  0.58460  1.0000 0.1225102116
H   H9        1.0  0.00850  0.11940  0.72490  1.0000 0.1117341546
H   H10       1.0  0.49150  0.61940  0.27510  1.0000 0.1117341546
H   H11       1.0  0.99150  0.88060  0.27510  1.0000 0.1117341546
H   H12       1.0  0.50850  0.38060  0.72490  1.0000 0.1117341546
H   H13       1.0  0.18180  0.06960  0.75300  1.0000 0.1014724816
H   H14       1.0  0.31820  0.56960  0.24700  1.0000 0.1117341546
H   H15       1.0  0.81820  0.93040  0.24700  1.0000 0.1014724816
H   H16       1.0  0.68180  0.43040  0.75300  1.0000 0.1014724816
H   H17       1.0  0.29590  0.19100  0.85560  1.0000 0.1117341546
H   H18       1.0  0.20410  0.69100  0.14440  1.0000 0.1117341546
H   H19       1.0  0.70410  0.80900  0.14440  1.0000 0.1117341546
H   H20       1.0  0.79590  0.30900  0.85560  1.0000 0.1117341546
H   H21       1.0  0.15690  0.13980  0.89330  1.0000 0.1117341546
H   H22       1.0  0.34310  0.63980  0.10670  1.0000 0.1117341546
H   H23       1.0  0.84310  0.86020  0.10670  1.0000 0.1117341546
H   H24       1.0  0.65690  0.36020  0.89330  1.0000 0.1117341546
H   H25       1.0  0.11460  0.23220  0.83350  1.0000 0.1117341546
H   H26       1.0  0.38540  0.73220  0.16650  1.0000 0.1117341546
H   H27       1.0  0.88540  0.76780  0.16650  1.0000 0.1117341546
H   H28       1.0  0.61460  0.26780  0.83350  1.0000 0.1117341546
H   H29       1.0  0.59090  0.10940  0.26810  1.0000 0.1225102116
H   H30       1.0  0.90910  0.60940  0.73190  1.0000 0.1225102116
H   H31       1.0  0.40910  0.89060  0.73190  1.0000 0.1225102116
H   H32       1.0  0.09090  0.39060  0.26810  1.0000 0.1225102116
H   H33       1.0  0.67190  0.08420  0.12190  1.0000 0.1413725205
H   H34       1.0  0.82810  0.58420  0.87810  1.0000 0.1413725205
H   H35       1.0  0.32810  0.91580  0.87810  1.0000 0.1413725205
H   H36       1.0  0.17190  0.41580  0.12190  1.0000 0.1413725205
H   H37       1.0  0.25890  0.93580  0.01500  1.0000 0.1344922744
H   H38       1.0  0.24110  0.43580  0.98500  1.0000 0.1344922744
H   H39       1.0  0.74110  0.06420  0.98500  1.0000 0.1344922744
H   H40       1.0  0.75890  0.56420  0.01500  1.0000 0.1344922744
H   H41       1.0  0.19680  0.96170  0.16850  1.0000 0.1117341546
H   H42       1.0  0.30320  0.46170  0.83150  1.0000 0.1117341546
H   H43       1.0  0.80320  0.03830  0.83150  1.0000 0.1117341546
H   H44       1.0  0.69680  0.53830  0.16850  1.0000 0.1117341546
C   C1        1.0  0.32080  0.27740  0.39400  1.0000 0.5256725662
C   C2        1.0  0.17920  0.77740  0.60600  1.0000 0.5256725662
C   C3        1.0  0.67920  0.72260  0.60600  1.0000 0.5256725662
C   C4        1.0  0.82080  0.22260  0.39400  1.0000 0.5256725662
C   C5        1.0  0.25240  0.24400  0.48090  1.0000 0.0667173304
C   C6        1.0  0.24760  0.74400  0.51910  1.0000 0.0667173304
C   C7        1.0  0.74760  0.75600  0.51910  1.0000 0.0667173304
C   C8        1.0  0.75240  0.25600  0.48090  1.0000 0.0667173304
C   C9        1.0  0.15670  0.26330  0.63120  1.0000 -0.1320382244
C   C10       1.0  0.34330  0.76330  0.36880  1.0000 -0.1320382244
C   C11       1.0  0.84330  0.73670  0.36880  1.0000 -0.1320382244
C   C12       1.0  0.65670  0.23670  0.63120  1.0000 -0.1320382244
C   C13       1.0  0.16860  0.17120  0.65050  1.0000 0.0799169932
C   C14       1.0  0.33140  0.67120  0.34950  1.0000 0.0799169932
C   C15       1.0  0.83140  0.82880  0.34950  1.0000 0.0799169932
C   C16       1.0  0.66860  0.32880  0.65050  1.0000 0.0799169932
C   C17       1.0  0.21730  0.11890  0.57660  1.0000 0.0492484607
C   C18       1.0  0.28270  0.61890  0.42340  1.0000 0.0492484607
C   C19       1.0  0.78270  0.88110  0.42340  1.0000 0.0492484607
C   C20       1.0  0.71730  0.38110  0.57660  1.0000 0.0492484607
C   C21       1.0  0.16810  0.40240  0.52910  1.0000 0.5976198428
C   C22       1.0  0.33190  0.90240  0.47090  1.0000 0.5976198428
C   C23       1.0  0.83190  0.59760  0.47090  1.0000 0.5976198428
C   C24       1.0  0.66810  0.09760  0.52910  1.0000 0.5976198428
C   C25       1.0  0.12900  0.12900  0.74230  1.0000 -0.1781070865
C   C26       1.0  0.37100  0.62900  0.25770  1.0000 -0.1781070865
C   C27       1.0  0.87100  0.87100  0.25770  1.0000 -0.1781070865
C   C28       1.0  0.62900  0.37100  0.74230  1.0000 -0.1781070865
C   C29       1.0  0.17810  0.17690  0.83920  1.0000 -0.3667010404
C   C30       1.0  0.32190  0.67690  0.16080  1.0000 -0.3667010404
C   C31       1.0  0.82190  0.82310  0.16080  1.0000 -0.3667010404
C   C32       1.0  0.67810  0.32310  0.83920  1.0000 -0.3667010404
C   C33       1.0  0.52230  0.07380  0.21600  1.0000 0.0918360167
C   C34       1.0  0.97770  0.57380  0.78400  1.0000 0.0918360167
C   C35       1.0  0.47770  0.92620  0.78400  1.0000 0.0918360167
C   C36       1.0  0.02230  0.42620  0.21600  1.0000 0.0918360167
C   C37       1.0  0.57180  0.05910  0.12790  1.0000 -0.1781070865
C   C38       1.0  0.92820  0.55910  0.87210  1.0000 -0.1781070865
C   C39       1.0  0.42820  0.94090  0.87210  1.0000 -0.1781070865
C   C40       1.0  0.07180  0.44090  0.12790  1.0000 -0.1781070865
C   C41       1.0  0.47600  0.00790  0.04870  1.0000 0.1014724816
C   C42       1.0  0.02400  0.50790  0.95130  1.0000 0.1014724816
C   C43       1.0  0.52400  0.99210  0.95130  1.0000 0.1014724816
C   C44       1.0  0.97600  0.49210  0.04870  1.0000 0.1014724816
C   C45       1.0  0.33030  0.97150  0.06580  1.0000 -0.2116678021
C   C46       1.0  0.16970  0.47150  0.93420  1.0000 -0.2116678021
C   C47       1.0  0.66970  0.02850  0.93420  1.0000 -0.2116678021
C   C48       1.0  0.83030  0.52850  0.06580  1.0000 -0.2116678021
C   C49       1.0  0.29260  0.98870  0.15800  1.0000 0.0667173304
C   C50       1.0  0.20740  0.48870  0.84200  1.0000 0.0667173304
C   C51       1.0  0.70740  0.01130  0.84200  1.0000 0.0667173304
C   C52       1.0  0.79260  0.51130  0.15800  1.0000 0.0667173304
C   C53       1.0  0.19670  0.30150  0.54750  1.0000 -0.0551174767
C   C54       1.0  0.30330  0.80150  0.45250  1.0000 -0.0551174767
C   C55       1.0  0.80330  0.69850  0.45250  1.0000 -0.0551174767
C   C56       1.0  0.69670  0.19850  0.54750  1.0000 -0.0551174767
N   N1        1.0  0.26010  0.15346  0.49530  1.0000 -0.2547861151
N   N2        1.0  0.23990  0.65346  0.50470  1.0000 -0.2547861151
N   N3        1.0  0.73990  0.84654  0.50470  1.0000 -0.2547861151
N   N4        1.0  0.76010  0.34654  0.49530  1.0000 -0.2547861151
N   N5        1.0  0.38220  0.04042  0.23190  1.0000 -0.2184681333
N   N6        1.0  0.11780  0.54042  0.76810  1.0000 -0.2184681333
N   N7        1.0  0.61780  0.95958  0.76810  1.0000 -0.2184681333
N   N8        1.0  0.88220  0.45958  0.23190  1.0000 -0.2184681333
O   O1        1.0  0.33770  0.21819  0.32848  1.0000 -0.5553612895
O   O2        1.0  0.16230  0.71819  0.67152  1.0000 -0.5553612895
O   O3        1.0  0.66230  0.78181  0.67152  1.0000 -0.5553612895
O   O4        1.0  0.83770  0.28181  0.32848  1.0000 -0.5553612895
O   O5        1.0  0.35850  0.35778  0.39266  1.0000 -0.4908148236
O   O6        1.0  0.14150  0.85778  0.60734  1.0000 -0.4908148236
O   O7        1.0  0.64150  0.64222  0.60734  1.0000 -0.4908148236
O   O8        1.0  0.85850  0.14222  0.39266  1.0000 -0.4908148236
O   O9        1.0  0.06740  0.42838  0.44628  1.0000 -0.5470754019
O   O10       1.0  0.43260  0.92838  0.55372  1.0000 -0.5470754019
O   O11       1.0  0.93260  0.57162  0.55372  1.0000 -0.5470754019
O   O12       1.0  0.56740  0.07162  0.44628  1.0000 -0.5470754019
O   O13       1.0  0.24310  0.45249  0.60258  1.0000 -0.5470754019
O   O14       1.0  0.25690  0.95249  0.39742  1.0000 -0.5470754019
O   O15       1.0  0.75690  0.54751  0.39742  1.0000 -0.5470754019
O   O16       1.0  0.74310  0.04751  0.60258  1.0000 -0.5470754019
