# DDEC6 charges by PACMAN v1.1 (https://github.com/mtap-research/PACMAN-charge/)
data_0000[Pr][rtl]3[ASR]1
_chemical_formula_sum              "Pr4 H20 C28 N4 O20"
_cell_length_a       8.309
_cell_length_b       16.158
_cell_length_c       9.35
_cell_angle_alpha    90
_cell_angle_beta     94.078
_cell_angle_gamma    90

_symmetry_space_group_name_H-M    "P 1"
_symmetry_Int_Tables_number       1

loop_
  _symmetry_equiv_pos_as_xyz
  'x, y, z'

loop_
  _atom_site_type_symbol
  _atom_site_label
  _atom_site_symmetry_multiplicity
  _atom_site_fract_x
  _atom_site_fract_y
  _atom_site_fract_z
  _atom_site_occupancy
  _atom_site_charge
Pr  Pr1       1.0  0.46810  0.60653  0.39198  1.0000 1.8630171887
Pr  Pr2       1.0  0.03190  0.10653  0.60802  1.0000 1.8630171887
Pr  Pr3       1.0  0.53190  0.39347  0.60802  1.0000 1.8630171887
Pr  Pr4       1.0  0.96810  0.89347  0.39198  1.0000 1.8630171887
H   H1        1.0  0.65400  0.71550  0.96620  1.0000 0.1185307245
H   H2        1.0  0.84600  0.21550  0.03380  1.0000 0.1185307245
H   H3        1.0  0.34600  0.28450  0.03380  1.0000 0.1185307245
H   H4        1.0  0.15400  0.78450  0.96620  1.0000 0.1185307245
H   H5        1.0  0.72350  0.78230  0.76960  1.0000 0.1185307245
H   H6        1.0  0.77650  0.28230  0.23040  1.0000 0.1185307245
H   H7        1.0  0.27650  0.21770  0.23040  1.0000 0.1185307245
H   H8        1.0  0.22350  0.71770  0.76960  1.0000 0.1185307245
H   H9        1.0  0.89470  0.96450  0.01850  1.0000 0.097060459
H   H10       1.0  0.60530  0.46450  0.98150  1.0000 0.097060459
H   H11       1.0  0.10530  0.03550  0.98150  1.0000 0.097060459
H   H12       1.0  0.39470  0.53550  0.01850  1.0000 0.097060459
H   H13       1.0  0.22130  0.45370  0.40630  1.0000 0.3648255042
H   H14       1.0  0.27870  0.95370  0.59370  1.0000 0.3655471078
H   H15       1.0  0.77870  0.54630  0.59370  1.0000 0.3655471078
H   H16       1.0  0.72130  0.04630  0.40630  1.0000 0.3655471078
H   H17       1.0  0.34470  0.44550  0.51940  1.0000 0.2620648018
H   H18       1.0  0.15530  0.94550  0.48060  1.0000 0.2620648018
H   H19       1.0  0.65530  0.55450  0.48060  1.0000 0.2620648018
H   H20       1.0  0.84470  0.05450  0.51940  1.0000 0.2620648018
C   C1        1.0  0.70700  0.75400  0.24500  1.0000 0.5847762398
C   C2        1.0  0.79300  0.25400  0.75500  1.0000 0.5847762398
C   C3        1.0  0.29300  0.24600  0.75500  1.0000 0.5847762398
C   C4        1.0  0.20700  0.74600  0.24500  1.0000 0.5847762398
C   C5        1.0  0.74200  0.79660  0.10700  1.0000 0.0817061088
C   C6        1.0  0.75800  0.29660  0.89300  1.0000 0.0817061088
C   C7        1.0  0.25800  0.20340  0.89300  1.0000 0.0817061088
C   C8        1.0  0.24200  0.70340  0.10700  1.0000 0.0817061088
C   C9        1.0  0.70700  0.76600  0.97600  1.0000 -0.1529521697
C   C10       1.0  0.79300  0.26600  0.02400  1.0000 -0.1529521697
C   C11       1.0  0.29300  0.23400  0.02400  1.0000 -0.1529521697
C   C12       1.0  0.20700  0.73400  0.97600  1.0000 -0.1529521697
C   C13       1.0  0.74400  0.80600  0.86000  1.0000 -0.0873089932
C   C14       1.0  0.75600  0.30600  0.14000  1.0000 -0.0873089932
C   C15       1.0  0.25600  0.19400  0.14000  1.0000 -0.0873089932
C   C16       1.0  0.24400  0.69400  0.86000  1.0000 -0.0873089932
C   C17       1.0  0.81500  0.88350  0.87400  1.0000 -0.0873089932
C   C18       1.0  0.68500  0.38350  0.12600  1.0000 -0.0873089932
C   C19       1.0  0.18500  0.11650  0.12600  1.0000 -0.0873089932
C   C20       1.0  0.31500  0.61650  0.87400  1.0000 -0.0873089932
C   C21       1.0  0.84800  0.91240  0.00800  1.0000 0.0459047279
C   C22       1.0  0.65200  0.41240  0.99200  1.0000 0.0459047279
C   C23       1.0  0.15200  0.08760  0.99200  1.0000 0.0459047279
C   C24       1.0  0.34800  0.58760  0.00800  1.0000 0.0459047279
C   C25       1.0  0.87100  0.92950  0.74400  1.0000 0.588232743
C   C26       1.0  0.62900  0.42950  0.25600  1.0000 0.588232743
C   C27       1.0  0.12900  0.07050  0.25600  1.0000 0.588232743
C   C28       1.0  0.37100  0.57050  0.74400  1.0000 0.588232743
N   N1        1.0  0.81600  0.87020  0.12700  1.0000 -0.3663077482
N   N2        1.0  0.68400  0.37020  0.87300  1.0000 -0.3647789288
N   N3        1.0  0.18400  0.12980  0.87300  1.0000 -0.3647789288
N   N4        1.0  0.31600  0.62980  0.12700  1.0000 -0.3647789288
O   O1        1.0  0.91900  0.99880  0.76100  1.0000 -0.6219107696
O   O2        1.0  0.58100  0.49880  0.23900  1.0000 -0.614508135
O   O3        1.0  0.08100  0.00120  0.23900  1.0000 -0.614508135
O   O4        1.0  0.41900  0.50120  0.76100  1.0000 -0.614508135
O   O5        1.0  0.85500  0.89140  0.62560  1.0000 -0.6707277649
O   O6        1.0  0.64500  0.39140  0.37440  1.0000 -0.6707277649
O   O7        1.0  0.14500  0.10860  0.37440  1.0000 -0.6707277649
O   O8        1.0  0.35500  0.60860  0.62560  1.0000 -0.6707277649
O   O9        1.0  0.62200  0.69250  0.23600  1.0000 -0.6219107696
O   O10       1.0  0.87800  0.19250  0.76400  1.0000 -0.6219107696
O   O11       1.0  0.37800  0.30750  0.76400  1.0000 -0.6219107696
O   O12       1.0  0.12200  0.80750  0.23600  1.0000 -0.6219107696
O   O13       1.0  0.76700  0.78900  0.35700  1.0000 -0.6707277649
O   O14       1.0  0.73300  0.28900  0.64300  1.0000 -0.6707277649
O   O15       1.0  0.23300  0.21100  0.64300  1.0000 -0.6707277649
O   O16       1.0  0.26700  0.71100  0.35700  1.0000 -0.6707277649
O   O17       1.0  0.32400  0.47090  0.44100  1.0000 -0.852734042
O   O18       1.0  0.17600  0.97090  0.55900  1.0000 -0.852734042
O   O19       1.0  0.67600  0.52910  0.55900  1.0000 -0.852734042
O   O20       1.0  0.82400  0.02910  0.44100  1.0000 -0.852734042
