# DDEC6 charges by PACMAN v1.1 (https://github.com/mtap-research/PACMAN-charge/)
data_0000[Eu][nan]3[ASR]2
_chemical_formula_sum              "Eu4 H128 C208 N16 O48"
_cell_length_a       9.895
_cell_length_b       12.587
_cell_length_c       44.67
_cell_angle_alpha    90
_cell_angle_beta     90
_cell_angle_gamma    90

_symmetry_space_group_name_H-M    "P 1"
_symmetry_Int_Tables_number       1

loop_
  _symmetry_equiv_pos_as_xyz
  'x, y, z'

loop_
  _atom_site_type_symbol
  _atom_site_label
  _atom_site_symmetry_multiplicity
  _atom_site_fract_x
  _atom_site_fract_y
  _atom_site_fract_z
  _atom_site_occupancy
  _atom_site_charge
Eu  Eu1       1.0  0.83965  0.50000  0.50000  1.0000 2.1609831099
Eu  Eu2       1.0  0.33965  0.50000  0.50000  1.0000 2.1609831099
Eu  Eu3       1.0  0.77142  0.00000  0.00000  1.0000 2.1759038214
Eu  Eu4       1.0  0.27142  0.00000  0.00000  1.0000 2.1759038214
H   H1        1.0  0.56422  0.32700  0.31807  1.0000 0.2880665455
H   H2        1.0  0.56422  0.67300  0.68193  1.0000 0.2880665455
H   H3        1.0  0.06422  0.67300  0.31807  1.0000 0.2880665455
H   H4        1.0  0.06422  0.32700  0.68193  1.0000 0.2880665455
H   H5        1.0  0.33071  0.19348  0.17620  1.0000 0.2880665455
H   H6        1.0  0.33071  0.80652  0.82380  1.0000 0.2880665455
H   H7        1.0  0.83071  0.80652  0.17620  1.0000 0.2880665455
H   H8        1.0  0.83071  0.19348  0.82380  1.0000 0.2880665455
H   H9        1.0  0.05358  0.22753  0.32590  1.0000 0.2972531561
H   H10       1.0  0.05358  0.77247  0.67410  1.0000 0.2972531561
H   H11       1.0  0.55358  0.77247  0.32590  1.0000 0.2972531561
H   H12       1.0  0.55358  0.22753  0.67410  1.0000 0.2972531561
H   H13       1.0  0.82166  0.25363  0.17802  1.0000 0.2828153018
H   H14       1.0  0.82166  0.74637  0.82198  1.0000 0.2828153018
H   H15       1.0  0.32166  0.74637  0.17802  1.0000 0.2828153018
H   H16       1.0  0.32166  0.25363  0.82198  1.0000 0.2828153018
H   H17       1.0  0.49803  0.18325  0.28751  1.0000 0.1292649148
H   H18       1.0  0.49803  0.81675  0.71249  1.0000 0.1292649148
H   H19       1.0  0.99803  0.81675  0.28751  1.0000 0.1292649148
H   H20       1.0  0.99803  0.18325  0.71249  1.0000 0.1292649148
H   H21       1.0  0.55232  0.14459  0.23730  1.0000 0.1208095452
H   H22       1.0  0.55232  0.85541  0.76270  1.0000 0.1208095452
H   H23       1.0  0.05232  0.85541  0.23730  1.0000 0.1208095452
H   H24       1.0  0.05232  0.14459  0.76270  1.0000 0.1208095452
H   H25       1.0  0.26495  0.50668  0.28152  1.0000 0.1208095452
H   H26       1.0  0.26495  0.49332  0.71848  1.0000 0.1208095452
H   H27       1.0  0.76495  0.49332  0.28152  1.0000 0.1208095452
H   H28       1.0  0.76495  0.50668  0.71848  1.0000 0.1208095452
H   H29       1.0  0.18536  0.60945  0.24237  1.0000 0.1108490565
H   H30       1.0  0.18536  0.39055  0.75763  1.0000 0.1108490565
H   H31       1.0  0.68536  0.39055  0.24237  1.0000 0.1108490565
H   H32       1.0  0.68536  0.60945  0.75763  1.0000 0.1108490565
H   H33       1.0  0.23066  0.56402  0.19357  1.0000 0.1208095452
H   H34       1.0  0.23066  0.43598  0.80643  1.0000 0.1208095452
H   H35       1.0  0.73066  0.43598  0.19357  1.0000 0.1208095452
H   H36       1.0  0.73066  0.56402  0.80643  1.0000 0.1208095452
H   H37       1.0  0.35463  0.41431  0.18240  1.0000 0.1208095452
H   H38       1.0  0.35463  0.58569  0.81760  1.0000 0.1208095452
H   H39       1.0  0.85463  0.58569  0.18240  1.0000 0.1208095452
H   H40       1.0  0.85463  0.41431  0.81760  1.0000 0.1208095452
H   H41       1.0  0.36811  0.36928  0.42306  1.0000 0.1292649148
H   H42       1.0  0.36811  0.63072  0.57694  1.0000 0.1292649148
H   H43       1.0  0.86811  0.63072  0.42306  1.0000 0.1292649148
H   H44       1.0  0.86811  0.36928  0.57694  1.0000 0.1292649148
H   H45       1.0  0.31975  0.33745  0.37261  1.0000 0.1292649148
H   H46       1.0  0.31975  0.66255  0.62739  1.0000 0.1292649148
H   H47       1.0  0.81975  0.66255  0.37261  1.0000 0.1292649148
H   H48       1.0  0.81975  0.33745  0.62739  1.0000 0.1292649148
H   H49       1.0  0.70568  0.40661  0.35303  1.0000 0.1292649148
H   H50       1.0  0.70568  0.59339  0.64697  1.0000 0.1292649148
H   H51       1.0  0.20568  0.59339  0.35303  1.0000 0.1292649148
H   H52       1.0  0.20568  0.40661  0.64697  1.0000 0.1292649148
H   H53       1.0  0.74863  0.44692  0.40312  1.0000 0.1208095452
H   H54       1.0  0.74863  0.55308  0.59688  1.0000 0.1208095452
H   H55       1.0  0.24863  0.55308  0.40312  1.0000 0.1208095452
H   H56       1.0  0.24863  0.44692  0.59688  1.0000 0.1208095452
H   H57       1.0  0.29975  0.13496  0.07479  1.0000 0.1292649148
H   H58       1.0  0.29975  0.86504  0.92521  1.0000 0.1292649148
H   H59       1.0  0.79975  0.86504  0.07479  1.0000 0.1292649148
H   H60       1.0  0.79975  0.13496  0.92521  1.0000 0.1292649148
H   H61       1.0  0.25861  0.19692  0.12348  1.0000 0.1292649148
H   H62       1.0  0.25861  0.80308  0.87652  1.0000 0.1292649148
H   H63       1.0  0.75861  0.80308  0.12348  1.0000 0.1292649148
H   H64       1.0  0.75861  0.19692  0.87652  1.0000 0.1292649148
H   H65       1.0  0.62806  0.10508  0.14876  1.0000 0.1292649148
H   H66       1.0  0.62806  0.89492  0.85124  1.0000 0.1292649148
H   H67       1.0  0.12806  0.89492  0.14876  1.0000 0.1292649148
H   H68       1.0  0.12806  0.10508  0.85124  1.0000 0.1292649148
H   H69       1.0  0.67640  0.05633  0.09910  1.0000 0.1208095452
H   H70       1.0  0.67640  0.94367  0.90090  1.0000 0.1208095452
H   H71       1.0  0.17640  0.94367  0.09910  1.0000 0.1208095452
H   H72       1.0  0.17640  0.05633  0.90090  1.0000 0.1208095452
H   H73       1.0  0.05167  0.33979  0.27920  1.0000 0.1292649148
H   H74       1.0  0.05167  0.66021  0.72080  1.0000 0.1292649148
H   H75       1.0  0.55167  0.66021  0.27920  1.0000 0.1292649148
H   H76       1.0  0.55167  0.33979  0.72080  1.0000 0.1292649148
H   H77       1.0  0.09875  0.33773  0.22838  1.0000 0.1208095452
H   H78       1.0  0.09875  0.66227  0.77162  1.0000 0.1208095452
H   H79       1.0  0.59875  0.66227  0.22838  1.0000 0.1208095452
H   H80       1.0  0.59875  0.33773  0.77162  1.0000 0.1208095452
H   H81       1.0  0.76957  0.05071  0.29329  1.0000 0.1292649148
H   H82       1.0  0.76957  0.94929  0.70671  1.0000 0.1292649148
H   H83       1.0  0.26957  0.94929  0.29329  1.0000 0.1292649148
H   H84       1.0  0.26957  0.05071  0.70671  1.0000 0.1292649148
H   H85       1.0  0.67595  0.92655  0.26311  1.0000 0.1208095452
H   H86       1.0  0.67595  0.07345  0.73689  1.0000 0.1208095452
H   H87       1.0  0.17595  0.07345  0.26311  1.0000 0.1208095452
H   H88       1.0  0.17595  0.92655  0.73689  1.0000 0.1208095452
H   H89       1.0  0.71980  0.92550  0.21210  1.0000 0.1108490565
H   H90       1.0  0.71980  0.07450  0.78790  1.0000 0.1108490565
H   H91       1.0  0.21980  0.07450  0.21210  1.0000 0.1108490565
H   H92       1.0  0.21980  0.92550  0.78790  1.0000 0.1108490565
H   H93       1.0  0.85361  0.05523  0.19078  1.0000 0.1208095452
H   H94       1.0  0.85361  0.94477  0.80922  1.0000 0.1208095452
H   H95       1.0  0.35361  0.94477  0.19078  1.0000 0.1208095452
H   H96       1.0  0.35361  0.05523  0.80922  1.0000 0.1208095452
H   H97       1.0  0.77262  0.14451  0.41645  1.0000 0.1208095452
H   H98       1.0  0.77262  0.85549  0.58355  1.0000 0.1208095452
H   H99       1.0  0.27262  0.85549  0.41645  1.0000 0.1208095452
H   H100      1.0  0.27262  0.14451  0.58355  1.0000 0.1208095452
H   H101      1.0  0.80794  0.13239  0.36546  1.0000 0.1292649148
H   H102      1.0  0.80794  0.86761  0.63454  1.0000 0.1292649148
H   H103      1.0  0.30794  0.86761  0.36546  1.0000 0.1292649148
H   H104      1.0  0.30794  0.13239  0.63454  1.0000 0.1292649148
H   H105      1.0  0.08897  0.36060  0.37034  1.0000 0.1292649148
H   H106      1.0  0.08897  0.63940  0.62966  1.0000 0.1292649148
H   H107      1.0  0.58897  0.63940  0.37034  1.0000 0.1292649148
H   H108      1.0  0.58897  0.36060  0.62966  1.0000 0.1292649148
H   H109      1.0  0.06589  0.36467  0.42223  1.0000 0.1208095452
H   H110      1.0  0.06589  0.63533  0.57777  1.0000 0.1208095452
H   H111      1.0  0.56589  0.63533  0.42223  1.0000 0.1208095452
H   H112      1.0  0.56589  0.36467  0.57777  1.0000 0.1208095452
H   H113      1.0  0.71553  0.35967  0.08271  1.0000 0.1208095452
H   H114      1.0  0.71553  0.64033  0.91729  1.0000 0.1208095452
H   H115      1.0  0.21553  0.64033  0.08271  1.0000 0.1208095452
H   H116      1.0  0.21553  0.35967  0.91729  1.0000 0.1208095452
H   H117      1.0  0.75724  0.36435  0.13419  1.0000 0.1364540961
H   H118      1.0  0.75724  0.63565  0.86581  1.0000 0.1364540961
H   H119      1.0  0.25724  0.63565  0.13419  1.0000 0.1364540961
H   H120      1.0  0.25724  0.36435  0.86581  1.0000 0.1364540961
H   H121      1.0  0.02638  0.13551  0.12652  1.0000 0.1292649148
H   H122      1.0  0.02638  0.86449  0.87348  1.0000 0.1292649148
H   H123      1.0  0.52638  0.86449  0.12652  1.0000 0.1292649148
H   H124      1.0  0.52638  0.13551  0.87348  1.0000 0.1292649148
H   H125      1.0  0.00109  0.13602  0.07502  1.0000 0.1292649148
H   H126      1.0  0.00109  0.86398  0.92498  1.0000 0.1292649148
H   H127      1.0  0.50109  0.86398  0.07502  1.0000 0.1292649148
H   H128      1.0  0.50109  0.13602  0.92498  1.0000 0.1292649148
C   C1        1.0  0.37580  0.34670  0.31195  1.0000 0.4618389141
C   C2        1.0  0.37580  0.65330  0.68805  1.0000 0.4618389141
C   C3        1.0  0.87580  0.65330  0.31195  1.0000 0.4618389141
C   C4        1.0  0.87580  0.34670  0.68805  1.0000 0.4618389141
C   C5        1.0  0.50640  0.23960  0.18815  1.0000 0.469188491
C   C6        1.0  0.50640  0.76040  0.81185  1.0000 0.469188491
C   C7        1.0  0.00640  0.76040  0.18815  1.0000 0.469188491
C   C8        1.0  0.00640  0.23960  0.81185  1.0000 0.469188491
C   C9        1.0  0.40060  0.32050  0.27873  1.0000 -0.0603435691
C   C10       1.0  0.40060  0.67950  0.72127  1.0000 -0.0603435691
C   C11       1.0  0.90060  0.67950  0.27873  1.0000 -0.0603435691
C   C12       1.0  0.90060  0.32050  0.72127  1.0000 -0.0603435691
C   C13       1.0  0.47060  0.22850  0.27221  1.0000 -0.1338138449
C   C14       1.0  0.47060  0.77150  0.72779  1.0000 -0.1338138449
C   C15       1.0  0.97060  0.77150  0.27221  1.0000 -0.1338138449
C   C16       1.0  0.97060  0.22850  0.72779  1.0000 -0.1338138449
C   C17       1.0  0.50020  0.20380  0.24198  1.0000 -0.1096422392
C   C18       1.0  0.50020  0.79620  0.75802  1.0000 -0.1096422392
C   C19       1.0  0.00020  0.79620  0.24198  1.0000 -0.1096422392
C   C20       1.0  0.00020  0.20380  0.75802  1.0000 -0.1096422392
C   C21       1.0  0.45100  0.26850  0.21954  1.0000 -0.0603435691
C   C22       1.0  0.45100  0.73150  0.78046  1.0000 -0.0603435691
C   C23       1.0  0.95100  0.73150  0.21954  1.0000 -0.0603435691
C   C24       1.0  0.95100  0.26850  0.78046  1.0000 -0.0603435691
C   C25       1.0  0.38170  0.35990  0.22554  1.0000 0.059078103
C   C26       1.0  0.38170  0.64010  0.77446  1.0000 0.059078103
C   C27       1.0  0.88170  0.64010  0.22554  1.0000 0.059078103
C   C28       1.0  0.88170  0.35990  0.77446  1.0000 0.059078103
C   C29       1.0  0.35050  0.38910  0.25613  1.0000 0.0470217057
C   C30       1.0  0.35050  0.61090  0.74387  1.0000 0.0470217057
C   C31       1.0  0.85050  0.61090  0.25613  1.0000 0.0470217057
C   C32       1.0  0.85050  0.38910  0.74387  1.0000 0.0470217057
C   C33       1.0  0.28040  0.48540  0.26188  1.0000 -0.1592215691
C   C34       1.0  0.28040  0.51460  0.73812  1.0000 -0.1592215691
C   C35       1.0  0.78040  0.51460  0.26188  1.0000 -0.1592215691
C   C36       1.0  0.78040  0.48540  0.73812  1.0000 -0.1592215691
C   C37       1.0  0.23480  0.54830  0.23831  1.0000 -0.0798014204
C   C38       1.0  0.23480  0.45170  0.76169  1.0000 -0.0798014204
C   C39       1.0  0.73480  0.45170  0.23831  1.0000 -0.0798014204
C   C40       1.0  0.73480  0.54830  0.76169  1.0000 -0.0798014204
C   C41       1.0  0.26190  0.52100  0.20901  1.0000 -0.0882714027
C   C42       1.0  0.26190  0.47900  0.79099  1.0000 -0.0882714027
C   C43       1.0  0.76190  0.47900  0.20901  1.0000 -0.0882714027
C   C44       1.0  0.76190  0.52100  0.79099  1.0000 -0.0882714027
C   C45       1.0  0.33520  0.43010  0.20227  1.0000 -0.1358291711
C   C46       1.0  0.33520  0.56990  0.79773  1.0000 -0.1358291711
C   C47       1.0  0.83520  0.56990  0.20227  1.0000 -0.1358291711
C   C48       1.0  0.83520  0.43010  0.79773  1.0000 -0.1358291711
C   C49       1.0  0.59000  0.43550  0.45020  1.0000 0.6631556545
C   C50       1.0  0.59000  0.56450  0.54980  1.0000 0.6631556545
C   C51       1.0  0.09000  0.56450  0.45020  1.0000 0.6631556545
C   C52       1.0  0.09000  0.43550  0.54980  1.0000 0.6631556545
C   C53       1.0  0.56370  0.40960  0.41810  1.0000 -0.0378453638
C   C54       1.0  0.56370  0.59040  0.58190  1.0000 -0.0378453638
C   C55       1.0  0.06370  0.59040  0.41810  1.0000 -0.0378453638
C   C56       1.0  0.06370  0.40960  0.58190  1.0000 -0.0378453638
C   C57       1.0  0.43570  0.37790  0.40880  1.0000 -0.0798014204
C   C58       1.0  0.43570  0.62210  0.59120  1.0000 -0.0798014204
C   C59       1.0  0.93570  0.62210  0.40880  1.0000 -0.0798014204
C   C60       1.0  0.93570  0.37790  0.59120  1.0000 -0.0798014204
C   C61       1.0  0.40560  0.35840  0.37870  1.0000 -0.180668953
C   C62       1.0  0.40560  0.64160  0.62130  1.0000 -0.180668953
C   C63       1.0  0.90560  0.64160  0.37870  1.0000 -0.180668953
C   C64       1.0  0.90560  0.35840  0.62130  1.0000 -0.180668953
C   C65       1.0  0.51000  0.37210  0.35850  1.0000 0.2295546811
C   C66       1.0  0.51000  0.62790  0.64150  1.0000 0.2295546811
C   C67       1.0  0.01000  0.62790  0.35850  1.0000 0.2295546811
C   C68       1.0  0.01000  0.37210  0.64150  1.0000 0.2295546811
C   C69       1.0  0.63690  0.40130  0.36720  1.0000 -0.180668953
C   C70       1.0  0.63690  0.59870  0.63280  1.0000 -0.180668953
C   C71       1.0  0.13690  0.59870  0.36720  1.0000 -0.180668953
C   C72       1.0  0.13690  0.40130  0.63280  1.0000 -0.180668953
C   C73       1.0  0.66360  0.42320  0.39730  1.0000 -0.0798014204
C   C74       1.0  0.66360  0.57680  0.60270  1.0000 -0.0798014204
C   C75       1.0  0.16360  0.57680  0.39730  1.0000 -0.0798014204
C   C76       1.0  0.16360  0.42320  0.60270  1.0000 -0.0798014204
C   C77       1.0  0.52360  0.06580  0.04970  1.0000 0.6631556545
C   C78       1.0  0.52360  0.93420  0.95030  1.0000 0.6631556545
C   C79       1.0  0.02360  0.93420  0.04970  1.0000 0.6631556545
C   C80       1.0  0.02360  0.06580  0.95030  1.0000 0.6631556545
C   C81       1.0  0.49680  0.09670  0.08170  1.0000 -0.0333192944
C   C82       1.0  0.49680  0.90330  0.91830  1.0000 -0.0333192944
C   C83       1.0  0.99680  0.90330  0.08170  1.0000 -0.0333192944
C   C84       1.0  0.99680  0.09670  0.91830  1.0000 -0.0333192944
C   C85       1.0  0.36790  0.13350  0.08910  1.0000 -0.0687187289
C   C86       1.0  0.36790  0.86650  0.91090  1.0000 -0.0687187289
C   C87       1.0  0.86790  0.86650  0.08910  1.0000 -0.0687187289
C   C88       1.0  0.86790  0.13350  0.91090  1.0000 -0.0687187289
C   C89       1.0  0.34230  0.16840  0.11850  1.0000 -0.180668953
C   C90       1.0  0.34230  0.83160  0.88150  1.0000 -0.180668953
C   C91       1.0  0.84230  0.83160  0.11850  1.0000 -0.180668953
C   C92       1.0  0.84230  0.16840  0.88150  1.0000 -0.180668953
C   C93       1.0  0.44380  0.15990  0.14000  1.0000 0.2238841896
C   C94       1.0  0.44380  0.84010  0.86000  1.0000 0.2238841896
C   C95       1.0  0.94380  0.84010  0.14000  1.0000 0.2238841896
C   C96       1.0  0.94380  0.15990  0.86000  1.0000 0.2238841896
C   C97       1.0  0.56430  0.11550  0.13370  1.0000 -0.180668953
C   C98       1.0  0.56430  0.88450  0.86630  1.0000 -0.180668953
C   C99       1.0  0.06430  0.88450  0.13370  1.0000 -0.180668953
C   C100      1.0  0.06430  0.11550  0.86630  1.0000 -0.180668953
C   C101      1.0  0.59230  0.08480  0.10380  1.0000 -0.0798014204
C   C102      1.0  0.59230  0.91520  0.89620  1.0000 -0.0798014204
C   C103      1.0  0.09230  0.91520  0.10380  1.0000 -0.0798014204
C   C104      1.0  0.09230  0.08480  0.89620  1.0000 -0.0798014204
C   C105      1.0  0.87470  0.23310  0.31082  1.0000 0.469188491
C   C106      1.0  0.87470  0.76690  0.68918  1.0000 0.469188491
C   C107      1.0  0.37470  0.76690  0.31082  1.0000 0.469188491
C   C108      1.0  0.37470  0.23310  0.68918  1.0000 0.469188491
C   C109      1.0  0.00540  0.22830  0.18339  1.0000 0.4618389141
C   C110      1.0  0.00540  0.77170  0.81661  1.0000 0.4618389141
C   C111      1.0  0.50540  0.77170  0.18339  1.0000 0.4618389141
C   C112      1.0  0.50540  0.22830  0.81661  1.0000 0.4618389141
C   C113      1.0  0.92250  0.22490  0.27819  1.0000 -0.0687187289
C   C114      1.0  0.92250  0.77510  0.72181  1.0000 -0.0687187289
C   C115      1.0  0.42250  0.77510  0.27819  1.0000 -0.0687187289
C   C116      1.0  0.42250  0.22490  0.72181  1.0000 -0.0687187289
C   C117      1.0  0.00840  0.29090  0.26688  1.0000 -0.0882714027
C   C118      1.0  0.00840  0.70910  0.73312  1.0000 -0.0882714027
C   C119      1.0  0.50840  0.70910  0.26688  1.0000 -0.0882714027
C   C120      1.0  0.50840  0.29090  0.73312  1.0000 -0.0882714027
C   C121      1.0  0.03690  0.28920  0.23601  1.0000 -0.1096422392
C   C122      1.0  0.03690  0.71080  0.76399  1.0000 -0.1096422392
C   C123      1.0  0.53690  0.71080  0.23601  1.0000 -0.1096422392
C   C124      1.0  0.53690  0.28920  0.76399  1.0000 -0.1096422392
C   C125      1.0  0.97710  0.21890  0.21686  1.0000 -0.0687187289
C   C126      1.0  0.97710  0.78110  0.78314  1.0000 -0.0687187289
C   C127      1.0  0.47710  0.78110  0.21686  1.0000 -0.0687187289
C   C128      1.0  0.47710  0.21890  0.78314  1.0000 -0.0687187289
C   C129      1.0  0.89040  0.13640  0.22861  1.0000 0.0470217057
C   C130      1.0  0.89040  0.86360  0.77139  1.0000 0.0470217057
C   C131      1.0  0.39040  0.86360  0.22861  1.0000 0.0470217057
C   C132      1.0  0.39040  0.13640  0.77139  1.0000 0.0470217057
C   C133      1.0  0.85820  0.13800  0.26024  1.0000 0.059078103
C   C134      1.0  0.85820  0.86200  0.73976  1.0000 0.059078103
C   C135      1.0  0.35820  0.86200  0.26024  1.0000 0.059078103
C   C136      1.0  0.35820  0.13800  0.73976  1.0000 0.059078103
C   C137      1.0  0.78290  0.05410  0.27271  1.0000 -0.1476603243
C   C138      1.0  0.78290  0.94590  0.72729  1.0000 -0.1476603243
C   C139      1.0  0.28290  0.94590  0.27271  1.0000 -0.1476603243
C   C140      1.0  0.28290  0.05410  0.72729  1.0000 -0.1476603243
C   C141      1.0  0.73050  0.97920  0.25489  1.0000 -0.0882714027
C   C142      1.0  0.73050  0.02080  0.74511  1.0000 -0.0882714027
C   C143      1.0  0.23050  0.02080  0.25489  1.0000 -0.0882714027
C   C144      1.0  0.23050  0.97920  0.74511  1.0000 -0.0882714027
C   C145      1.0  0.75650  0.97870  0.22406  1.0000 -0.0882714027
C   C146      1.0  0.75650  0.02130  0.77594  1.0000 -0.0882714027
C   C147      1.0  0.25650  0.02130  0.22406  1.0000 -0.0882714027
C   C148      1.0  0.25650  0.97870  0.77594  1.0000 -0.0882714027
C   C149      1.0  0.83640  0.05670  0.21125  1.0000 -0.1476603243
C   C150      1.0  0.83640  0.94330  0.78875  1.0000 -0.1476603243
C   C151      1.0  0.33640  0.94330  0.21125  1.0000 -0.1476603243
C   C152      1.0  0.33640  0.05670  0.78875  1.0000 -0.1476603243
C   C153      1.0  0.87880  0.27170  0.45690  1.0000 0.6003105883
C   C154      1.0  0.87880  0.72830  0.54310  1.0000 0.6003105883
C   C155      1.0  0.37880  0.72830  0.45690  1.0000 0.6003105883
C   C156      1.0  0.37880  0.27170  0.54310  1.0000 0.6003105883
C   C157      1.0  0.91220  0.26100  0.42410  1.0000 -0.0167279671
C   C158      1.0  0.91220  0.73900  0.57590  1.0000 -0.0167279671
C   C159      1.0  0.41220  0.73900  0.42410  1.0000 -0.0167279671
C   C160      1.0  0.41220  0.26100  0.57590  1.0000 -0.0167279671
C   C161      1.0  0.83640  0.18770  0.40720  1.0000 -0.0798014204
C   C162      1.0  0.83640  0.81230  0.59280  1.0000 -0.0798014204
C   C163      1.0  0.33640  0.81230  0.40720  1.0000 -0.0798014204
C   C164      1.0  0.33640  0.18770  0.59280  1.0000 -0.0798014204
C   C165      1.0  0.85750  0.18060  0.37680  1.0000 -0.180668953
C   C166      1.0  0.85750  0.81940  0.62320  1.0000 -0.180668953
C   C167      1.0  0.35750  0.81940  0.37680  1.0000 -0.180668953
C   C168      1.0  0.35750  0.18060  0.62320  1.0000 -0.180668953
C   C169      1.0  0.95170  0.24470  0.36310  1.0000 0.2368628029
C   C170      1.0  0.95170  0.75530  0.63690  1.0000 0.2368628029
C   C171      1.0  0.45170  0.75530  0.36310  1.0000 0.2368628029
C   C172      1.0  0.45170  0.24470  0.63690  1.0000 0.2368628029
C   C173      1.0  0.02720  0.31610  0.37980  1.0000 -0.1986119207
C   C174      1.0  0.02720  0.68390  0.62020  1.0000 -0.1986119207
C   C175      1.0  0.52720  0.68390  0.37980  1.0000 -0.1986119207
C   C176      1.0  0.52720  0.31610  0.62020  1.0000 -0.1986119207
C   C177      1.0  0.01060  0.32100  0.41080  1.0000 -0.0798014204
C   C178      1.0  0.01060  0.67900  0.58920  1.0000 -0.0798014204
C   C179      1.0  0.51060  0.67900  0.41080  1.0000 -0.0798014204
C   C180      1.0  0.51060  0.32100  0.58920  1.0000 -0.0798014204
C   C181      1.0  0.81720  0.23210  0.04130  1.0000 0.6003105883
C   C182      1.0  0.81720  0.76790  0.95870  1.0000 0.6003105883
C   C183      1.0  0.31720  0.76790  0.04130  1.0000 0.6003105883
C   C184      1.0  0.31720  0.23210  0.95870  1.0000 0.6003105883
C   C185      1.0  0.84900  0.24050  0.07410  1.0000 -0.0149790346
C   C186      1.0  0.84900  0.75950  0.92590  1.0000 -0.0149790346
C   C187      1.0  0.34900  0.75950  0.07410  1.0000 -0.0149790346
C   C188      1.0  0.34900  0.24050  0.92590  1.0000 -0.0149790346
C   C189      1.0  0.77750  0.31350  0.09140  1.0000 -0.0798014204
C   C190      1.0  0.77750  0.68650  0.90860  1.0000 -0.0798014204
C   C191      1.0  0.27750  0.68650  0.09140  1.0000 -0.0798014204
C   C192      1.0  0.27750  0.31350  0.90860  1.0000 -0.0798014204
C   C193      1.0  0.80200  0.31520  0.12220  1.0000 -0.180668953
C   C194      1.0  0.80200  0.68480  0.87780  1.0000 -0.180668953
C   C195      1.0  0.30200  0.68480  0.12220  1.0000 -0.180668953
C   C196      1.0  0.30200  0.31520  0.87780  1.0000 -0.180668953
C   C197      1.0  0.89110  0.24540  0.13510  1.0000 0.208220834
C   C198      1.0  0.89110  0.75460  0.86490  1.0000 0.208220834
C   C199      1.0  0.39110  0.75460  0.13510  1.0000 0.208220834
C   C200      1.0  0.39110  0.24540  0.86490  1.0000 0.208220834
C   C201      1.0  0.96330  0.18060  0.11780  1.0000 -0.180668953
C   C202      1.0  0.96330  0.81940  0.88220  1.0000 -0.180668953
C   C203      1.0  0.46330  0.81940  0.11780  1.0000 -0.180668953
C   C204      1.0  0.46330  0.18060  0.88220  1.0000 -0.180668953
C   C205      1.0  0.94640  0.17890  0.08690  1.0000 -0.0798014204
C   C206      1.0  0.94640  0.82110  0.91310  1.0000 -0.0798014204
C   C207      1.0  0.44640  0.82110  0.08690  1.0000 -0.0798014204
C   C208      1.0  0.44640  0.17890  0.91310  1.0000 -0.0798014204
N   N1        1.0  0.49270  0.34560  0.32770  1.0000 -0.3688285168
N   N2        1.0  0.49270  0.65440  0.67230  1.0000 -0.3688285168
N   N3        1.0  0.99270  0.65440  0.32770  1.0000 -0.3688285168
N   N4        1.0  0.99270  0.34560  0.67230  1.0000 -0.3688285168
N   N5        1.0  0.41270  0.19790  0.16990  1.0000 -0.3761237319
N   N6        1.0  0.41270  0.80210  0.83010  1.0000 -0.3688285168
N   N7        1.0  0.91270  0.80210  0.16990  1.0000 -0.3761237319
N   N8        1.0  0.91270  0.19790  0.83010  1.0000 -0.3688285168
N   N9        1.0  0.97150  0.23400  0.33200  1.0000 -0.3688285168
N   N10       1.0  0.97150  0.76600  0.66800  1.0000 -0.3688285168
N   N11       1.0  0.47150  0.76600  0.33200  1.0000 -0.3688285168
N   N12       1.0  0.47150  0.23400  0.66800  1.0000 -0.3688285168
N   N13       1.0  0.89570  0.24380  0.16830  1.0000 -0.3623118307
N   N14       1.0  0.89570  0.75620  0.83170  1.0000 -0.3623118307
N   N15       1.0  0.39570  0.75620  0.16830  1.0000 -0.3623118307
N   N16       1.0  0.39570  0.24380  0.83170  1.0000 -0.3623118307
O   O1        1.0  0.26270  0.35740  0.32180  1.0000 -0.4794267024
O   O2        1.0  0.26270  0.64260  0.67820  1.0000 -0.4794267024
O   O3        1.0  0.76270  0.64260  0.32180  1.0000 -0.4794267024
O   O4        1.0  0.76270  0.35740  0.67820  1.0000 -0.4794267024
O   O5        1.0  0.62310  0.25500  0.18090  1.0000 -0.4698384385
O   O6        1.0  0.62310  0.74500  0.81910  1.0000 -0.4698384385
O   O7        1.0  0.12310  0.74500  0.18090  1.0000 -0.4698384385
O   O8        1.0  0.12310  0.25500  0.81910  1.0000 -0.4698384385
O   O9        1.0  0.70750  0.46590  0.45726  1.0000 -0.6799286163
O   O10       1.0  0.70750  0.53410  0.54274  1.0000 -0.6799286163
O   O11       1.0  0.20750  0.53410  0.45726  1.0000 -0.6799286163
O   O12       1.0  0.20750  0.46590  0.54274  1.0000 -0.6799286163
O   O13       1.0  0.49930  0.42200  0.46876  1.0000 -0.6391840483
O   O14       1.0  0.49930  0.57800  0.53124  1.0000 -0.6391840483
O   O15       1.0  0.99930  0.57800  0.46876  1.0000 -0.6391840483
O   O16       1.0  0.99930  0.42200  0.53124  1.0000 -0.6391840483
O   O17       1.0  0.64170  0.03320  0.04400  1.0000 -0.6799286163
O   O18       1.0  0.64170  0.96680  0.95600  1.0000 -0.6799286163
O   O19       1.0  0.14170  0.96680  0.04400  1.0000 -0.6799286163
O   O20       1.0  0.14170  0.03320  0.95600  1.0000 -0.6799286163
O   O21       1.0  0.43180  0.07650  0.03054  1.0000 -0.6799286163
O   O22       1.0  0.43180  0.92350  0.96946  1.0000 -0.6799286163
O   O23       1.0  0.93180  0.92350  0.03054  1.0000 -0.6799286163
O   O24       1.0  0.93180  0.07650  0.96946  1.0000 -0.6799286163
O   O25       1.0  0.75270  0.23500  0.31640  1.0000 -0.4698384385
O   O26       1.0  0.75270  0.76500  0.68360  1.0000 -0.4698384385
O   O27       1.0  0.25270  0.76500  0.31640  1.0000 -0.4698384385
O   O28       1.0  0.25270  0.23500  0.68360  1.0000 -0.4698384385
O   O29       1.0  0.12330  0.21870  0.17400  1.0000 -0.5025286432
O   O30       1.0  0.12330  0.78130  0.82600  1.0000 -0.5025286432
O   O31       1.0  0.62330  0.78130  0.17400  1.0000 -0.5025286432
O   O32       1.0  0.62330  0.21870  0.82600  1.0000 -0.5025286432
O   O33       1.0  0.94140  0.34720  0.47110  1.0000 -0.6922562178
O   O34       1.0  0.94140  0.65280  0.52890  1.0000 -0.6922562178
O   O35       1.0  0.44140  0.65280  0.47110  1.0000 -0.6922562178
O   O36       1.0  0.44140  0.34720  0.52890  1.0000 -0.6922562178
O   O37       1.0  0.78660  0.21400  0.46860  1.0000 -0.5207269545
O   O38       1.0  0.78660  0.78600  0.53140  1.0000 -0.5207269545
O   O39       1.0  0.28660  0.78600  0.46860  1.0000 -0.5207269545
O   O40       1.0  0.28660  0.21400  0.53140  1.0000 -0.5207269545
O   O41       1.0  0.87340  0.15460  0.02655  1.0000 -0.6961298938
O   O42       1.0  0.87340  0.84540  0.97345  1.0000 -0.6961298938
O   O43       1.0  0.37340  0.84540  0.02655  1.0000 -0.6961298938
O   O44       1.0  0.37340  0.15460  0.97345  1.0000 -0.6961298938
O   O45       1.0  0.72390  0.28880  0.03040  1.0000 -0.5025286432
O   O46       1.0  0.72390  0.71120  0.96960  1.0000 -0.5025286432
O   O47       1.0  0.22390  0.71120  0.03040  1.0000 -0.5025286432
O   O48       1.0  0.22390  0.28880  0.96960  1.0000 -0.5025286432
