# DDEC6 charges by PACMAN v1.1 (https://github.com/mtap-research/PACMAN-charge/)
data_0000[Zn][nan]3[ASR]9
_chemical_formula_sum              "Zn4 H90 C100 N12 O18"
_cell_length_a       11.196
_cell_length_b       14.812
_cell_length_c       19.266
_cell_angle_alpha    89.72
_cell_angle_beta     92.35
_cell_angle_gamma    111.72

_symmetry_space_group_name_H-M    "P 1"
_symmetry_Int_Tables_number       1

loop_
  _symmetry_equiv_pos_as_xyz
  'x, y, z'

loop_
  _atom_site_type_symbol
  _atom_site_label
  _atom_site_symmetry_multiplicity
  _atom_site_fract_x
  _atom_site_fract_y
  _atom_site_fract_z
  _atom_site_occupancy
  _atom_site_charge
Zn  Zn1       1.0  0.68861  0.15922  0.21706  1.0000 0.8625395267
Zn  Zn2       1.0  0.16534  0.30502  0.27748  1.0000 0.8388158648
Zn  Zn3       1.0  0.31139  0.84078  0.78294  1.0000 0.8625395267
Zn  Zn4       1.0  0.83466  0.69498  0.72252  1.0000 0.8388158648
H   H1        1.0  0.43620  0.97970  0.20720  1.0000 0.1599996059
H   H2        1.0  0.31220  0.94580  0.15800  1.0000 0.1497546925
H   H3        1.0  0.34470  0.03830  0.20540  1.0000 0.171557483
H   H4        1.0  0.79200  0.26420  0.07470  1.0000 0.1599996059
H   H5        1.0  0.80450  0.30640  0.95950  1.0000 0.120800168
H   H6        1.0  0.63430  0.23770  0.88210  1.0000 0.120800168
H   H7        1.0  0.44270  0.12290  0.91670  1.0000 0.1311493262
H   H8        1.0  0.24890  0.93720  0.05490  1.0000 0.1104716608
H   H9        1.0  0.28510  0.97920  0.98050  1.0000 0.1104716608
H   H10       1.0  0.17400  0.06340  0.07870  1.0000 0.1104716608
H   H11       1.0  0.20870  0.10410  0.00360  1.0000 0.1017863021
H   H12       1.0  0.05900  0.95290  0.95740  1.0000 0.1104716608
H   H13       1.0  0.01850  0.92090  0.03330  1.0000 0.1017863021
H   H14       1.0  0.75900  0.88500  0.14850  1.0000 0.120800168
H   H15       1.0  0.83950  0.76310  0.16000  1.0000 0.1104716608
H   H16       1.0  0.14360  0.94460  0.26950  1.0000 0.120800168
H   H17       1.0  0.82270  0.67700  0.27270  1.0000 0.1104716608
H   H18       1.0  0.70920  0.51450  0.29200  1.0000 0.1104716608
H   H19       1.0  0.11450  0.61160  0.20390  1.0000 0.120800168
H   H20       1.0  0.93990  0.22200  0.34390  1.0000 0.1759902953
H   H21       1.0  0.90160  0.28870  0.39420  1.0000 0.1497546925
H   H22       1.0  0.89200  0.18490  0.41790  1.0000 0.1497546925
H   H23       1.0  0.44320  0.35930  0.37110  1.0000 0.1497546925
H   H24       1.0  0.58580  0.40080  0.46720  1.0000 0.120800168
H   H25       1.0  0.51570  0.39770  0.57670  1.0000 0.1104716608
H   H26       1.0  0.30000  0.35410  0.59760  1.0000 0.1311493262
H   H27       1.0  0.05020  0.27610  0.58710  1.0000 0.1104716608
H   H28       1.0  0.93700  0.26070  0.53200  1.0000 0.1104716608
H   H29       1.0  0.12120  0.44370  0.57260  1.0000 0.1104716608
H   H30       1.0  0.97830  0.40390  0.59530  1.0000 0.120800168
H   H31       1.0  0.04890  0.44790  0.45650  1.0000 0.1104716608
H   H32       1.0  0.90660  0.41010  0.48010  1.0000 0.1017863021
H   H33       1.0  0.35360  0.21590  0.22230  1.0000 0.171557483
H   H34       1.0  0.45920  0.24780  0.16660  1.0000 0.1399167038
H   H35       1.0  0.31540  0.22860  0.14470  1.0000 0.1599996059
H   H36       1.0  0.63040  0.63330  0.15510  1.0000 0.120800168
H   H37       1.0  0.57340  0.74500  0.21520  1.0000 0.1104716608
H   H38       1.0  0.40370  0.69730  0.28760  1.0000 0.120800168
H   H39       1.0  0.28170  0.53330  0.30320  1.0000 0.1399167038
H   H40       1.0  0.63050  0.38290  0.13420  1.0000 0.120800168
H   H41       1.0  0.65670  0.49070  0.11320  1.0000 0.1104716608
H   H42       1.0  0.58930  0.38980  0.01470  1.0000 0.1104716608
H   H43       1.0  0.46300  0.32590  0.05020  1.0000 0.1104716608
H   H44       1.0  0.40080  0.46250  0.04680  1.0000 0.1104716608
H   H45       1.0  0.40160  0.41500  0.97450  1.0000 0.1017863021
H   H46       1.0  0.56380  0.02030  0.79280  1.0000 0.1599996059
H   H47       1.0  0.68780  0.05420  0.84200  1.0000 0.1497546925
H   H48       1.0  0.65530  0.96170  0.79460  1.0000 0.171557483
H   H49       1.0  0.20800  0.73580  0.92530  1.0000 0.1599996059
H   H50       1.0  0.19550  0.69360  0.04050  1.0000 0.120800168
H   H51       1.0  0.36570  0.76230  0.11790  1.0000 0.120800168
H   H52       1.0  0.55730  0.87710  0.08330  1.0000 0.1311493262
H   H53       1.0  0.75110  0.06280  0.94510  1.0000 0.1104716608
H   H54       1.0  0.71490  0.02080  0.01950  1.0000 0.1104716608
H   H55       1.0  0.82600  0.93660  0.92130  1.0000 0.1104716608
H   H56       1.0  0.79130  0.89590  0.99640  1.0000 0.1017863021
H   H57       1.0  0.94100  0.04710  0.04260  1.0000 0.1104716608
H   H58       1.0  0.98150  0.07910  0.96670  1.0000 0.1017863021
H   H59       1.0  0.24100  0.11500  0.85150  1.0000 0.120800168
H   H60       1.0  0.16050  0.23690  0.84000  1.0000 0.1104716608
H   H61       1.0  0.85640  0.05540  0.73050  1.0000 0.120800168
H   H62       1.0  0.17730  0.32300  0.72730  1.0000 0.1104716608
H   H63       1.0  0.29080  0.48550  0.70800  1.0000 0.1104716608
H   H64       1.0  0.88550  0.38840  0.79610  1.0000 0.120800168
H   H65       1.0  0.06010  0.77800  0.65610  1.0000 0.1759902953
H   H66       1.0  0.09840  0.71130  0.60580  1.0000 0.1497546925
H   H67       1.0  0.10800  0.81510  0.58210  1.0000 0.1497546925
H   H68       1.0  0.55680  0.64070  0.62890  1.0000 0.1497546925
H   H69       1.0  0.41420  0.59920  0.53280  1.0000 0.120800168
H   H70       1.0  0.48430  0.60230  0.42330  1.0000 0.1104716608
H   H71       1.0  0.70000  0.64590  0.40240  1.0000 0.1311493262
H   H72       1.0  0.94980  0.72390  0.41290  1.0000 0.1104716608
H   H73       1.0  0.06300  0.73930  0.46800  1.0000 0.1104716608
H   H74       1.0  0.87880  0.55630  0.42740  1.0000 0.1104716608
H   H75       1.0  0.02170  0.59610  0.40470  1.0000 0.120800168
H   H76       1.0  0.95110  0.55210  0.54350  1.0000 0.1104716608
H   H77       1.0  0.09340  0.58990  0.51990  1.0000 0.1017863021
H   H78       1.0  0.64640  0.78410  0.77770  1.0000 0.171557483
H   H79       1.0  0.54080  0.75220  0.83340  1.0000 0.1399167038
H   H80       1.0  0.68460  0.77140  0.85530  1.0000 0.1599996059
H   H81       1.0  0.36960  0.36670  0.84490  1.0000 0.120800168
H   H82       1.0  0.42660  0.25500  0.78480  1.0000 0.1104716608
H   H83       1.0  0.59630  0.30270  0.71240  1.0000 0.120800168
H   H84       1.0  0.71830  0.46670  0.69680  1.0000 0.1399167038
H   H85       1.0  0.36950  0.61710  0.86580  1.0000 0.120800168
H   H86       1.0  0.34330  0.50930  0.88680  1.0000 0.1104716608
H   H87       1.0  0.41070  0.61020  0.98530  1.0000 0.1104716608
H   H88       1.0  0.53700  0.67410  0.94980  1.0000 0.1104716608
H   H89       1.0  0.59920  0.53750  0.95320  1.0000 0.1104716608
H   H90       1.0  0.59840  0.58500  0.02550  1.0000 0.1017863021
C   C1        1.0  0.38050  0.00120  0.17810  1.0000 -0.5502698005
C   C2        1.0  0.45460  0.06230  0.12240  1.0000 0.3665634065
C   C3        1.0  0.60760  0.16640  0.06530  1.0000 0.120800168
C   C4        1.0  0.72240  0.23580  0.04360  1.0000 -0.1374290653
C   C5        1.0  0.72880  0.26040  0.97520  1.0000 -0.0989764162
C   C6        1.0  0.62580  0.21890  0.92830  1.0000 -0.0908566316
C   C7        1.0  0.51170  0.15080  0.94830  1.0000 -0.1986109198
C   C8        1.0  0.50430  0.12540  0.01820  1.0000 0.0716823719
C   C9        1.0  0.27890  0.99660  0.02830  1.0000 -0.0989764162
C   C10       1.0  0.18060  0.04540  0.03110  1.0000 -0.189111456
C   C11       1.0  0.04950  0.97650  0.00290  1.0000 -0.1608941114
C   C12       1.0  0.83980  0.06370  0.19400  1.0000 0.5606233149
C   C13       1.0  0.90170  0.98890  0.20201  1.0000 0.0046478919
C   C14       1.0  0.83670  0.89740  0.17310  1.0000 -0.1374290653
C   C15       1.0  0.88470  0.82380  0.18010  1.0000 -0.1374290653
C   C16       1.0  0.99970  0.84050  0.21690  1.0000 -0.0106196117
C   C17       1.0  0.06580  0.93250  0.24504  1.0000 -0.1083320633
C   C18       1.0  0.01930  0.00670  0.23771  1.0000 -0.0399051935
C   C19       1.0  0.10340  0.10670  0.26530  1.0000 0.5463053553
C   C20       1.0  0.05950  0.76590  0.22410  1.0000 0.3469138115
C   C21       1.0  0.98010  0.66160  0.23532  1.0000 -0.0106196117
C   C22       1.0  0.85850  0.63140  0.26220  1.0000 -0.1477258907
C   C23       1.0  0.79020  0.53380  0.27350  1.0000 -0.1224278429
C   C24       1.0  0.84100  0.46420  0.25771  1.0000 -0.0283887538
C   C25       1.0  0.96470  0.49390  0.23209  1.0000 -0.0106196117
C   C26       1.0  0.03240  0.59190  0.22111  1.0000 -0.1374290653
C   C27       1.0  0.75690  0.35830  0.26490  1.0000 0.5606233149
C   C28       1.0  0.03160  0.42450  0.21800  1.0000 0.5757254033
C   C29       1.0  0.94020  0.24080  0.39160  1.0000 -0.5293593239
C   C30       1.0  0.07530  0.28250  0.42040  1.0000 0.3785117685
C   C31       1.0  0.28450  0.33250  0.42820  1.0000 0.1399167038
C   C32       1.0  0.41430  0.35840  0.41580  1.0000 -0.1477258907
C   C33       1.0  0.49810  0.38270  0.47330  1.0000 -0.0989764162
C   C34       1.0  0.45560  0.38090  0.53960  1.0000 -0.0908566316
C   C35       1.0  0.32790  0.35530  0.55270  1.0000 -0.1842079491
C   C36       1.0  0.24220  0.33130  0.49530  1.0000 0.0716823719
C   C37       1.0  0.02520  0.30150  0.54480  1.0000 -0.0989764162
C   C38       1.0  0.03360  0.40410  0.55780  1.0000 -0.189111456
C   C39       1.0  0.99480  0.44920  0.49420  1.0000 -0.1668067009
C   C40       1.0  0.38100  0.25310  0.18100  1.0000 -0.5594265492
C   C41       1.0  0.40350  0.35640  0.19540  1.0000 0.3878056376
C   C42       1.0  0.38590  0.48600  0.23850  1.0000 0.1399167038
C   C43       1.0  0.48960  0.51570  0.19490  1.0000 0.0821311741
C   C44       1.0  0.56190  0.61340  0.18460  1.0000 -0.189111456
C   C45       1.0  0.52670  0.67890  0.22050  1.0000 -0.1083320633
C   C46       1.0  0.42390  0.65020  0.26440  1.0000 -0.1083320633
C   C47       1.0  0.35090  0.55290  0.27410  1.0000 -0.1608941114
C   C48       1.0  0.58990  0.42690  0.11760  1.0000 -0.0989764162
C   C49       1.0  0.52440  0.39190  0.04580  1.0000 -0.189111456
C   C50       1.0  0.45620  0.45160  0.01310  1.0000 -0.1608941114
C   C51       1.0  0.61950  0.99880  0.82190  1.0000 -0.5502698005
C   C52       1.0  0.54540  0.93770  0.87760  1.0000 0.3665634065
C   C53       1.0  0.39240  0.83360  0.93470  1.0000 0.120800168
C   C54       1.0  0.27760  0.76420  0.95640  1.0000 -0.1374290653
C   C55       1.0  0.27120  0.73960  0.02480  1.0000 -0.0989764162
C   C56       1.0  0.37420  0.78110  0.07170  1.0000 -0.0908566316
C   C57       1.0  0.48830  0.84920  0.05170  1.0000 -0.1986109198
C   C58       1.0  0.49570  0.87460  0.98180  1.0000 0.0716823719
C   C59       1.0  0.72110  0.00340  0.97170  1.0000 -0.0989764162
C   C60       1.0  0.81940  0.95460  0.96890  1.0000 -0.189111456
C   C61       1.0  0.95050  0.02350  0.99710  1.0000 -0.1608941114
C   C62       1.0  0.16020  0.93630  0.80600  1.0000 0.5606233149
C   C63       1.0  0.09830  0.01110  0.79799  1.0000 0.0046478919
C   C64       1.0  0.16330  0.10260  0.82690  1.0000 -0.1374290653
C   C65       1.0  0.11530  0.17620  0.81990  1.0000 -0.1374290653
C   C66       1.0  0.00030  0.15950  0.78310  1.0000 -0.0106196117
C   C67       1.0  0.93420  0.06750  0.75496  1.0000 -0.1083320633
C   C68       1.0  0.98070  0.99330  0.76229  1.0000 -0.0399051935
C   C69       1.0  0.89660  0.89330  0.73470  1.0000 0.5463053553
C   C70       1.0  0.94050  0.23410  0.77590  1.0000 0.3469138115
C   C71       1.0  0.01990  0.33840  0.76468  1.0000 -0.0106196117
C   C72       1.0  0.14150  0.36860  0.73780  1.0000 -0.1477258907
C   C73       1.0  0.20980  0.46620  0.72650  1.0000 -0.1224278429
C   C74       1.0  0.15900  0.53580  0.74229  1.0000 -0.0283887538
C   C75       1.0  0.03530  0.50610  0.76791  1.0000 -0.0106196117
C   C76       1.0  0.96760  0.40810  0.77889  1.0000 -0.1374290653
C   C77       1.0  0.24310  0.64170  0.73510  1.0000 0.5606233149
C   C78       1.0  0.96840  0.57550  0.78200  1.0000 0.5757254033
C   C79       1.0  0.05980  0.75920  0.60840  1.0000 -0.5293593239
C   C80       1.0  0.92470  0.71750  0.57960  1.0000 0.3785117685
C   C81       1.0  0.71550  0.66750  0.57180  1.0000 0.1399167038
C   C82       1.0  0.58570  0.64160  0.58420  1.0000 -0.1477258907
C   C83       1.0  0.50190  0.61730  0.52670  1.0000 -0.0989764162
C   C84       1.0  0.54440  0.61910  0.46040  1.0000 -0.0908566316
C   C85       1.0  0.67210  0.64470  0.44730  1.0000 -0.189111456
C   C86       1.0  0.75780  0.66870  0.50470  1.0000 0.0716823719
C   C87       1.0  0.97480  0.69850  0.45520  1.0000 -0.0989764162
C   C88       1.0  0.96640  0.59590  0.44220  1.0000 -0.189111456
C   C89       1.0  0.00520  0.55080  0.50580  1.0000 -0.1668067009
C   C90       1.0  0.61900  0.74690  0.81900  1.0000 -0.5594265492
C   C91       1.0  0.59650  0.64360  0.80460  1.0000 0.3878056376
C   C92       1.0  0.61410  0.51400  0.76150  1.0000 0.1399167038
C   C93       1.0  0.51040  0.48430  0.80510  1.0000 0.0821311741
C   C94       1.0  0.43810  0.38660  0.81540  1.0000 -0.189111456
C   C95       1.0  0.47330  0.32110  0.77950  1.0000 -0.1083320633
C   C96       1.0  0.57610  0.34980  0.73560  1.0000 -0.1083320633
C   C97       1.0  0.64910  0.44710  0.72590  1.0000 -0.1608941114
C   C98       1.0  0.41010  0.57310  0.88240  1.0000 -0.0989764162
C   C99       1.0  0.47560  0.60810  0.95420  1.0000 -0.189111456
C   C100      1.0  0.54380  0.54840  0.98690  1.0000 -0.1608941114
N   N1        1.0  0.57370  0.12560  0.13063  1.0000 -0.4351704747
N   N2        1.0  0.40870  0.05960  0.05603  1.0000 -0.0704981529
N   N3        1.0  0.17750  0.30260  0.38208  1.0000 -0.4087712199
N   N4        1.0  0.10950  0.29840  0.48896  1.0000 -0.0778364123
N   N5        1.0  0.33300  0.38480  0.23761  1.0000 -0.418780315
N   N6        1.0  0.49830  0.43210  0.16882  1.0000 -0.0704981529
N   N7        1.0  0.42630  0.87440  0.86937  1.0000 -0.4351704747
N   N8        1.0  0.59130  0.94040  0.94397  1.0000 -0.0704981529
N   N9        1.0  0.82250  0.69740  0.61792  1.0000 -0.4087712199
N   N10       1.0  0.89050  0.70160  0.51104  1.0000 -0.0778364123
N   N11       1.0  0.66700  0.61520  0.76239  1.0000 -0.418780315
N   N12       1.0  0.50170  0.56790  0.83118  1.0000 -0.0704981529
O   O1        1.0  0.06940  0.17536  0.24372  1.0000 -0.5204409839
O   O2        1.0  0.19830  0.11630  0.30277  1.0000 -0.5293593239
O   O3        1.0  0.77560  0.07191  0.24518  1.0000 -0.5293593239
O   O4        1.0  0.84400  0.10660  0.13920  1.0000 -0.5204409839
O   O5        1.0  0.17640  0.79120  0.22310  1.0000 -0.418780315
O   O6        1.0  0.05850  0.38461  0.27115  1.0000 -0.5502698005
O   O7        1.0  0.06120  0.41590  0.15809  1.0000 -0.5502698005
O   O8        1.0  0.77910  0.30071  0.22335  1.0000 -0.538278404
O   O9        1.0  0.67210  0.33590  0.30761  1.0000 -0.5502698005
O   O10       1.0  0.93060  0.82464  0.75628  1.0000 -0.5204409839
O   O11       1.0  0.80170  0.88370  0.69723  1.0000 -0.5293593239
O   O12       1.0  0.22440  0.92809  0.75482  1.0000 -0.5293593239
O   O13       1.0  0.15600  0.89340  0.86080  1.0000 -0.5204409839
O   O14       1.0  0.82360  0.20880  0.77690  1.0000 -0.418780315
O   O15       1.0  0.94150  0.61539  0.72885  1.0000 -0.5502698005
O   O16       1.0  0.93880  0.58410  0.84191  1.0000 -0.5502698005
O   O17       1.0  0.22090  0.69929  0.77665  1.0000 -0.538278404
O   O18       1.0  0.32790  0.66410  0.69239  1.0000 -0.5502698005
