# DDEC6 charges by PACMAN v1.1 (https://github.com/mtap-research/PACMAN-charge/)
data_0000[Cu][ths]3[ASR]2
_chemical_formula_sum              "Cu4 C12 O24"
_cell_length_a       8.86097
_cell_length_b       8.86097
_cell_length_c       18.2184
_cell_angle_alpha    72.6445
_cell_angle_beta     107.355
_cell_angle_gamma    107.557

_symmetry_space_group_name_H-M    "P 1"
_symmetry_Int_Tables_number       1

loop_
  _symmetry_equiv_pos_as_xyz
  'x, y, z'

loop_
  _atom_site_type_symbol
  _atom_site_label
  _atom_site_symmetry_multiplicity
  _atom_site_fract_x
  _atom_site_fract_y
  _atom_site_fract_z
  _atom_site_occupancy
  _atom_site_charge
Cu  Cu1       1.0  0.04519  0.20271  0.09131  1.0000 0.922255417
Cu  Cu2       1.0  0.20271  0.04519  0.40869  1.0000 0.922255417
Cu  Cu3       1.0  0.95481  0.79729  0.90869  1.0000 0.922255417
Cu  Cu4       1.0  0.79729  0.95481  0.59131  1.0000 0.922255417
C   C1        1.0  0.91610  0.02190  0.97710  1.0000 0.5425336662
C   C2        1.0  0.02190  0.91610  0.52290  1.0000 0.5502424143
C   C3        1.0  0.08390  0.97810  0.02290  1.0000 0.5425336662
C   C4        1.0  0.97810  0.08390  0.47710  1.0000 0.5425336662
C   C5        1.0  0.93190  0.49330  0.02020  1.0000 0.5668568813
C   C6        1.0  0.49330  0.93190  0.47980  1.0000 0.5603905223
C   C7        1.0  0.06810  0.50670  0.97980  1.0000 0.5668568813
C   C8        1.0  0.50670  0.06810  0.52020  1.0000 0.5603905223
C   C9        1.0  0.18350  0.18350  0.25000  1.0000 0.5603905223
C   C10       1.0  0.81650  0.81650  0.75000  1.0000 0.5603905223
C   C11       1.0  0.03720  0.03720  0.25000  1.0000 0.5502424143
C   C12       1.0  0.96280  0.96280  0.75000  1.0000 0.5502424143
O   O1        1.0  0.87660  0.11780  0.00270  1.0000 -0.4421133533
O   O2        1.0  0.11780  0.87660  0.49730  1.0000 -0.4421133533
O   O3        1.0  0.12340  0.88220  0.99730  1.0000 -0.4421133533
O   O4        1.0  0.88220  0.12340  0.50270  1.0000 -0.4421133533
O   O5        1.0  0.16110  0.04050  0.07960  1.0000 -0.4121199272
O   O6        1.0  0.04050  0.16110  0.42040  1.0000 -0.4121199272
O   O7        1.0  0.83890  0.95950  0.92040  1.0000 -0.4121199272
O   O8        1.0  0.95950  0.83890  0.57960  1.0000 -0.4121199272
O   O9        1.0  0.91480  0.37720  0.07920  1.0000 -0.4312220696
O   O10       1.0  0.37720  0.91480  0.42080  1.0000 -0.4312220696
O   O11       1.0  0.08520  0.62280  0.92080  1.0000 -0.4312220696
O   O12       1.0  0.62280  0.08520  0.57920  1.0000 -0.4312220696
O   O13       1.0  0.14960  0.40320  0.00690  1.0000 -0.4226560242
O   O14       1.0  0.40320  0.14960  0.49310  1.0000 -0.4226560242
O   O15       1.0  0.85040  0.59680  0.99310  1.0000 -0.4226560242
O   O16       1.0  0.59680  0.85040  0.50690  1.0000 -0.4226560242
O   O17       1.0  0.21100  0.26780  0.18450  1.0000 -0.4312220696
O   O18       1.0  0.26780  0.21100  0.31550  1.0000 -0.4312220696
O   O19       1.0  0.78900  0.73220  0.81550  1.0000 -0.4312220696
O   O20       1.0  0.73220  0.78900  0.68450  1.0000 -0.4421133533
O   O21       1.0  0.94490  0.02350  0.18390  1.0000 -0.4421133533
O   O22       1.0  0.02350  0.94490  0.31610  1.0000 -0.4421133533
O   O23       1.0  0.05510  0.97650  0.81610  1.0000 -0.4421133533
O   O24       1.0  0.97650  0.05510  0.68390  1.0000 -0.4480606414
