# DDEC6 charges by PACMAN v1.1 (https://github.com/mtap-research/PACMAN-charge/)
data_0000[Co][sit]3[ASR]2
_chemical_formula_sum              "Co12 H120 C216 O52"
_cell_length_a       17.413
_cell_length_b       22.279
_cell_length_c       24.924
_cell_angle_alpha    90
_cell_angle_beta     90
_cell_angle_gamma    90

_symmetry_space_group_name_H-M    "P 1"
_symmetry_Int_Tables_number       1

loop_
  _symmetry_equiv_pos_as_xyz
  'x, y, z'

loop_
  _atom_site_type_symbol
  _atom_site_label
  _atom_site_symmetry_multiplicity
  _atom_site_fract_x
  _atom_site_fract_y
  _atom_site_fract_z
  _atom_site_occupancy
  _atom_site_charge
Co  Co1       1.0  0.61314  0.16634  0.25000  1.0000 1.1006030368
Co  Co2       1.0  0.88686  0.66634  0.75000  1.0000 1.1006030368
Co  Co3       1.0  0.49745  0.07851  0.17814  1.0000 1.0389289932
Co  Co4       1.0  0.00255  0.57851  0.82186  1.0000 1.0389289932
Co  Co5       1.0  0.00255  0.57851  0.67814  1.0000 1.0389289932
Co  Co6       1.0  0.49745  0.07851  0.32186  1.0000 1.0389289932
Co  Co7       1.0  0.11314  0.33366  0.25000  1.0000 1.1006030368
Co  Co8       1.0  0.38686  0.83366  0.75000  1.0000 1.1006030368
Co  Co9       1.0  0.99745  0.42149  0.32186  1.0000 1.0389289932
Co  Co10      1.0  0.50255  0.92149  0.67814  1.0000 1.0389289932
Co  Co11      1.0  0.50255  0.92149  0.82186  1.0000 1.0389289932
Co  Co12      1.0  0.99745  0.42149  0.17814  1.0000 1.0389289932
H   H1        1.0  0.38880  0.39610  0.98230  1.0000 0.1192474207
H   H2        1.0  0.11120  0.89610  0.01770  1.0000 0.1192474207
H   H3        1.0  0.11120  0.89610  0.48230  1.0000 0.1192474207
H   H4        1.0  0.38880  0.39610  0.51770  1.0000 0.1192474207
H   H5        1.0  0.48800  0.51320  0.88550  1.0000 0.1117588209
H   H6        1.0  0.01200  0.01320  0.11450  1.0000 0.1117588209
H   H7        1.0  0.01200  0.01320  0.38550  1.0000 0.1117588209
H   H8        1.0  0.48800  0.51320  0.61450  1.0000 0.1117588209
H   H9        1.0  0.61780  0.41030  0.98060  1.0000 0.1192474207
H   H10       1.0  0.88220  0.91030  0.01940  1.0000 0.1192474207
H   H11       1.0  0.88220  0.91030  0.48060  1.0000 0.1192474207
H   H12       1.0  0.61780  0.41030  0.51940  1.0000 0.1192474207
H   H13       1.0  0.59130  0.38660  0.07540  1.0000 0.1117588209
H   H14       1.0  0.90870  0.88660  0.92460  1.0000 0.1117588209
H   H15       1.0  0.90870  0.88660  0.57540  1.0000 0.1117588209
H   H16       1.0  0.59130  0.38660  0.42460  1.0000 0.1117588209
H   H17       1.0  0.60190  0.31210  0.14000  1.0000 0.1192474207
H   H18       1.0  0.89810  0.81210  0.86000  1.0000 0.1192474207
H   H19       1.0  0.89810  0.81210  0.64000  1.0000 0.1192474207
H   H20       1.0  0.60190  0.31210  0.36000  1.0000 0.1192474207
H   H21       1.0  0.44010  0.21580  0.06020  1.0000 0.1282732254
H   H22       1.0  0.05990  0.71580  0.93980  1.0000 0.1282732254
H   H23       1.0  0.05990  0.71580  0.56020  1.0000 0.1282732254
H   H24       1.0  0.44010  0.21580  0.43980  1.0000 0.1282732254
H   H25       1.0  0.42630  0.29590  0.00080  1.0000 0.1192474207
H   H26       1.0  0.07370  0.79590  0.99920  1.0000 0.1192474207
H   H27       1.0  0.07370  0.79590  0.50080  1.0000 0.1192474207
H   H28       1.0  0.42630  0.29590  0.49920  1.0000 0.1192474207
H   H29       1.0  0.29370  0.46550  0.98360  1.0000 0.1117588209
H   H30       1.0  0.20630  0.96550  0.01640  1.0000 0.1117588209
H   H31       1.0  0.20630  0.96550  0.48360  1.0000 0.1117588209
H   H32       1.0  0.29370  0.46550  0.51640  1.0000 0.1117588209
H   H33       1.0  0.17370  0.49700  0.95420  1.0000 0.1282732254
H   H34       1.0  0.32630  0.99700  0.04580  1.0000 0.1282732254
H   H35       1.0  0.32630  0.99700  0.45420  1.0000 0.1282732254
H   H36       1.0  0.17370  0.49700  0.54580  1.0000 0.1282732254
H   H37       1.0  0.26100  0.53590  0.81060  1.0000 0.1282732254
H   H38       1.0  0.23900  0.03590  0.18940  1.0000 0.1282732254
H   H39       1.0  0.23900  0.03590  0.31060  1.0000 0.1282732254
H   H40       1.0  0.26100  0.53590  0.68940  1.0000 0.1282732254
H   H41       1.0  0.37790  0.50150  0.83720  1.0000 0.1192474207
H   H42       1.0  0.12210  0.00150  0.16280  1.0000 0.1192474207
H   H43       1.0  0.12210  0.00150  0.33720  1.0000 0.1192474207
H   H44       1.0  0.37790  0.50150  0.66280  1.0000 0.1192474207
H   H45       1.0  0.59050  0.57440  0.88470  1.0000 0.1192474207
H   H46       1.0  0.90950  0.07440  0.11530  1.0000 0.1192474207
H   H47       1.0  0.90950  0.07440  0.38470  1.0000 0.1192474207
H   H48       1.0  0.59050  0.57440  0.61530  1.0000 0.1192474207
H   H49       1.0  0.69740  0.61520  0.84820  1.0000 0.1282732254
H   H50       1.0  0.80260  0.11520  0.15180  1.0000 0.1282732254
H   H51       1.0  0.80260  0.11520  0.34820  1.0000 0.1282732254
H   H52       1.0  0.69740  0.61520  0.65180  1.0000 0.1282732254
H   H53       1.0  0.81660  0.46860  0.88760  1.0000 0.1282732254
H   H54       1.0  0.68340  0.96860  0.11240  1.0000 0.1282732254
H   H55       1.0  0.68340  0.96860  0.38760  1.0000 0.1282732254
H   H56       1.0  0.81660  0.46860  0.61240  1.0000 0.1282732254
H   H57       1.0  0.70680  0.42580  0.92010  1.0000 0.1192474207
H   H58       1.0  0.79320  0.92580  0.07990  1.0000 0.1192474207
H   H59       1.0  0.79320  0.92580  0.42010  1.0000 0.1192474207
H   H60       1.0  0.70680  0.42580  0.57990  1.0000 0.1192474207
H   H61       1.0  0.88880  0.10390  0.51770  1.0000 0.1192474207
H   H62       1.0  0.61120  0.60390  0.48230  1.0000 0.1192474207
H   H63       1.0  0.61120  0.60390  0.01770  1.0000 0.1192474207
H   H64       1.0  0.88880  0.10390  0.98230  1.0000 0.1192474207
H   H65       1.0  0.98800  0.98680  0.61450  1.0000 0.1117588209
H   H66       1.0  0.51200  0.48680  0.38550  1.0000 0.1117588209
H   H67       1.0  0.51200  0.48680  0.11450  1.0000 0.1117588209
H   H68       1.0  0.98800  0.98680  0.88550  1.0000 0.1117588209
H   H69       1.0  0.11780  0.08970  0.51940  1.0000 0.1192474207
H   H70       1.0  0.38220  0.58970  0.48060  1.0000 0.1192474207
H   H71       1.0  0.38220  0.58970  0.01940  1.0000 0.1192474207
H   H72       1.0  0.11780  0.08970  0.98060  1.0000 0.1192474207
H   H73       1.0  0.09130  0.11340  0.42460  1.0000 0.1117588209
H   H74       1.0  0.40870  0.61340  0.57540  1.0000 0.1117588209
H   H75       1.0  0.40870  0.61340  0.92460  1.0000 0.1117588209
H   H76       1.0  0.09130  0.11340  0.07540  1.0000 0.1117588209
H   H77       1.0  0.10190  0.18790  0.36000  1.0000 0.1192474207
H   H78       1.0  0.39810  0.68790  0.64000  1.0000 0.1192474207
H   H79       1.0  0.39810  0.68790  0.86000  1.0000 0.1192474207
H   H80       1.0  0.10190  0.18790  0.14000  1.0000 0.1192474207
H   H81       1.0  0.94010  0.28420  0.43980  1.0000 0.1282732254
H   H82       1.0  0.55990  0.78420  0.56020  1.0000 0.1282732254
H   H83       1.0  0.55990  0.78420  0.93980  1.0000 0.1282732254
H   H84       1.0  0.94010  0.28420  0.06020  1.0000 0.1282732254
H   H85       1.0  0.92630  0.20410  0.49920  1.0000 0.1192474207
H   H86       1.0  0.57370  0.70410  0.50080  1.0000 0.1192474207
H   H87       1.0  0.57370  0.70410  0.99920  1.0000 0.1192474207
H   H88       1.0  0.92630  0.20410  0.00080  1.0000 0.1192474207
H   H89       1.0  0.79370  0.03450  0.51640  1.0000 0.1117588209
H   H90       1.0  0.70630  0.53450  0.48360  1.0000 0.1117588209
H   H91       1.0  0.70630  0.53450  0.01640  1.0000 0.1117588209
H   H92       1.0  0.79370  0.03450  0.98360  1.0000 0.1117588209
H   H93       1.0  0.67370  0.00300  0.54580  1.0000 0.1282732254
H   H94       1.0  0.82630  0.50300  0.45420  1.0000 0.1282732254
H   H95       1.0  0.82630  0.50300  0.04580  1.0000 0.1282732254
H   H96       1.0  0.67370  0.00300  0.95420  1.0000 0.1282732254
H   H97       1.0  0.76100  0.96410  0.68940  1.0000 0.1282732254
H   H98       1.0  0.73900  0.46410  0.31060  1.0000 0.1282732254
H   H99       1.0  0.73900  0.46410  0.18940  1.0000 0.1282732254
H   H100      1.0  0.76100  0.96410  0.81060  1.0000 0.1282732254
H   H101      1.0  0.87790  0.99850  0.66280  1.0000 0.1192474207
H   H102      1.0  0.62210  0.49850  0.33720  1.0000 0.1192474207
H   H103      1.0  0.62210  0.49850  0.16280  1.0000 0.1192474207
H   H104      1.0  0.87790  0.99850  0.83720  1.0000 0.1192474207
H   H105      1.0  0.09050  0.92560  0.61530  1.0000 0.1192474207
H   H106      1.0  0.40950  0.42560  0.38470  1.0000 0.1192474207
H   H107      1.0  0.40950  0.42560  0.11530  1.0000 0.1192474207
H   H108      1.0  0.09050  0.92560  0.88470  1.0000 0.1192474207
H   H109      1.0  0.19740  0.88480  0.65180  1.0000 0.1282732254
H   H110      1.0  0.30260  0.38480  0.34820  1.0000 0.1282732254
H   H111      1.0  0.30260  0.38480  0.15180  1.0000 0.1282732254
H   H112      1.0  0.19740  0.88480  0.84820  1.0000 0.1282732254
H   H113      1.0  0.31660  0.03140  0.61240  1.0000 0.1282732254
H   H114      1.0  0.18340  0.53140  0.38760  1.0000 0.1282732254
H   H115      1.0  0.18340  0.53140  0.11240  1.0000 0.1282732254
H   H116      1.0  0.31660  0.03140  0.88760  1.0000 0.1282732254
H   H117      1.0  0.20680  0.07420  0.57990  1.0000 0.1192474207
H   H118      1.0  0.29320  0.57420  0.42010  1.0000 0.1192474207
H   H119      1.0  0.29320  0.57420  0.07990  1.0000 0.1192474207
H   H120      1.0  0.20680  0.07420  0.92010  1.0000 0.1192474207
C   C1        1.0  0.50340  0.39536  0.98886  1.0000 0.0884105565
C   C2        1.0  0.99660  0.89536  0.01114  1.0000 0.0884105565
C   C3        1.0  0.99660  0.89536  0.48886  1.0000 0.0884105565
C   C4        1.0  0.50340  0.39536  0.51114  1.0000 0.0884105565
C   C5        1.0  0.43325  0.41428  0.96952  1.0000 -0.184054218
C   C6        1.0  0.06675  0.91428  0.03048  1.0000 -0.184054218
C   C7        1.0  0.06675  0.91428  0.46952  1.0000 -0.184054218
C   C8        1.0  0.43325  0.41428  0.53048  1.0000 -0.184054218
C   C9        1.0  0.42691  0.45817  0.93279  1.0000 0.0784869466
C   C10       1.0  0.07309  0.95817  0.06721  1.0000 0.0784869466
C   C11       1.0  0.07309  0.95817  0.43279  1.0000 0.0784869466
C   C12       1.0  0.42691  0.45817  0.56721  1.0000 0.0784869466
C   C13       1.0  0.49225  0.48389  0.91191  1.0000 -0.1965314372
C   C14       1.0  0.00775  0.98389  0.08809  1.0000 -0.1965314372
C   C15       1.0  0.00775  0.98389  0.41191  1.0000 -0.1965314372
C   C16       1.0  0.49225  0.48389  0.58809  1.0000 -0.1965314372
C   C17       1.0  0.56417  0.46662  0.92974  1.0000 0.0884105565
C   C18       1.0  0.93583  0.96662  0.07026  1.0000 0.0884105565
C   C19       1.0  0.93583  0.96662  0.42974  1.0000 0.0884105565
C   C20       1.0  0.56417  0.46662  0.57026  1.0000 0.0884105565
C   C21       1.0  0.56982  0.42228  0.96829  1.0000 -0.1921908928
C   C22       1.0  0.93018  0.92228  0.03171  1.0000 -0.1921908928
C   C23       1.0  0.93018  0.92228  0.46829  1.0000 -0.1921908928
C   C24       1.0  0.56982  0.42228  0.53171  1.0000 -0.1921908928
C   C25       1.0  0.51042  0.34712  0.02998  1.0000 0.0541551003
C   C26       1.0  0.98958  0.84712  0.97002  1.0000 0.0541551003
C   C27       1.0  0.98958  0.84712  0.52998  1.0000 0.0541551003
C   C28       1.0  0.51042  0.34712  0.47002  1.0000 0.0541551003
C   C29       1.0  0.56081  0.35239  0.07273  1.0000 -0.1597639151
C   C30       1.0  0.93919  0.85239  0.92727  1.0000 -0.1597639151
C   C31       1.0  0.93919  0.85239  0.57273  1.0000 -0.1597639151
C   C32       1.0  0.56081  0.35239  0.42727  1.0000 -0.1597639151
C   C33       1.0  0.56721  0.30786  0.11190  1.0000 -0.0966407655
C   C34       1.0  0.93279  0.80786  0.88810  1.0000 -0.0966407655
C   C35       1.0  0.93279  0.80786  0.61190  1.0000 -0.0966407655
C   C36       1.0  0.56721  0.30786  0.38810  1.0000 -0.0966407655
C   C37       1.0  0.52134  0.25747  0.10832  1.0000 -0.0072056123
C   C38       1.0  0.97866  0.75747  0.89168  1.0000 -0.0072056123
C   C39       1.0  0.97866  0.75747  0.60832  1.0000 -0.0072056123
C   C40       1.0  0.52134  0.25747  0.39168  1.0000 -0.0072056123
C   C41       1.0  0.46908  0.25053  0.06426  1.0000 -0.0887760263
C   C42       1.0  0.03092  0.75053  0.93574  1.0000 -0.0887760263
C   C43       1.0  0.03092  0.75053  0.56426  1.0000 -0.0887760263
C   C44       1.0  0.46908  0.25053  0.43574  1.0000 -0.0887760263
C   C45       1.0  0.46332  0.29785  0.02764  1.0000 -0.1545526607
C   C46       1.0  0.03668  0.79785  0.97236  1.0000 -0.1597639151
C   C47       1.0  0.03668  0.79785  0.52764  1.0000 -0.1597639151
C   C48       1.0  0.46332  0.29785  0.47236  1.0000 -0.1545526607
C   C49       1.0  0.52732  0.20682  0.14931  1.0000 0.5906804429
C   C50       1.0  0.97268  0.70682  0.85069  1.0000 0.5906804429
C   C51       1.0  0.97268  0.70682  0.64931  1.0000 0.5906804429
C   C52       1.0  0.52732  0.20682  0.35069  1.0000 0.5906804429
C   C53       1.0  0.35003  0.48055  0.91418  1.0000 0.0784869466
C   C54       1.0  0.14997  0.98055  0.08582  1.0000 0.0784869466
C   C55       1.0  0.14997  0.98055  0.41418  1.0000 0.0784869466
C   C56       1.0  0.35003  0.48055  0.58582  1.0000 0.0784869466
C   C57       1.0  0.28769  0.47929  0.94861  1.0000 -0.1686132474
C   C58       1.0  0.21231  0.97929  0.05139  1.0000 -0.1686132474
C   C59       1.0  0.21231  0.97929  0.44861  1.0000 -0.1686132474
C   C60       1.0  0.28769  0.47929  0.55139  1.0000 -0.1686132474
C   C61       1.0  0.21542  0.49876  0.93091  1.0000 -0.0887760263
C   C62       1.0  0.28458  0.99876  0.06909  1.0000 -0.0887760263
C   C63       1.0  0.28458  0.99876  0.43091  1.0000 -0.0887760263
C   C64       1.0  0.21542  0.49876  0.56909  1.0000 -0.0887760263
C   C65       1.0  0.20513  0.52060  0.87942  1.0000 -0.0072056123
C   C66       1.0  0.29487  0.02060  0.12058  1.0000 -0.0072056123
C   C67       1.0  0.29487  0.02060  0.37942  1.0000 -0.0072056123
C   C68       1.0  0.20513  0.52060  0.62058  1.0000 -0.0072056123
C   C69       1.0  0.26708  0.52144  0.84529  1.0000 -0.0887760263
C   C70       1.0  0.23292  0.02144  0.15471  1.0000 -0.0887760263
C   C71       1.0  0.23292  0.02144  0.34529  1.0000 -0.0887760263
C   C72       1.0  0.26708  0.52144  0.65471  1.0000 -0.0887760263
C   C73       1.0  0.33734  0.50139  0.86148  1.0000 -0.1597639151
C   C74       1.0  0.16266  0.00139  0.13852  1.0000 -0.1597639151
C   C75       1.0  0.16266  0.00139  0.36148  1.0000 -0.1597639151
C   C76       1.0  0.33734  0.50139  0.63852  1.0000 -0.1597639151
C   C77       1.0  0.12655  0.54110  0.86086  1.0000 0.5038700925
C   C78       1.0  0.37345  0.04110  0.13914  1.0000 0.5066227287
C   C79       1.0  0.37345  0.04110  0.36086  1.0000 0.5066227287
C   C80       1.0  0.12655  0.54110  0.63914  1.0000 0.5066227287
C   C81       1.0  0.63611  0.49633  0.90878  1.0000 0.0697678543
C   C82       1.0  0.86389  0.99633  0.09122  1.0000 0.0697678543
C   C83       1.0  0.86389  0.99633  0.40878  1.0000 0.0697678543
C   C84       1.0  0.63611  0.49633  0.59122  1.0000 0.0697678543
C   C85       1.0  0.63598  0.55255  0.88529  1.0000 -0.1597639151
C   C86       1.0  0.86402  0.05255  0.11471  1.0000 -0.1597639151
C   C87       1.0  0.86402  0.05255  0.38529  1.0000 -0.1597639151
C   C88       1.0  0.63598  0.55255  0.61471  1.0000 -0.1597639151
C   C89       1.0  0.70009  0.57692  0.86307  1.0000 -0.0887760263
C   C90       1.0  0.79991  0.07692  0.13693  1.0000 -0.0887760263
C   C91       1.0  0.79991  0.07692  0.36307  1.0000 -0.0887760263
C   C92       1.0  0.70009  0.57692  0.63693  1.0000 -0.0887760263
C   C93       1.0  0.76886  0.54640  0.86197  1.0000 -0.0217294619
C   C94       1.0  0.73114  0.04640  0.13803  1.0000 -0.0217294619
C   C95       1.0  0.73114  0.04640  0.36197  1.0000 -0.0217294619
C   C96       1.0  0.76886  0.54640  0.63803  1.0000 -0.0217294619
C   C97       1.0  0.77056  0.48968  0.88588  1.0000 -0.0887760263
C   C98       1.0  0.72944  0.98968  0.11412  1.0000 -0.0887760263
C   C99       1.0  0.72944  0.98968  0.38588  1.0000 -0.0887760263
C   C100      1.0  0.77056  0.48968  0.61412  1.0000 -0.0887760263
C   C101      1.0  0.70506  0.46481  0.90681  1.0000 -0.1597639151
C   C102      1.0  0.79494  0.96481  0.09319  1.0000 -0.1545526607
C   C103      1.0  0.79494  0.96481  0.40681  1.0000 -0.1545526607
C   C104      1.0  0.70506  0.46481  0.59319  1.0000 -0.1597639151
C   C105      1.0  0.83791  0.57414  0.83621  1.0000 0.5906804429
C   C106      1.0  0.66209  0.07414  0.16379  1.0000 0.5906804429
C   C107      1.0  0.66209  0.07414  0.33621  1.0000 0.5906804429
C   C108      1.0  0.83791  0.57414  0.66379  1.0000 0.5906804429
C   C109      1.0  0.00340  0.10464  0.51114  1.0000 0.0884105565
C   C110      1.0  0.49660  0.60464  0.48886  1.0000 0.0884105565
C   C111      1.0  0.49660  0.60464  0.01114  1.0000 0.0884105565
C   C112      1.0  0.00340  0.10464  0.98886  1.0000 0.0884105565
C   C113      1.0  0.93325  0.08572  0.53048  1.0000 -0.184054218
C   C114      1.0  0.56675  0.58572  0.46952  1.0000 -0.184054218
C   C115      1.0  0.56675  0.58572  0.03048  1.0000 -0.184054218
C   C116      1.0  0.93325  0.08572  0.96952  1.0000 -0.184054218
C   C117      1.0  0.92691  0.04183  0.56721  1.0000 0.0784869466
C   C118      1.0  0.57309  0.54183  0.43279  1.0000 0.0784869466
C   C119      1.0  0.57309  0.54183  0.06721  1.0000 0.0784869466
C   C120      1.0  0.92691  0.04183  0.93279  1.0000 0.0784869466
C   C121      1.0  0.99225  0.01611  0.58809  1.0000 -0.1965314372
C   C122      1.0  0.50775  0.51611  0.41191  1.0000 -0.1965314372
C   C123      1.0  0.50775  0.51611  0.08809  1.0000 -0.1965314372
C   C124      1.0  0.99225  0.01611  0.91191  1.0000 -0.1965314372
C   C125      1.0  0.06417  0.03338  0.57026  1.0000 0.0884105565
C   C126      1.0  0.43583  0.53338  0.42974  1.0000 0.0884105565
C   C127      1.0  0.43583  0.53338  0.07026  1.0000 0.0884105565
C   C128      1.0  0.06417  0.03338  0.92974  1.0000 0.0884105565
C   C129      1.0  0.06982  0.07772  0.53171  1.0000 -0.1921908928
C   C130      1.0  0.43018  0.57772  0.46829  1.0000 -0.1921908928
C   C131      1.0  0.43018  0.57772  0.03171  1.0000 -0.1921908928
C   C132      1.0  0.06982  0.07772  0.96829  1.0000 -0.1921908928
C   C133      1.0  0.01042  0.15288  0.47002  1.0000 0.0541551003
C   C134      1.0  0.48958  0.65288  0.52998  1.0000 0.0541551003
C   C135      1.0  0.48958  0.65288  0.97002  1.0000 0.0541551003
C   C136      1.0  0.01042  0.15288  0.02998  1.0000 0.0541551003
C   C137      1.0  0.06081  0.14761  0.42727  1.0000 -0.1597639151
C   C138      1.0  0.43919  0.64761  0.57273  1.0000 -0.1597639151
C   C139      1.0  0.43919  0.64761  0.92727  1.0000 -0.1597639151
C   C140      1.0  0.06081  0.14761  0.07273  1.0000 -0.1597639151
C   C141      1.0  0.06721  0.19214  0.38810  1.0000 -0.0966407655
C   C142      1.0  0.43279  0.69214  0.61190  1.0000 -0.0966407655
C   C143      1.0  0.43279  0.69214  0.88810  1.0000 -0.0966407655
C   C144      1.0  0.06721  0.19214  0.11190  1.0000 -0.0966407655
C   C145      1.0  0.02134  0.24253  0.39168  1.0000 -0.0072056123
C   C146      1.0  0.47866  0.74253  0.60832  1.0000 -0.0072056123
C   C147      1.0  0.47866  0.74253  0.89168  1.0000 -0.0072056123
C   C148      1.0  0.02134  0.24253  0.10832  1.0000 -0.0072056123
C   C149      1.0  0.96908  0.24947  0.43574  1.0000 -0.0887760263
C   C150      1.0  0.53092  0.74947  0.56426  1.0000 -0.0887760263
C   C151      1.0  0.53092  0.74947  0.93574  1.0000 -0.0887760263
C   C152      1.0  0.96908  0.24947  0.06426  1.0000 -0.0887760263
C   C153      1.0  0.96332  0.20215  0.47236  1.0000 -0.1545526607
C   C154      1.0  0.53668  0.70215  0.52764  1.0000 -0.1545526607
C   C155      1.0  0.53668  0.70215  0.97236  1.0000 -0.1597639151
C   C156      1.0  0.96332  0.20215  0.02764  1.0000 -0.1545526607
C   C157      1.0  0.02732  0.29318  0.35069  1.0000 0.5906804429
C   C158      1.0  0.47268  0.79318  0.64931  1.0000 0.5906804429
C   C159      1.0  0.47268  0.79318  0.85069  1.0000 0.5906804429
C   C160      1.0  0.02732  0.29318  0.14931  1.0000 0.5906804429
C   C161      1.0  0.85003  0.01945  0.58582  1.0000 0.0784869466
C   C162      1.0  0.64997  0.51945  0.41418  1.0000 0.0784869466
C   C163      1.0  0.64997  0.51945  0.08582  1.0000 0.0784869466
C   C164      1.0  0.85003  0.01945  0.91418  1.0000 0.0784869466
C   C165      1.0  0.78769  0.02071  0.55139  1.0000 -0.1686132474
C   C166      1.0  0.71231  0.52071  0.44861  1.0000 -0.1686132474
C   C167      1.0  0.71231  0.52071  0.05139  1.0000 -0.1686132474
C   C168      1.0  0.78769  0.02071  0.94861  1.0000 -0.1686132474
C   C169      1.0  0.71542  0.00124  0.56909  1.0000 -0.0887760263
C   C170      1.0  0.78458  0.50124  0.43091  1.0000 -0.0887760263
C   C171      1.0  0.78458  0.50124  0.06909  1.0000 -0.0887760263
C   C172      1.0  0.71542  0.00124  0.93091  1.0000 -0.0887760263
C   C173      1.0  0.70513  0.97940  0.62058  1.0000 -0.0072056123
C   C174      1.0  0.79487  0.47940  0.37942  1.0000 -0.0072056123
C   C175      1.0  0.79487  0.47940  0.12058  1.0000 -0.0072056123
C   C176      1.0  0.70513  0.97940  0.87942  1.0000 -0.0072056123
C   C177      1.0  0.76708  0.97856  0.65471  1.0000 -0.0887760263
C   C178      1.0  0.73292  0.47856  0.34529  1.0000 -0.0887760263
C   C179      1.0  0.73292  0.47856  0.15471  1.0000 -0.0887760263
C   C180      1.0  0.76708  0.97856  0.84529  1.0000 -0.0887760263
C   C181      1.0  0.83734  0.99861  0.63852  1.0000 -0.1597639151
C   C182      1.0  0.66266  0.49861  0.36148  1.0000 -0.1597639151
C   C183      1.0  0.66266  0.49861  0.13852  1.0000 -0.1597639151
C   C184      1.0  0.83734  0.99861  0.86148  1.0000 -0.1597639151
C   C185      1.0  0.62655  0.95890  0.63914  1.0000 0.5066227287
C   C186      1.0  0.87345  0.45890  0.36086  1.0000 0.5066227287
C   C187      1.0  0.87345  0.45890  0.13914  1.0000 0.5066227287
C   C188      1.0  0.62655  0.95890  0.86086  1.0000 0.5066227287
C   C189      1.0  0.13611  0.00367  0.59122  1.0000 0.0697678543
C   C190      1.0  0.36389  0.50367  0.40878  1.0000 0.0697678543
C   C191      1.0  0.36389  0.50367  0.09122  1.0000 0.0697678543
C   C192      1.0  0.13611  0.00367  0.90878  1.0000 0.0697678543
C   C193      1.0  0.13598  0.94745  0.61471  1.0000 -0.1597639151
C   C194      1.0  0.36402  0.44745  0.38529  1.0000 -0.1597639151
C   C195      1.0  0.36402  0.44745  0.11471  1.0000 -0.1597639151
C   C196      1.0  0.13598  0.94745  0.88529  1.0000 -0.1597639151
C   C197      1.0  0.20009  0.92308  0.63693  1.0000 -0.0887760263
C   C198      1.0  0.29991  0.42308  0.36307  1.0000 -0.0887760263
C   C199      1.0  0.29991  0.42308  0.13693  1.0000 -0.0887760263
C   C200      1.0  0.20009  0.92308  0.86307  1.0000 -0.0887760263
C   C201      1.0  0.26886  0.95360  0.63803  1.0000 -0.0217294619
C   C202      1.0  0.23114  0.45360  0.36197  1.0000 -0.0217294619
C   C203      1.0  0.23114  0.45360  0.13803  1.0000 -0.0217294619
C   C204      1.0  0.26886  0.95360  0.86197  1.0000 -0.0217294619
C   C205      1.0  0.27056  0.01032  0.61412  1.0000 -0.0887760263
C   C206      1.0  0.22944  0.51032  0.38588  1.0000 -0.0887760263
C   C207      1.0  0.22944  0.51032  0.11412  1.0000 -0.0887760263
C   C208      1.0  0.27056  0.01032  0.88588  1.0000 -0.0887760263
C   C209      1.0  0.20506  0.03519  0.59319  1.0000 -0.1597639151
C   C210      1.0  0.29494  0.53519  0.40681  1.0000 -0.1597639151
C   C211      1.0  0.29494  0.53519  0.09319  1.0000 -0.1597639151
C   C212      1.0  0.20506  0.03519  0.90681  1.0000 -0.1597639151
C   C213      1.0  0.33791  0.92586  0.66379  1.0000 0.5906804429
C   C214      1.0  0.16209  0.42586  0.33621  1.0000 0.5906804429
C   C215      1.0  0.16209  0.42586  0.16379  1.0000 0.5906804429
C   C216      1.0  0.33791  0.92586  0.83621  1.0000 0.5906804429
O   O1        1.0  0.56380  0.21976  0.19040  1.0000 -0.5225147563
O   O2        1.0  0.93620  0.71976  0.80960  1.0000 -0.5225147563
O   O3        1.0  0.93620  0.71976  0.69040  1.0000 -0.5225147563
O   O4        1.0  0.56380  0.21976  0.30960  1.0000 -0.5267936037
O   O5        1.0  0.49614  0.15878  0.13700  1.0000 -0.5225147563
O   O6        1.0  0.00386  0.65878  0.86300  1.0000 -0.5225147563
O   O7        1.0  0.00386  0.65878  0.63700  1.0000 -0.5225147563
O   O8        1.0  0.49614  0.15878  0.36300  1.0000 -0.5225147563
O   O9        1.0  0.07132  0.53090  0.88770  1.0000 -0.441420622
O   O10       1.0  0.42868  0.03090  0.11230  1.0000 -0.441420622
O   O11       1.0  0.42868  0.03090  0.38770  1.0000 -0.441420622
O   O12       1.0  0.07132  0.53090  0.61230  1.0000 -0.441420622
O   O13       1.0  0.12218  0.56740  0.81922  1.0000 -0.4220647736
O   O14       1.0  0.37782  0.06740  0.18078  1.0000 -0.4220647736
O   O15       1.0  0.37782  0.06740  0.31922  1.0000 -0.4220647736
O   O16       1.0  0.12218  0.56740  0.68078  1.0000 -0.4220647736
O   O17       1.0  0.82932  0.61822  0.80833  1.0000 -0.5267936037
O   O18       1.0  0.67068  0.11822  0.19167  1.0000 -0.5267936037
O   O19       1.0  0.67068  0.11822  0.30833  1.0000 -0.5267936037
O   O20       1.0  0.82932  0.61822  0.69167  1.0000 -0.5267936037
O   O21       1.0  0.90187  0.54653  0.84425  1.0000 -0.5469161866
O   O22       1.0  0.59813  0.04653  0.15575  1.0000 -0.5469161866
O   O23       1.0  0.59813  0.04653  0.34425  1.0000 -0.5469161866
O   O24       1.0  0.90187  0.54653  0.65575  1.0000 -0.5469161866
O   O25       1.0  0.51109  0.11579  0.25000  1.0000 -0.8996443374
O   O26       1.0  0.98891  0.61579  0.75000  1.0000 -0.8996443374
O   O27       1.0  0.06380  0.28024  0.30960  1.0000 -0.5267936037
O   O28       1.0  0.43620  0.78024  0.69040  1.0000 -0.5267936037
O   O29       1.0  0.43620  0.78024  0.80960  1.0000 -0.5225147563
O   O30       1.0  0.06380  0.28024  0.19040  1.0000 -0.5267936037
O   O31       1.0  0.99614  0.34122  0.36300  1.0000 -0.5225147563
O   O32       1.0  0.50386  0.84122  0.63700  1.0000 -0.5225147563
O   O33       1.0  0.50386  0.84122  0.86300  1.0000 -0.5225147563
O   O34       1.0  0.99614  0.34122  0.13700  1.0000 -0.5225147563
O   O35       1.0  0.57132  0.96910  0.61230  1.0000 -0.441420622
O   O36       1.0  0.92868  0.46910  0.38770  1.0000 -0.441420622
O   O37       1.0  0.92868  0.46910  0.11230  1.0000 -0.441420622
O   O38       1.0  0.57132  0.96910  0.88770  1.0000 -0.441420622
O   O39       1.0  0.62218  0.93260  0.68078  1.0000 -0.4220647736
O   O40       1.0  0.87782  0.43260  0.31922  1.0000 -0.4220647736
O   O41       1.0  0.87782  0.43260  0.18078  1.0000 -0.4220647736
O   O42       1.0  0.62218  0.93260  0.81922  1.0000 -0.4220647736
O   O43       1.0  0.32932  0.88178  0.69167  1.0000 -0.5267936037
O   O44       1.0  0.17068  0.38178  0.30833  1.0000 -0.5267936037
O   O45       1.0  0.17068  0.38178  0.19167  1.0000 -0.5225147563
O   O46       1.0  0.32932  0.88178  0.80833  1.0000 -0.5267936037
O   O47       1.0  0.40187  0.95347  0.65575  1.0000 -0.5469161866
O   O48       1.0  0.09813  0.45347  0.34425  1.0000 -0.5469161866
O   O49       1.0  0.09813  0.45347  0.15575  1.0000 -0.5469161866
O   O50       1.0  0.40187  0.95347  0.84425  1.0000 -0.5469161866
O   O51       1.0  0.01109  0.38421  0.25000  1.0000 -0.8996443374
O   O52       1.0  0.48891  0.88421  0.75000  1.0000 -0.8996443374
