# DDEC6 charges by PACMAN v1.1 (https://github.com/mtap-research/PACMAN-charge/)
data_0000[Ni][nan]2[ASR]1
_chemical_formula_sum              "Ni8 H140 C144 N32 O38"
_cell_length_a       10.785
_cell_length_b       14.869
_cell_length_c       28.02
_cell_angle_alpha    82.737
_cell_angle_beta     86.264
_cell_angle_gamma    82.435

_symmetry_space_group_name_H-M    "P 1"
_symmetry_Int_Tables_number       1

loop_
  _symmetry_equiv_pos_as_xyz
  'x, y, z'

loop_
  _atom_site_type_symbol
  _atom_site_label
  _atom_site_symmetry_multiplicity
  _atom_site_fract_x
  _atom_site_fract_y
  _atom_site_fract_z
  _atom_site_occupancy
  _atom_site_charge
Ni  Ni1       1.0  0.74176  0.51599  0.25381  1.0000 0.6507907745
Ni  Ni2       1.0  0.24208  0.51554  0.25343  1.0000 0.7600661156
Ni  Ni3       1.0  0.25824  0.48401  0.74619  1.0000 0.6507907745
Ni  Ni4       1.0  0.75792  0.48446  0.74657  1.0000 0.7600661156
Ni  Ni5       1.0  0.00000  0.00000  0.50000  1.0000 0.8184285995
Ni  Ni6       1.0  0.50000  0.00000  0.50000  1.0000 0.6507907745
Ni  Ni7       1.0  0.00000  0.00000  0.00000  1.0000 0.6507907745
Ni  Ni8       1.0  0.50000  0.00000  0.00000  1.0000 0.8050897357
H   H1        1.0  0.03195  0.65396  0.24897  1.0000 0.3484418429
H   H2        1.0  0.15431  0.67118  0.24302  1.0000 0.3484418429
H   H3        1.0  0.74061  0.82076  0.15161  1.0000 0.3032225941
H   H4        1.0  0.74576  0.22197  0.36433  1.0000 0.3032225941
H   H5        1.0  0.65086  0.35247  0.21626  1.0000 0.118323548
H   H6        1.0  0.80957  0.55305  0.14511  1.0000 0.1100425848
H   H7        1.0  0.63352  0.29088  0.14780  1.0000 0.138062605
H   H8        1.0  0.79444  0.49584  0.07438  1.0000 0.1322431862
H   H9        1.0  0.63228  0.31275  0.05914  1.0000 0.1100425848
H   H10       1.0  0.77750  0.28687  0.05875  1.0000 0.118323548
H   H11       1.0  0.65614  0.44553  0.00691  1.0000 0.0976346128
H   H12       1.0  0.80244  0.42202  0.00730  1.0000 0.0976346128
H   H13       1.0  0.64524  0.31016  0.97291  1.0000 0.118323548
H   H14       1.0  0.79156  0.29031  0.97173  1.0000 0.118323548
H   H15       1.0  0.54440  0.42587  0.90916  1.0000 0.1322431862
H   H16       1.0  0.91783  0.38478  0.91187  1.0000 0.1322431862
H   H17       1.0  0.56392  0.49262  0.83162  1.0000 0.0976346128
H   H18       1.0  0.92596  0.44817  0.83397  1.0000 0.1100425848
H   H19       1.0  0.41002  0.75087  0.19543  1.0000 0.169352514
H   H20       1.0  0.07469  0.29526  0.32103  1.0000 0.1770667222
H   H21       1.0  0.04961  0.53380  0.33723  1.0000 0.0976346128
H   H22       1.0  0.41298  0.48160  0.33875  1.0000 0.1100425848
H   H23       1.0  0.03127  0.50280  0.41847  1.0000 0.1322431862
H   H24       1.0  0.40218  0.45284  0.42114  1.0000 0.1322431862
H   H25       1.0  0.21667  0.49145  0.50038  1.0000 0.118323548
H   H26       1.0  0.11525  0.42938  0.49226  1.0000 0.118323548
H   H27       1.0  0.29755  0.31539  0.47704  1.0000 0.1100425848
H   H28       1.0  0.37038  0.37534  0.50458  1.0000 0.0976346128
H   H29       1.0  0.16563  0.29021  0.54605  1.0000 0.118323548
H   H30       1.0  0.30469  0.24836  0.55343  1.0000 0.118323548
H   H31       1.0  0.14464  0.26798  0.63539  1.0000 0.1322431862
H   H32       1.0  0.35126  0.45477  0.56944  1.0000 0.1322431862
H   H33       1.0  0.15471  0.33007  0.70522  1.0000 0.1100425848
H   H34       1.0  0.35226  0.51422  0.64022  1.0000 0.1100425848
H   H35       1.0  0.20210  0.90904  0.54144  1.0000 0.3715670642
H   H36       1.0  0.10575  0.85794  0.55495  1.0000 0.3589409229
H   H37       1.0  0.48751  0.74979  0.64205  1.0000 0.3032225941
H   H38       1.0  0.82043  0.81098  0.59583  1.0000 0.162408209
H   H39       1.0  0.98669  0.18981  0.52824  1.0000 0.1100425848
H   H40       1.0  0.89218  0.96944  0.60415  1.0000 0.118323548
H   H41       1.0  0.90947  0.27652  0.58705  1.0000 0.1322431862
H   H42       1.0  0.81534  0.05011  0.66505  1.0000 0.138062605
H   H43       1.0  0.81216  0.29066  0.66530  1.0000 0.1100425848
H   H44       1.0  0.85519  0.20653  0.70243  1.0000 0.1322431862
H   H45       1.0  0.65317  0.24741  0.72185  1.0000 0.1100425848
H   H46       1.0  0.65842  0.15609  0.69925  1.0000 0.0976346128
H   H47       1.0  0.49092  0.27864  0.67604  1.0000 0.118323548
H   H48       1.0  0.59354  0.32244  0.64208  1.0000 0.1100425848
H   H49       1.0  0.64145  0.27010  0.56148  1.0000 0.1322431862
H   H50       1.0  0.43691  0.12499  0.66004  1.0000 0.138062605
H   H51       1.0  0.61368  0.17229  0.50908  1.0000 0.1100425848
H   H52       1.0  0.41095  0.03296  0.60318  1.0000 0.118323548
H   H53       1.0  0.57429  0.89143  0.07115  1.0000 0.3484418429
H   H54       1.0  0.68777  0.92386  0.06129  1.0000 0.3715670642
H   H55       1.0  0.97778  0.78622  0.15680  1.0000 0.3032225941
H   H56       1.0  0.31274  0.84382  0.11057  1.0000 0.162408209
H   H57       1.0  0.92633  0.05635  0.10307  1.0000 0.1100425848
H   H58       1.0  0.08847  0.18782  0.99287  1.0000 0.1100425848
H   H59       1.0  0.95176  0.16596  0.15019  1.0000 0.138062605
H   H60       1.0  0.10784  0.30369  0.03593  1.0000 0.138062605
H   H61       1.0  0.05177  0.38022  0.11032  1.0000 0.1100425848
H   H62       1.0  0.97802  0.32848  0.15279  1.0000 0.118323548
H   H63       1.0  0.15528  0.34613  0.18351  1.0000 0.1100425848
H   H64       1.0  0.16977  0.24322  0.17545  1.0000 0.0976346128
H   H65       1.0  0.35046  0.31743  0.15598  1.0000 0.118323548
H   H66       1.0  0.28160  0.37274  0.11213  1.0000 0.1100425848
H   H67       1.0  0.31006  0.13230  0.14950  1.0000 0.1322431862
H   H68       1.0  0.38754  0.31985  0.04111  1.0000 0.1322431862
H   H69       1.0  0.38902  0.02018  0.10258  1.0000 0.1100425848
H   H70       1.0  0.46728  0.20417  0.99706  1.0000 0.1100425848
H   H71       1.0  0.96805  0.34604  0.75103  1.0000 0.3484418429
H   H72       1.0  0.84569  0.32882  0.75698  1.0000 0.3484418429
H   H73       1.0  0.25939  0.17924  0.84839  1.0000 0.3032225941
H   H74       1.0  0.25424  0.77803  0.63567  1.0000 0.3032225941
H   H75       1.0  0.34914  0.64753  0.78374  1.0000 0.118323548
H   H76       1.0  0.19043  0.44695  0.85489  1.0000 0.1100425848
H   H77       1.0  0.36648  0.70912  0.85220  1.0000 0.138062605
H   H78       1.0  0.20556  0.50416  0.92562  1.0000 0.1322431862
H   H79       1.0  0.36772  0.68725  0.94086  1.0000 0.1100425848
H   H80       1.0  0.22250  0.71313  0.94125  1.0000 0.118323548
H   H81       1.0  0.34386  0.55447  0.99309  1.0000 0.0976346128
H   H82       1.0  0.19756  0.57798  0.99270  1.0000 0.0976346128
H   H83       1.0  0.35476  0.68984  0.02709  1.0000 0.118323548
H   H84       1.0  0.20844  0.70969  0.02827  1.0000 0.118323548
H   H85       1.0  0.45560  0.57413  0.09084  1.0000 0.1322431862
H   H86       1.0  0.08217  0.61522  0.08813  1.0000 0.1322431862
H   H87       1.0  0.43608  0.50738  0.16838  1.0000 0.0976346128
H   H88       1.0  0.07404  0.55183  0.16603  1.0000 0.1100425848
H   H89       1.0  0.58998  0.24913  0.80457  1.0000 0.169352514
H   H90       1.0  0.92531  0.70474  0.67897  1.0000 0.1770667222
H   H91       1.0  0.95039  0.46620  0.66277  1.0000 0.0976346128
H   H92       1.0  0.58702  0.51840  0.66125  1.0000 0.1100425848
H   H93       1.0  0.96873  0.49720  0.58153  1.0000 0.1322431862
H   H94       1.0  0.59782  0.54716  0.57886  1.0000 0.1322431862
H   H95       1.0  0.78333  0.50855  0.49962  1.0000 0.118323548
H   H96       1.0  0.88475  0.57062  0.50774  1.0000 0.118323548
H   H97       1.0  0.70245  0.68461  0.52296  1.0000 0.1100425848
H   H98       1.0  0.62962  0.62466  0.49542  1.0000 0.0976346128
H   H99       1.0  0.83437  0.70979  0.45395  1.0000 0.118323548
H   H100      1.0  0.69531  0.75164  0.44657  1.0000 0.118323548
H   H101      1.0  0.85536  0.73202  0.36461  1.0000 0.1322431862
H   H102      1.0  0.64874  0.54523  0.43056  1.0000 0.1322431862
H   H103      1.0  0.84529  0.66993  0.29478  1.0000 0.1100425848
H   H104      1.0  0.64774  0.48578  0.35978  1.0000 0.1100425848
H   H105      1.0  0.79790  0.09096  0.45856  1.0000 0.3715670642
H   H106      1.0  0.89425  0.14206  0.44505  1.0000 0.3589409229
H   H107      1.0  0.51249  0.25021  0.35795  1.0000 0.3032225941
H   H108      1.0  0.17957  0.18902  0.40417  1.0000 0.162408209
H   H109      1.0  0.01331  0.81019  0.47176  1.0000 0.1100425848
H   H110      1.0  0.10782  0.03056  0.39585  1.0000 0.118323548
H   H111      1.0  0.09053  0.72348  0.41295  1.0000 0.1322431862
H   H112      1.0  0.18466  0.94989  0.33495  1.0000 0.138062605
H   H113      1.0  0.18784  0.70934  0.33470  1.0000 0.1100425848
H   H114      1.0  0.14481  0.79347  0.29757  1.0000 0.1322431862
H   H115      1.0  0.34683  0.75259  0.27815  1.0000 0.1100425848
H   H116      1.0  0.34158  0.84391  0.30075  1.0000 0.0976346128
H   H117      1.0  0.50908  0.72136  0.32396  1.0000 0.118323548
H   H118      1.0  0.40646  0.67756  0.35792  1.0000 0.1100425848
H   H119      1.0  0.35855  0.72990  0.43852  1.0000 0.1322431862
H   H120      1.0  0.56309  0.87501  0.33996  1.0000 0.138062605
H   H121      1.0  0.38632  0.82771  0.49092  1.0000 0.1100425848
H   H122      1.0  0.58905  0.96704  0.39682  1.0000 0.118323548
H   H123      1.0  0.42571  0.10857  0.92885  1.0000 0.3484418429
H   H124      1.0  0.31223  0.07614  0.93871  1.0000 0.3715670642
H   H125      1.0  0.02222  0.21378  0.84320  1.0000 0.3032225941
H   H126      1.0  0.68726  0.15618  0.88943  1.0000 0.162408209
H   H127      1.0  0.07367  0.94365  0.89693  1.0000 0.1100425848
H   H128      1.0  0.91153  0.81218  0.00713  1.0000 0.1100425848
H   H129      1.0  0.04824  0.83404  0.84981  1.0000 0.138062605
H   H130      1.0  0.89216  0.69631  0.96407  1.0000 0.138062605
H   H131      1.0  0.94823  0.61978  0.88968  1.0000 0.1100425848
H   H132      1.0  0.02198  0.67152  0.84721  1.0000 0.118323548
H   H133      1.0  0.84472  0.65387  0.81649  1.0000 0.1100425848
H   H134      1.0  0.83023  0.75678  0.82455  1.0000 0.0976346128
H   H135      1.0  0.64954  0.68257  0.84402  1.0000 0.118323548
H   H136      1.0  0.71840  0.62726  0.88787  1.0000 0.1100425848
H   H137      1.0  0.68994  0.86770  0.85050  1.0000 0.1322431862
H   H138      1.0  0.61246  0.68015  0.95889  1.0000 0.1322431862
H   H139      1.0  0.61098  0.97982  0.89742  1.0000 0.1100425848
H   H140      1.0  0.53272  0.79583  0.00294  1.0000 0.1100425848
C   C1        1.0  0.68100  0.38160  0.18730  1.0000 0.0785098966
C   C2        1.0  0.77390  0.49930  0.14570  1.0000 0.0785098966
C   C3        1.0  0.67080  0.34420  0.14640  1.0000 -0.2190740274
C   C4        1.0  0.76580  0.46480  0.10300  1.0000 -0.2296908262
C   C5        1.0  0.71560  0.38460  0.10220  1.0000 0.162408209
C   C6        1.0  0.71120  0.33790  0.05770  1.0000 -0.266642085
C   C7        1.0  0.72420  0.39580  0.00950  1.0000 -0.1454854074
C   C8        1.0  0.72170  0.33870  0.96920  1.0000 -0.266642085
C   C9        1.0  0.72870  0.39090  0.91990  1.0000 0.169352514
C   C10       1.0  0.62380  0.42790  0.89430  1.0000 -0.2109890089
C   C11       1.0  0.84400  0.40300  0.89600  1.0000 -0.2109890089
C   C12       1.0  0.63590  0.46760  0.84740  1.0000 0.0706020891
C   C13       1.0  0.84770  0.44200  0.84910  1.0000 0.0976346128
C   C14       1.0  0.48820  0.59150  0.24437  1.0000 0.519893789
C   C15       1.0  0.55980  0.66490  0.21762  1.0000 0.147999483
C   C16       1.0  0.49710  0.74090  0.19380  1.0000 -0.3884647253
C   C17       1.0  0.56880  0.80470  0.16620  1.0000 0.5386877097
C   C18       1.0  0.75660  0.70680  0.19320  1.0000 0.620800161
C   C19       1.0  0.99530  0.44130  0.26255  1.0000 0.519893789
C   C20       1.0  0.92590  0.37040  0.29261  1.0000 0.147999483
C   C21       1.0  0.98770  0.30250  0.32100  1.0000 -0.352202392
C   C22       1.0  0.91700  0.24180  0.35110  1.0000 0.5386877097
C   C23       1.0  0.72960  0.32710  0.31620  1.0000 0.620800161
C   C24       1.0  0.12190  0.51540  0.35410  1.0000 0.0785098966
C   C25       1.0  0.33470  0.48540  0.35490  1.0000 0.0976346128
C   C26       1.0  0.11050  0.49680  0.40310  1.0000 -0.2109890089
C   C27       1.0  0.32880  0.46700  0.40460  1.0000 -0.2190740274
C   C28       1.0  0.21300  0.46960  0.43000  1.0000 0.169352514
C   C29       1.0  0.20080  0.44110  0.48370  1.0000 -0.2619118336
C   C30       1.0  0.28860  0.35690  0.50150  1.0000 -0.1394190255
C   C31       1.0  0.24950  0.30540  0.54870  1.0000 -0.2751661304
C   C32       1.0  0.24960  0.35320  0.59310  1.0000 0.169352514
C   C33       1.0  0.18870  0.31770  0.63550  1.0000 -0.2190740274
C   C34       1.0  0.30990  0.42790  0.59660  1.0000 -0.2190740274
C   C35       1.0  0.19400  0.35610  0.67730  1.0000 0.0706020891
C   C36       1.0  0.31030  0.46370  0.63940  1.0000 0.0785098966
C   C37       1.0  0.75160  0.92830  0.52040  1.0000 0.5292090711
C   C38       1.0  0.67560  0.87330  0.55899  1.0000 0.138062605
C   C39       1.0  0.73370  0.81770  0.59470  1.0000 -0.3796001437
C   C40       1.0  0.65940  0.76910  0.63080  1.0000 0.5386877097
C   C41       1.0  0.47780  0.84010  0.58620  1.0000 0.620800161
C   C42       1.0  0.95020  0.16130  0.55610  1.0000 0.0785098966
C   C43       1.0  0.89540  0.03210  0.60050  1.0000 0.0976346128
C   C44       1.0  0.90530  0.21390  0.59150  1.0000 -0.2296908262
C   C45       1.0  0.84970  0.08050  0.63730  1.0000 -0.2027626808
C   C46       1.0  0.85300  0.17320  0.63450  1.0000 0.169352514
C   C47       1.0  0.80320  0.22680  0.67520  1.0000 -0.2619118336
C   C48       1.0  0.66880  0.22030  0.69200  1.0000 -0.1289024639
C   C49       1.0  0.56880  0.26490  0.65750  1.0000 -0.266642085
C   C50       1.0  0.54530  0.20770  0.61890  1.0000 0.169352514
C   C51       1.0  0.59620  0.22140  0.57130  1.0000 -0.2027626808
C   C52       1.0  0.47470  0.13580  0.62940  1.0000 -0.2109890089
C   C53       1.0  0.57810  0.16260  0.54010  1.0000 0.0706020891
C   C54       1.0  0.45980  0.08030  0.59510  1.0000 0.0785098966
C   C55       1.0  0.24800  0.93840  0.02750  1.0000 0.5292090711
C   C56       1.0  0.16960  0.89340  0.06827  1.0000 0.147999483
C   C57       1.0  0.22670  0.84750  0.10790  1.0000 -0.3884647253
C   C58       1.0  0.14970  0.80570  0.14490  1.0000 0.5292090711
C   C59       1.0  0.97100  0.86350  0.09570  1.0000 0.620800161
C   C60       1.0  0.96550  0.10620  0.08930  1.0000 0.0883826253
C   C61       1.0  0.05880  0.18350  0.02490  1.0000 0.0600204293
C   C62       1.0  0.97930  0.17230  0.11790  1.0000 -0.2190740274
C   C63       1.0  0.07240  0.25290  0.05080  1.0000 -0.2109890089
C   C64       1.0  0.03450  0.24860  0.09850  1.0000 0.169352514
C   C65       1.0  0.05060  0.32230  0.13050  1.0000 -0.266642085
C   C66       1.0  0.16560  0.30490  0.15890  1.0000 -0.1289024639
C   C67       1.0  0.28930  0.31460  0.13250  1.0000 -0.266642085
C   C68       1.0  0.34140  0.24010  0.10110  1.0000 0.169352514
C   C69       1.0  0.34200  0.14860  0.11840  1.0000 -0.2109890089
C   C70       1.0  0.38790  0.25940  0.05470  1.0000 -0.2356564465
C   C71       1.0  0.38970  0.08110  0.09010  1.0000 0.1100425848
C   C72       1.0  0.43500  0.18950  0.02830  1.0000 0.0785098966
C   C73       1.0  0.31900  0.61840  0.81270  1.0000 0.0785098966
C   C74       1.0  0.22610  0.50070  0.85430  1.0000 0.0785098966
C   C75       1.0  0.32920  0.65580  0.85360  1.0000 -0.2190740274
C   C76       1.0  0.23420  0.53520  0.89700  1.0000 -0.2296908262
C   C77       1.0  0.28440  0.61540  0.89780  1.0000 0.162408209
C   C78       1.0  0.28880  0.66210  0.94230  1.0000 -0.266642085
C   C79       1.0  0.27580  0.60420  0.99050  1.0000 -0.1454854074
C   C80       1.0  0.27830  0.66130  0.03080  1.0000 -0.266642085
C   C81       1.0  0.27130  0.60910  0.08010  1.0000 0.169352514
C   C82       1.0  0.37620  0.57210  0.10570  1.0000 -0.2109890089
C   C83       1.0  0.15600  0.59700  0.10400  1.0000 -0.2109890089
C   C84       1.0  0.36410  0.53240  0.15260  1.0000 0.0706020891
C   C85       1.0  0.15230  0.55800  0.15090  1.0000 0.1100425848
C   C86       1.0  0.51180  0.40850  0.75563  1.0000 0.519893789
C   C87       1.0  0.44020  0.33510  0.78238  1.0000 0.147999483
C   C88       1.0  0.50290  0.25910  0.80620  1.0000 -0.3884647253
C   C89       1.0  0.43120  0.19530  0.83380  1.0000 0.5386877097
C   C90       1.0  0.24340  0.29320  0.80680  1.0000 0.620800161
C   C91       1.0  0.00470  0.55870  0.73745  1.0000 0.519893789
C   C92       1.0  0.07410  0.62960  0.70739  1.0000 0.138062605
C   C93       1.0  0.01230  0.69750  0.67900  1.0000 -0.352202392
C   C94       1.0  0.08300  0.75820  0.64890  1.0000 0.5386877097
C   C95       1.0  0.27040  0.67290  0.68380  1.0000 0.620800161
C   C96       1.0  0.87810  0.48460  0.64590  1.0000 0.0785098966
C   C97       1.0  0.66530  0.51460  0.64510  1.0000 0.0976346128
C   C98       1.0  0.88950  0.50320  0.59690  1.0000 -0.2109890089
C   C99       1.0  0.67120  0.53300  0.59540  1.0000 -0.2190740274
C   C100      1.0  0.78700  0.53040  0.57000  1.0000 0.169352514
C   C101      1.0  0.79920  0.55890  0.51630  1.0000 -0.2619118336
C   C102      1.0  0.71140  0.64310  0.49850  1.0000 -0.1394190255
C   C103      1.0  0.75050  0.69460  0.45130  1.0000 -0.266642085
C   C104      1.0  0.75040  0.64680  0.40690  1.0000 0.169352514
C   C105      1.0  0.81130  0.68230  0.36450  1.0000 -0.2190740274
C   C106      1.0  0.69010  0.57210  0.40340  1.0000 -0.2190740274
C   C107      1.0  0.80600  0.64390  0.32270  1.0000 0.0706020891
C   C108      1.0  0.68970  0.53630  0.36060  1.0000 0.0785098966
C   C109      1.0  0.24840  0.07170  0.47960  1.0000 0.5292090711
C   C110      1.0  0.32440  0.12670  0.44101  1.0000 0.138062605
C   C111      1.0  0.26630  0.18230  0.40530  1.0000 -0.3796001437
C   C112      1.0  0.34060  0.23090  0.36920  1.0000 0.5386877097
C   C113      1.0  0.52220  0.15990  0.41380  1.0000 0.620800161
C   C114      1.0  0.04980  0.83870  0.44390  1.0000 0.0785098966
C   C115      1.0  0.10460  0.96790  0.39950  1.0000 0.0976346128
C   C116      1.0  0.09470  0.78610  0.40850  1.0000 -0.2296908262
C   C117      1.0  0.15030  0.91950  0.36270  1.0000 -0.2027626808
C   C118      1.0  0.14700  0.82680  0.36550  1.0000 0.169352514
C   C119      1.0  0.19680  0.77320  0.32480  1.0000 -0.2619118336
C   C120      1.0  0.33120  0.77970  0.30800  1.0000 -0.1289024639
C   C121      1.0  0.43120  0.73510  0.34250  1.0000 -0.266642085
C   C122      1.0  0.45470  0.79230  0.38110  1.0000 0.169352514
C   C123      1.0  0.40380  0.77860  0.42870  1.0000 -0.2027626808
C   C124      1.0  0.52530  0.86420  0.37060  1.0000 -0.2109890089
C   C125      1.0  0.42190  0.83740  0.45990  1.0000 0.0706020891
C   C126      1.0  0.54020  0.91970  0.40490  1.0000 0.0785098966
C   C127      1.0  0.75200  0.06160  0.97250  1.0000 0.5292090711
C   C128      1.0  0.83040  0.10660  0.93173  1.0000 0.147999483
C   C129      1.0  0.77330  0.15250  0.89210  1.0000 -0.3884647253
C   C130      1.0  0.85030  0.19430  0.85510  1.0000 0.5292090711
C   C131      1.0  0.02900  0.13650  0.90430  1.0000 0.620800161
C   C132      1.0  0.03450  0.89380  0.91070  1.0000 0.0883826253
C   C133      1.0  0.94120  0.81650  0.97510  1.0000 0.0600204293
C   C134      1.0  0.02070  0.82770  0.88210  1.0000 -0.2190740274
C   C135      1.0  0.92760  0.74710  0.94920  1.0000 -0.2109890089
C   C136      1.0  0.96550  0.75140  0.90150  1.0000 0.169352514
C   C137      1.0  0.94940  0.67770  0.86950  1.0000 -0.2619118336
C   C138      1.0  0.83440  0.69510  0.84110  1.0000 -0.1289024639
C   C139      1.0  0.71070  0.68540  0.86750  1.0000 -0.266642085
C   C140      1.0  0.65860  0.75990  0.89890  1.0000 0.169352514
C   C141      1.0  0.65800  0.85140  0.88160  1.0000 -0.2109890089
C   C142      1.0  0.61210  0.74060  0.94530  1.0000 -0.2356564465
C   C143      1.0  0.61030  0.91890  0.90990  1.0000 0.1100425848
C   C144      1.0  0.56500  0.81050  0.97170  1.0000 0.0785098966
N   N1        1.0  0.73250  0.45890  0.18813  1.0000 -0.2109890089
N   N2        1.0  0.74750  0.47160  0.82353  1.0000 -0.2356564465
N   N3        1.0  0.68630  0.64640  0.21868  1.0000 -0.4842457685
N   N4        1.0  0.69500  0.78320  0.16787  1.0000 -0.4314525289
N   N5        1.0  0.79090  0.25800  0.34664  1.0000 -0.4314525289
N   N6        1.0  0.79880  0.38560  0.28884  1.0000 -0.4917016787
N   N7        1.0  0.23340  0.50840  0.32901  1.0000 -0.2296908262
N   N8        1.0  0.25280  0.42900  0.67993  1.0000 -0.2190740274
N   N9        1.0  0.54830  0.88850  0.55384  1.0000 -0.4917016787
N   N10       1.0  0.53480  0.78140  0.62266  1.0000 -0.4314525289
N   N11       1.0  0.94500  0.07120  0.55904  1.0000 -0.2296908262
N   N12       1.0  0.51270  0.09160  0.55061  1.0000 -0.2190740274
N   N13       1.0  0.02590  0.81400  0.13585  1.0000 -0.4387398127
N   N14       1.0  0.04480  0.90460  0.06111  1.0000 -0.4842457685
N   N15       1.0  0.00470  0.10890  0.04320  1.0000 -0.2190740274
N   N16       1.0  0.43640  0.10100  0.04570  1.0000 -0.2296908262
N   N17       1.0  0.26750  0.54110  0.81187  1.0000 -0.2109890089
N   N18       1.0  0.25250  0.52840  0.17647  1.0000 -0.2356564465
N   N19       1.0  0.31370  0.35360  0.78132  1.0000 -0.4842457685
N   N20       1.0  0.30500  0.21680  0.83213  1.0000 -0.4314525289
N   N21       1.0  0.20910  0.74200  0.65336  1.0000 -0.4314525289
N   N22       1.0  0.20120  0.61440  0.71116  1.0000 -0.4917016787
N   N23       1.0  0.76660  0.49160  0.67099  1.0000 -0.2296908262
N   N24       1.0  0.74720  0.57100  0.32007  1.0000 -0.2190740274
N   N25       1.0  0.45170  0.11150  0.44616  1.0000 -0.4917016787
N   N26       1.0  0.46520  0.21860  0.37734  1.0000 -0.4314525289
N   N27       1.0  0.05500  0.92880  0.44096  1.0000 -0.2356564465
N   N28       1.0  0.48730  0.90840  0.44939  1.0000 -0.2190740274
N   N29       1.0  0.97410  0.18600  0.86415  1.0000 -0.4387398127
N   N30       1.0  0.95520  0.09540  0.93889  1.0000 -0.4917016787
N   N31       1.0  0.99530  0.89110  0.95680  1.0000 -0.2190740274
N   N32       1.0  0.56360  0.89900  0.95430  1.0000 -0.2296908262
O   O1        1.0  0.55220  0.51940  0.26291  1.0000 -0.5187617305
O   O2        1.0  0.37230  0.60530  0.24574  1.0000 -0.4993395769
O   O3        1.0  0.10750  0.62910  0.24993  1.0000 -0.6786910656
O   O4        1.0  0.52380  0.87700  0.14150  1.0000 -0.5187617305
O   O5        1.0  0.87260  0.69670  0.19222  1.0000 -0.5495384498
O   O6        1.0  0.11270  0.42630  0.26025  1.0000 -0.5081317487
O   O7        1.0  0.93210  0.51170  0.24261  1.0000 -0.5081317487
O   O8        1.0  0.61330  0.33220  0.31493  1.0000 -0.5495384498
O   O9        1.0  0.96410  0.17600  0.37950  1.0000 -0.5081317487
O   O10       1.0  0.69140  0.98510  0.49058  1.0000 -0.5081317487
O   O11       1.0  0.86730  0.91420  0.52270  1.0000 -0.5187617305
O   O12       1.0  0.70130  0.71840  0.66611  1.0000 -0.4842457685
O   O13       1.0  0.12470  0.90670  0.53853  1.0000 -0.6853564146
O   O14       1.0  0.36150  0.84500  0.58476  1.0000 -0.5495384498
O   O15       1.0  0.19130  0.98710  0.99355  1.0000 -0.4993395769
O   O16       1.0  0.36390  0.92500  0.03081  1.0000 -0.5187617305
O   O17       1.0  0.85460  0.86900  0.09366  1.0000 -0.5567528072
O   O18       1.0  0.18760  0.76130  0.18322  1.0000 -0.4993395769
O   O19       1.0  0.61450  0.92640  0.05130  1.0000 -0.6786910656
O   O20       1.0  0.44780  0.48060  0.73709  1.0000 -0.5187617305
O   O21       1.0  0.62770  0.39470  0.75426  1.0000 -0.4993395769
O   O22       1.0  0.89250  0.37090  0.75007  1.0000 -0.6786910656
O   O23       1.0  0.47620  0.12300  0.85850  1.0000 -0.5187617305
O   O24       1.0  0.12740  0.30330  0.80778  1.0000 -0.5495384498
O   O25       1.0  0.88730  0.57370  0.73975  1.0000 -0.5081317487
O   O26       1.0  0.06790  0.48830  0.75739  1.0000 -0.5081317487
O   O27       1.0  0.38670  0.66780  0.68507  1.0000 -0.5495384498
O   O28       1.0  0.03590  0.82400  0.62050  1.0000 -0.5081317487
O   O29       1.0  0.30860  0.01490  0.50942  1.0000 -0.5081317487
O   O30       1.0  0.13270  0.08580  0.47730  1.0000 -0.5187617305
O   O31       1.0  0.29870  0.28160  0.33389  1.0000 -0.4917016787
O   O32       1.0  0.87530  0.09330  0.46147  1.0000 -0.6853564146
O   O33       1.0  0.63850  0.15500  0.41524  1.0000 -0.5495384498
O   O34       1.0  0.80870  0.01290  0.00645  1.0000 -0.4993395769
O   O35       1.0  0.63610  0.07500  0.96919  1.0000 -0.5187617305
O   O36       1.0  0.14540  0.13100  0.90634  1.0000 -0.5567528072
O   O37       1.0  0.81240  0.23870  0.81678  1.0000 -0.4993395769
O   O38       1.0  0.38550  0.07360  0.94870  1.0000 -0.6786910656
