# DDEC6 charges by PACMAN v1.1 (https://github.com/mtap-research/PACMAN-charge/)
data_0000[Zn][sql]2[ASR]3
_chemical_formula_sum              "Zn2 H68 C72 N8 O8"
_cell_length_a       12.2677
_cell_length_b       12.2677
_cell_length_c       13.625
_cell_angle_alpha    89.7493
_cell_angle_beta     90.2507
_cell_angle_gamma    55.315

_symmetry_space_group_name_H-M    "P 1"
_symmetry_Int_Tables_number       1

loop_
  _symmetry_equiv_pos_as_xyz
  'x, y, z'

loop_
  _atom_site_type_symbol
  _atom_site_label
  _atom_site_symmetry_multiplicity
  _atom_site_fract_x
  _atom_site_fract_y
  _atom_site_fract_z
  _atom_site_occupancy
  _atom_site_charge
Zn  Zn1       1.0  0.71557  0.71557  0.75000  1.0000 0.7909673275
Zn  Zn2       1.0  0.28443  0.28443  0.25000  1.0000 0.7909673275
H   H1        1.0  0.59740  0.90740  0.41450  1.0000 0.1205670241
H   H2        1.0  0.66490  0.75550  0.39830  1.0000 0.1205670241
H   H3        1.0  0.57130  0.82630  0.48820  1.0000 0.1308478003
H   H4        1.0  0.81880  0.79100  0.46680  1.0000 0.1002524318
H   H5        1.0  0.79650  0.70450  0.53800  1.0000 0.1205670241
H   H6        1.0  0.57900  0.99120  0.86250  1.0000 0.1363825012
H   H7        1.0  0.52680  0.19700  0.90800  1.0000 0.1205670241
H   H8        1.0  0.55410  0.32590  0.80130  1.0000 0.1205670241
H   H9        1.0  0.63400  0.25380  0.64480  1.0000 0.1308478003
H   H10       1.0  0.73610  0.00550  0.43050  1.0000 0.1308478003
H   H11       1.0  0.67200  0.14560  0.47770  1.0000 0.1308478003
H   H12       1.0  0.96570  0.85050  0.57070  1.0000 0.1205670241
H   H13       1.0  0.82560  0.19140  0.42630  1.0000 0.1205670241
H   H14       1.0  0.34850  0.91250  0.91230  1.0000 0.1363825012
H   H15       1.0  0.31630  0.81850  0.86340  1.0000 0.1363825012
H   H16       1.0  0.29270  0.11070  0.78910  1.0000 0.1308478003
H   H17       1.0  0.10950  0.92770  0.78810  1.0000 0.1147909807
H   H18       1.0  0.90740  0.59740  0.08550  1.0000 0.1205670241
H   H19       1.0  0.75550  0.66490  0.10170  1.0000 0.1205670241
H   H20       1.0  0.82630  0.57130  0.01180  1.0000 0.1308478003
H   H21       1.0  0.79100  0.81880  0.03320  1.0000 0.1002524318
H   H22       1.0  0.70450  0.79650  0.96200  1.0000 0.1205670241
H   H23       1.0  0.99120  0.57900  0.63750  1.0000 0.1363825012
H   H24       1.0  0.19700  0.52680  0.59200  1.0000 0.1205670241
H   H25       1.0  0.32590  0.55410  0.69870  1.0000 0.1205670241
H   H26       1.0  0.25380  0.63400  0.85520  1.0000 0.1308478003
H   H27       1.0  0.00550  0.73610  0.06950  1.0000 0.1308478003
H   H28       1.0  0.14560  0.67200  0.02230  1.0000 0.1308478003
H   H29       1.0  0.85050  0.96570  0.92930  1.0000 0.1205670241
H   H30       1.0  0.19140  0.82560  0.07370  1.0000 0.1205670241
H   H31       1.0  0.91250  0.34850  0.58770  1.0000 0.1363825012
H   H32       1.0  0.81850  0.31630  0.63660  1.0000 0.1363825012
H   H33       1.0  0.11070  0.29270  0.71090  1.0000 0.1308478003
H   H34       1.0  0.92770  0.10950  0.71190  1.0000 0.1147909807
H   H35       1.0  0.40260  0.09260  0.58550  1.0000 0.1205670241
H   H36       1.0  0.33510  0.24450  0.60170  1.0000 0.1205670241
H   H37       1.0  0.42870  0.17370  0.51180  1.0000 0.1308478003
H   H38       1.0  0.18120  0.20900  0.53320  1.0000 0.1002524318
H   H39       1.0  0.20350  0.29550  0.46200  1.0000 0.1205670241
H   H40       1.0  0.42100  0.00880  0.13750  1.0000 0.1363825012
H   H41       1.0  0.47320  0.80300  0.09200  1.0000 0.1205670241
H   H42       1.0  0.44590  0.67410  0.19870  1.0000 0.1205670241
H   H43       1.0  0.36600  0.74620  0.35520  1.0000 0.1308478003
H   H44       1.0  0.26390  0.99450  0.56950  1.0000 0.1308478003
H   H45       1.0  0.32800  0.85440  0.52230  1.0000 0.1308478003
H   H46       1.0  0.03430  0.14950  0.42930  1.0000 0.1205670241
H   H47       1.0  0.17440  0.80860  0.57370  1.0000 0.1205670241
H   H48       1.0  0.65150  0.08750  0.08770  1.0000 0.1363825012
H   H49       1.0  0.68370  0.18150  0.13660  1.0000 0.1363825012
H   H50       1.0  0.70730  0.88930  0.21090  1.0000 0.1308478003
H   H51       1.0  0.89050  0.07230  0.21190  1.0000 0.1147909807
H   H52       1.0  0.09260  0.40260  0.91450  1.0000 0.1205670241
H   H53       1.0  0.24450  0.33510  0.89830  1.0000 0.1205670241
H   H54       1.0  0.17370  0.42870  0.98820  1.0000 0.1308478003
H   H55       1.0  0.20900  0.18120  0.96680  1.0000 0.1002524318
H   H56       1.0  0.29550  0.20350  0.03800  1.0000 0.1205670241
H   H57       1.0  0.00880  0.42100  0.36250  1.0000 0.1363825012
H   H58       1.0  0.80300  0.47320  0.40800  1.0000 0.1205670241
H   H59       1.0  0.67410  0.44590  0.30130  1.0000 0.1205670241
H   H60       1.0  0.74620  0.36600  0.14480  1.0000 0.1308478003
H   H61       1.0  0.99450  0.26390  0.93050  1.0000 0.1308478003
H   H62       1.0  0.85440  0.32800  0.97770  1.0000 0.1308478003
H   H63       1.0  0.14950  0.03430  0.07070  1.0000 0.1205670241
H   H64       1.0  0.80860  0.17440  0.92630  1.0000 0.1205670241
H   H65       1.0  0.08750  0.65150  0.41230  1.0000 0.1363825012
H   H66       1.0  0.18150  0.68370  0.36340  1.0000 0.1363825012
H   H67       1.0  0.88930  0.70730  0.28910  1.0000 0.1308478003
H   H68       1.0  0.07230  0.89050  0.28810  1.0000 0.1147909807
C   C1        1.0  0.63601  0.82321  0.44670  1.0000 -0.3368328689
C   C2        1.0  0.75445  0.79205  0.50870  1.0000 -0.2550167917
C   C3        1.0  0.71444  0.89104  0.58750  1.0000 0.3232993306
C   C4        1.0  0.64139  0.99759  0.72510  1.0000 0.1308478003
C   C5        1.0  0.59102  0.04242  0.81930  1.0000 -0.1753294496
C   C6        1.0  0.55967  0.16527  0.84550  1.0000 -0.1093975919
C   C7        1.0  0.57607  0.24347  0.78090  1.0000 -0.1093975919
C   C8        1.0  0.62379  0.20139  0.68800  1.0000 -0.1731358199
C   C9        1.0  0.65651  0.07651  0.66110  1.0000 0.083886343
C   C10       1.0  0.73762  0.05142  0.48780  1.0000 -0.1571477233
C   C11       1.0  0.87324  0.02584  0.49754  1.0000 0.083886343
C   C12       1.0  0.97926  0.91086  0.54210  1.0000 -0.1436542449
C   C13       1.0  0.89556  0.11416  0.45600  1.0000 -0.1514194388
C   C14       1.0  0.46426  0.81666  0.79260  1.0000 0.6147092999
C   C15       1.0  0.33610  0.88310  0.84990  1.0000 -0.4104103623
C   C16       1.0  0.22001  0.99961  0.79710  1.0000 0.1308478003
C   C17       1.0  0.21947  0.10967  0.77360  1.0000 -0.1514194388
C   C18       1.0  0.11066  0.00106  0.77320  1.0000 -0.1514194388
C   C19       1.0  0.82321  0.63601  0.05330  1.0000 -0.3368328689
C   C20       1.0  0.79205  0.75445  0.99130  1.0000 -0.2550167917
C   C21       1.0  0.89104  0.71444  0.91250  1.0000 0.3232993306
C   C22       1.0  0.99759  0.64139  0.77490  1.0000 0.1308478003
C   C23       1.0  0.04242  0.59102  0.68070  1.0000 -0.1753294496
C   C24       1.0  0.16527  0.55967  0.65450  1.0000 -0.1093975919
C   C25       1.0  0.24347  0.57607  0.71910  1.0000 -0.1093975919
C   C26       1.0  0.20139  0.62379  0.81200  1.0000 -0.1731358199
C   C27       1.0  0.07651  0.65651  0.83890  1.0000 0.083886343
C   C28       1.0  0.05142  0.73762  0.01220  1.0000 -0.1571477233
C   C29       1.0  0.02584  0.87324  0.00246  1.0000 0.083886343
C   C30       1.0  0.91086  0.97926  0.95790  1.0000 -0.1436542449
C   C31       1.0  0.11416  0.89556  0.04400  1.0000 -0.1514194388
C   C32       1.0  0.81666  0.46426  0.70740  1.0000 0.6147092999
C   C33       1.0  0.88310  0.33610  0.65010  1.0000 -0.4104103623
C   C34       1.0  0.99961  0.22001  0.70290  1.0000 0.1308478003
C   C35       1.0  0.10967  0.21947  0.72640  1.0000 -0.1514194388
C   C36       1.0  0.00106  0.11066  0.72680  1.0000 -0.1514194388
C   C37       1.0  0.36399  0.17679  0.55330  1.0000 -0.3368328689
C   C38       1.0  0.24555  0.20795  0.49130  1.0000 -0.2550167917
C   C39       1.0  0.28556  0.10896  0.41250  1.0000 0.3232993306
C   C40       1.0  0.35861  0.00241  0.27490  1.0000 0.1308478003
C   C41       1.0  0.40898  0.95758  0.18070  1.0000 -0.1753294496
C   C42       1.0  0.44033  0.83473  0.15450  1.0000 -0.1093975919
C   C43       1.0  0.42393  0.75653  0.21910  1.0000 -0.1093975919
C   C44       1.0  0.37621  0.79861  0.31200  1.0000 -0.1731358199
C   C45       1.0  0.34349  0.92349  0.33890  1.0000 0.083886343
C   C46       1.0  0.26238  0.94858  0.51220  1.0000 -0.1571477233
C   C47       1.0  0.12676  0.97416  0.50246  1.0000 0.083886343
C   C48       1.0  0.02074  0.08914  0.45790  1.0000 -0.1436542449
C   C49       1.0  0.10444  0.88584  0.54400  1.0000 -0.1514194388
C   C50       1.0  0.53574  0.18334  0.20740  1.0000 0.6147092999
C   C51       1.0  0.66390  0.11690  0.15010  1.0000 -0.4104103623
C   C52       1.0  0.77999  0.00039  0.20290  1.0000 0.1308478003
C   C53       1.0  0.78053  0.89033  0.22640  1.0000 -0.1514194388
C   C54       1.0  0.88934  0.99894  0.22680  1.0000 -0.1514194388
C   C55       1.0  0.17679  0.36399  0.94670  1.0000 -0.3368328689
C   C56       1.0  0.20795  0.24555  0.00870  1.0000 -0.2550167917
C   C57       1.0  0.10896  0.28556  0.08750  1.0000 0.3232993306
C   C58       1.0  0.00241  0.35861  0.22510  1.0000 0.1308478003
C   C59       1.0  0.95758  0.40898  0.31930  1.0000 -0.1753294496
C   C60       1.0  0.83473  0.44033  0.34550  1.0000 -0.1093975919
C   C61       1.0  0.75653  0.42393  0.28090  1.0000 -0.1049606605
C   C62       1.0  0.79861  0.37621  0.18800  1.0000 -0.1731358199
C   C63       1.0  0.92349  0.34349  0.16110  1.0000 0.083886343
C   C64       1.0  0.94858  0.26238  0.98780  1.0000 -0.1571477233
C   C65       1.0  0.97416  0.12676  0.99754  1.0000 0.083886343
C   C66       1.0  0.08914  0.02074  0.04210  1.0000 -0.1436542449
C   C67       1.0  0.88584  0.10444  0.95600  1.0000 -0.1514194388
C   C68       1.0  0.18334  0.53574  0.29260  1.0000 0.6147092999
C   C69       1.0  0.11690  0.66390  0.34990  1.0000 -0.4104103623
C   C70       1.0  0.00039  0.77999  0.29710  1.0000 0.1308478003
C   C71       1.0  0.89033  0.78053  0.27360  1.0000 -0.1514194388
C   C72       1.0  0.99894  0.88934  0.27320  1.0000 -0.1514194388
N   N1        1.0  0.67931  0.88091  0.67713  1.0000 -0.4104103623
N   N2        1.0  0.70219  0.00719  0.57451  1.0000 -0.0699503599
N   N3        1.0  0.88091  0.67931  0.82287  1.0000 -0.4104103623
N   N4        1.0  0.00719  0.70219  0.92549  1.0000 -0.0699503599
N   N5        1.0  0.32069  0.11909  0.32287  1.0000 -0.4104103623
N   N6        1.0  0.29781  0.99281  0.42549  1.0000 -0.0699503599
N   N7        1.0  0.11909  0.32069  0.17713  1.0000 -0.4104103623
N   N8        1.0  0.99281  0.29781  0.07451  1.0000 -0.0699503599
O   O1        1.0  0.46669  0.79669  0.70480  1.0000 -0.5407637088
O   O2        1.0  0.56671  0.78469  0.84003  1.0000 -0.5407637088
O   O3        1.0  0.79669  0.46669  0.79520  1.0000 -0.5407637088
O   O4        1.0  0.78469  0.56671  0.65997  1.0000 -0.5407637088
O   O5        1.0  0.53331  0.20331  0.29520  1.0000 -0.5407637088
O   O6        1.0  0.43329  0.21531  0.15997  1.0000 -0.5407637088
O   O7        1.0  0.20331  0.53331  0.20480  1.0000 -0.5407637088
O   O8        1.0  0.21531  0.43329  0.34003  1.0000 -0.5407637088
