# DDEC6 charges by PACMAN v1.1 (https://github.com/mtap-research/PACMAN-charge/)
data_0000[Cd][sra]3[ASR]3
_chemical_formula_sum              "Cd4 H24 C52 N20 O16"
_cell_length_a       10.0457
_cell_length_b       14.95
_cell_length_c       15.4699
_cell_angle_alpha    90
_cell_angle_beta     122.25
_cell_angle_gamma    90

_symmetry_space_group_name_H-M    "P 1"
_symmetry_Int_Tables_number       1

loop_
  _symmetry_equiv_pos_as_xyz
  'x, y, z'

loop_
  _atom_site_type_symbol
  _atom_site_label
  _atom_site_symmetry_multiplicity
  _atom_site_fract_x
  _atom_site_fract_y
  _atom_site_fract_z
  _atom_site_occupancy
  _atom_site_charge
Cd  Cd1       1.0  0.53798  0.47640  0.83232  1.0000 0.8588546279
Cd  Cd2       1.0  0.46202  0.97640  0.66768  1.0000 0.8588546279
Cd  Cd3       1.0  0.46202  0.52360  0.16768  1.0000 0.8588546279
Cd  Cd4       1.0  0.53798  0.02360  0.33232  1.0000 0.8588546279
H   H1        1.0  0.29300  0.43600  0.60300  1.0000 0.3139722335
H   H2        1.0  0.60641  0.27505  0.91786  1.0000 0.1032090025
H   H3        1.0  0.32969  0.12534  0.48430  1.0000 0.1179398882
H   H4        1.0  0.38085  0.43417  0.43661  1.0000 0.1484504181
H   H5        1.0  0.97561  0.51214  0.18439  1.0000 0.1329288247
H   H6        1.0  0.97661  0.42590  0.43063  1.0000 0.1484504181
H   H7        1.0  0.70700  0.93600  0.89700  1.0000 0.3139722335
H   H8        1.0  0.39359  0.77505  0.58214  1.0000 0.1032090025
H   H9        1.0  0.67031  0.62534  0.01570  1.0000 0.1179398882
H   H10       1.0  0.61915  0.93417  0.06339  1.0000 0.1484504181
H   H11       1.0  0.02439  0.01214  0.31561  1.0000 0.1329288247
H   H12       1.0  0.02339  0.92590  0.06937  1.0000 0.1484504181
H   H13       1.0  0.70700  0.56400  0.39700  1.0000 0.3139722335
H   H14       1.0  0.39359  0.72495  0.08214  1.0000 0.1032090025
H   H15       1.0  0.67031  0.87466  0.51570  1.0000 0.1179398882
H   H16       1.0  0.61915  0.56583  0.56339  1.0000 0.1484504181
H   H17       1.0  0.02439  0.48786  0.81561  1.0000 0.1329288247
H   H18       1.0  0.02339  0.57410  0.56937  1.0000 0.1484504181
H   H19       1.0  0.29300  0.06400  0.10300  1.0000 0.3139722335
H   H20       1.0  0.60641  0.22495  0.41786  1.0000 0.1032090025
H   H21       1.0  0.32969  0.37466  0.98430  1.0000 0.1179398882
H   H22       1.0  0.38085  0.06583  0.93661  1.0000 0.1484504181
H   H23       1.0  0.97561  0.98786  0.68439  1.0000 0.1329288247
H   H24       1.0  0.97661  0.07410  0.93063  1.0000 0.1484504181
C   C1        1.0  0.55610  0.26420  0.84810  1.0000 0.1831084179
C   C2        1.0  0.46350  0.19320  0.70250  1.0000 0.2867167431
C   C3        1.0  0.35170  0.16500  0.53670  1.0000 0.2439750793
C   C4        1.0  0.33470  0.31100  0.58170  1.0000 0.3765070575
C   C5        1.0  0.42530  0.28240  0.68530  1.0000 -0.0357788339
C   C6        1.0  0.19100  0.42360  0.44860  1.0000 0.2263730156
C   C7        1.0  0.27260  0.44310  0.40180  1.0000 -0.1562266697
C   C8        1.0  0.19180  0.47600  0.30260  1.0000 0.0082169018
C   C9        1.0  0.28060  0.49750  0.25260  1.0000 0.5388251605
C   C10       1.0  0.03000  0.49060  0.25110  1.0000 -0.1013979812
C   C11       1.0  0.95100  0.47290  0.29970  1.0000 0.0034493298
C   C12       1.0  0.77710  0.49080  0.24860  1.0000 0.553109354
C   C13       1.0  0.03060  0.43860  0.39850  1.0000 -0.1799943236
C   C14       1.0  0.44390  0.76420  0.65190  1.0000 0.1831084179
C   C15       1.0  0.53650  0.69320  0.79750  1.0000 0.2867167431
C   C16       1.0  0.64830  0.66500  0.96330  1.0000 0.2439750793
C   C17       1.0  0.66530  0.81100  0.91830  1.0000 0.3765070575
C   C18       1.0  0.57470  0.78240  0.81470  1.0000 -0.0357788339
C   C19       1.0  0.80900  0.92360  0.05140  1.0000 0.2263730156
C   C20       1.0  0.72740  0.94310  0.09820  1.0000 -0.1562266697
C   C21       1.0  0.80820  0.97600  0.19740  1.0000 0.0082169018
C   C22       1.0  0.71940  0.99750  0.24740  1.0000 0.5388251605
C   C23       1.0  0.97000  0.99060  0.24890  1.0000 -0.1013979812
C   C24       1.0  0.04900  0.97290  0.20030  1.0000 0.0034493298
C   C25       1.0  0.22290  0.99080  0.25140  1.0000 0.553109354
C   C26       1.0  0.96940  0.93860  0.10150  1.0000 -0.1799943236
C   C27       1.0  0.44390  0.73580  0.15190  1.0000 0.1831084179
C   C28       1.0  0.53650  0.80680  0.29750  1.0000 0.2867167431
C   C29       1.0  0.64830  0.83500  0.46330  1.0000 0.2439750793
C   C30       1.0  0.66530  0.68900  0.41830  1.0000 0.3765070575
C   C31       1.0  0.57470  0.71760  0.31470  1.0000 -0.0357788339
C   C32       1.0  0.80900  0.57640  0.55140  1.0000 0.2263730156
C   C33       1.0  0.72740  0.55690  0.59820  1.0000 -0.1562266697
C   C34       1.0  0.80820  0.52400  0.69740  1.0000 0.0082169018
C   C35       1.0  0.71940  0.50250  0.74740  1.0000 0.5388251605
C   C36       1.0  0.97000  0.50940  0.74890  1.0000 -0.1013979812
C   C37       1.0  0.04900  0.52710  0.70030  1.0000 0.0034493298
C   C38       1.0  0.22290  0.50920  0.75140  1.0000 0.553109354
C   C39       1.0  0.96940  0.56140  0.60150  1.0000 -0.1799943236
C   C40       1.0  0.55610  0.23580  0.34810  1.0000 0.1831084179
C   C41       1.0  0.46350  0.30680  0.20250  1.0000 0.2867167431
C   C42       1.0  0.35170  0.33500  0.03670  1.0000 0.2439750793
C   C43       1.0  0.33470  0.18900  0.08170  1.0000 0.3765070575
C   C44       1.0  0.42530  0.21760  0.18530  1.0000 -0.0357788339
C   C45       1.0  0.19100  0.07640  0.94860  1.0000 0.2263730156
C   C46       1.0  0.27260  0.05690  0.90180  1.0000 -0.1562266697
C   C47       1.0  0.19180  0.02400  0.80260  1.0000 0.0082169018
C   C48       1.0  0.28060  0.00250  0.75260  1.0000 0.5388251605
C   C49       1.0  0.03000  0.00940  0.75110  1.0000 -0.1013979812
C   C50       1.0  0.95100  0.02710  0.79970  1.0000 0.0034493298
C   C51       1.0  0.77710  0.00920  0.74860  1.0000 0.553109354
C   C52       1.0  0.03060  0.06140  0.89850  1.0000 -0.1799943236
N   N1        1.0  0.48450  0.32700  0.77800  1.0000 -0.3268605967
N   N2        1.0  0.54940  0.18100  0.80770  1.0000 -0.3357181189
N   N3        1.0  0.42740  0.13040  0.63010  1.0000 -0.3268605967
N   N4        1.0  0.30350  0.24960  0.50750  1.0000 -0.3652321038
N   N5        1.0  0.27530  0.39340  0.55280  1.0000 -0.2943246154
N   N6        1.0  0.51550  0.82700  0.72200  1.0000 -0.3268605967
N   N7        1.0  0.45060  0.68100  0.69230  1.0000 -0.3357181189
N   N8        1.0  0.57260  0.63040  0.86990  1.0000 -0.3268605967
N   N9        1.0  0.69650  0.74960  0.99250  1.0000 -0.3652321038
N   N10       1.0  0.72470  0.89340  0.94720  1.0000 -0.2943246154
N   N11       1.0  0.51550  0.67300  0.22200  1.0000 -0.3268605967
N   N12       1.0  0.45060  0.81900  0.19230  1.0000 -0.3357181189
N   N13       1.0  0.57260  0.86960  0.36990  1.0000 -0.3268605967
N   N14       1.0  0.69650  0.75040  0.49250  1.0000 -0.3641383586
N   N15       1.0  0.72470  0.60660  0.44720  1.0000 -0.2943246154
N   N16       1.0  0.48450  0.17300  0.27800  1.0000 -0.3268605967
N   N17       1.0  0.54940  0.31900  0.30770  1.0000 -0.3357181189
N   N18       1.0  0.42740  0.36960  0.13010  1.0000 -0.3268605967
N   N19       1.0  0.30350  0.25040  0.00750  1.0000 -0.3652321038
N   N20       1.0  0.27530  0.10660  0.05280  1.0000 -0.2943246154
O   O1        1.0  0.42810  0.49610  0.30490  1.0000 -0.5225166467
O   O2        1.0  0.20720  0.51710  0.15870  1.0000 -0.5225166467
O   O3        1.0  0.69730  0.51390  0.15530  1.0000 -0.5541647908
O   O4        1.0  0.71760  0.48480  0.30160  1.0000 -0.5225166467
O   O5        1.0  0.57190  0.99610  0.19510  1.0000 -0.5225166467
O   O6        1.0  0.79280  0.01710  0.34130  1.0000 -0.5225166467
O   O7        1.0  0.30270  0.01390  0.34470  1.0000 -0.5541647908
O   O8        1.0  0.28240  0.98480  0.19840  1.0000 -0.5225166467
O   O9        1.0  0.57190  0.50390  0.69510  1.0000 -0.5225166467
O   O10       1.0  0.79280  0.48290  0.84130  1.0000 -0.5225166467
O   O11       1.0  0.30270  0.48610  0.84470  1.0000 -0.5541647908
O   O12       1.0  0.28240  0.51520  0.69840  1.0000 -0.5225166467
O   O13       1.0  0.42810  0.00390  0.80490  1.0000 -0.5225166467
O   O14       1.0  0.20720  0.98290  0.65870  1.0000 -0.5225166467
O   O15       1.0  0.69730  0.98610  0.65530  1.0000 -0.5551701424
O   O16       1.0  0.71760  0.01520  0.80160  1.0000 -0.5225166467
