# DDEC6 charges by PACMAN v1.1 (https://github.com/mtap-research/PACMAN-charge/)
data_0000[Er][nan]3[ASR]1
_chemical_formula_sum              "Er6 H88 C160 O32"
_cell_length_a       21.8295
_cell_length_b       21.8295
_cell_length_c       18.5232
_cell_angle_alpha    79.4817
_cell_angle_beta     100.518
_cell_angle_gamma    95.5031

_symmetry_space_group_name_H-M    "P 1"
_symmetry_Int_Tables_number       1

loop_
  _symmetry_equiv_pos_as_xyz
  'x, y, z'

loop_
  _atom_site_type_symbol
  _atom_site_label
  _atom_site_symmetry_multiplicity
  _atom_site_fract_x
  _atom_site_fract_y
  _atom_site_fract_z
  _atom_site_occupancy
  _atom_site_charge
Er  Er1       1.0  0.69382  0.69382  0.75000  1.0000 2.0795365674
Er  Er2       1.0  0.30618  0.30618  0.25000  1.0000 2.0795365674
Er  Er3       1.0  0.75732  0.78604  0.95377  1.0000 2.0555756195
Er  Er4       1.0  0.78604  0.75732  0.54623  1.0000 2.0555756195
Er  Er5       1.0  0.24268  0.21396  0.04623  1.0000 2.0555756195
Er  Er6       1.0  0.21396  0.24268  0.45377  1.0000 2.0555756195
H   H1        1.0  0.76840  0.13580  0.65430  1.0000 0.1078662549
H   H2        1.0  0.13580  0.76840  0.84570  1.0000 0.1078662549
H   H3        1.0  0.23160  0.86420  0.34570  1.0000 0.1078662549
H   H4        1.0  0.86420  0.23160  0.15430  1.0000 0.1078662549
H   H5        1.0  0.58870  0.07690  0.59750  1.0000 0.1078662549
H   H6        1.0  0.07690  0.58870  0.90250  1.0000 0.1078662549
H   H7        1.0  0.41130  0.92310  0.40250  1.0000 0.1078662549
H   H8        1.0  0.92310  0.41130  0.09750  1.0000 0.1078662549
H   H9        1.0  0.64430  0.25810  0.54460  1.0000 0.1078662549
H   H10       1.0  0.25810  0.64430  0.95540  1.0000 0.1078662549
H   H11       1.0  0.35570  0.74190  0.45540  1.0000 0.1078662549
H   H12       1.0  0.74190  0.35570  0.04460  1.0000 0.1078662549
H   H13       1.0  0.64840  0.98960  0.58630  1.0000 0.1078662549
H   H14       1.0  0.98960  0.64840  0.91370  1.0000 0.1078662549
H   H15       1.0  0.35160  0.01040  0.41370  1.0000 0.1024845516
H   H16       1.0  0.01040  0.35160  0.08630  1.0000 0.1078662549
H   H17       1.0  0.66740  0.88820  0.63900  1.0000 0.1221514596
H   H18       1.0  0.88820  0.66740  0.86100  1.0000 0.1221514596
H   H19       1.0  0.33260  0.11180  0.36100  1.0000 0.1221514596
H   H20       1.0  0.11180  0.33260  0.13900  1.0000 0.1221514596
H   H21       1.0  0.76630  0.94790  0.82040  1.0000 0.1221514596
H   H22       1.0  0.94790  0.76630  0.67960  1.0000 0.1221514596
H   H23       1.0  0.23370  0.05210  0.17960  1.0000 0.1221514596
H   H24       1.0  0.05210  0.23370  0.32040  1.0000 0.1221514596
H   H25       1.0  0.75070  0.04990  0.76420  1.0000 0.1078662549
H   H26       1.0  0.04990  0.75070  0.73580  1.0000 0.1078662549
H   H27       1.0  0.24930  0.95010  0.23580  1.0000 0.1078662549
H   H28       1.0  0.95010  0.24930  0.26420  1.0000 0.1078662549
H   H29       1.0  0.56640  0.24540  0.44050  1.0000 0.1078662549
H   H30       1.0  0.24540  0.56640  0.05950  1.0000 0.1078662549
H   H31       1.0  0.43360  0.75460  0.55950  1.0000 0.1078662549
H   H32       1.0  0.75460  0.43360  0.94050  1.0000 0.1078662549
H   H33       1.0  0.46760  0.27260  0.38440  1.0000 0.129703545
H   H34       1.0  0.27260  0.46760  0.11560  1.0000 0.129703545
H   H35       1.0  0.53240  0.72740  0.61560  1.0000 0.129703545
H   H36       1.0  0.72740  0.53240  0.88440  1.0000 0.129703545
H   H37       1.0  0.39600  0.15440  0.54320  1.0000 0.1221514596
H   H38       1.0  0.15440  0.39600  0.95680  1.0000 0.1221514596
H   H39       1.0  0.60400  0.84560  0.45680  1.0000 0.1221514596
H   H40       1.0  0.84560  0.60400  0.04320  1.0000 0.1221514596
H   H41       1.0  0.49460  0.12680  0.59980  1.0000 0.1078662549
H   H42       1.0  0.12680  0.49460  0.90020  1.0000 0.1078662549
H   H43       1.0  0.50540  0.87320  0.40020  1.0000 0.1078662549
H   H44       1.0  0.87320  0.50540  0.09980  1.0000 0.1078662549
H   H45       1.0  0.71260  0.32220  0.61880  1.0000 0.1078662549
H   H46       1.0  0.32220  0.71260  0.88120  1.0000 0.1078662549
H   H47       1.0  0.28740  0.67780  0.38120  1.0000 0.1024845516
H   H48       1.0  0.67780  0.28740  0.11880  1.0000 0.1024845516
H   H49       1.0  0.88200  0.39100  0.57550  1.0000 0.1024845516
H   H50       1.0  0.39100  0.88200  0.92450  1.0000 0.1024845516
H   H51       1.0  0.11800  0.60900  0.42450  1.0000 0.1024845516
H   H52       1.0  0.60900  0.11800  0.07550  1.0000 0.1024845516
H   H53       1.0  0.82980  0.20980  0.57460  1.0000 0.1078662549
H   H54       1.0  0.20980  0.82980  0.92540  1.0000 0.1078662549
H   H55       1.0  0.17020  0.79020  0.42540  1.0000 0.1078662549
H   H56       1.0  0.79020  0.17020  0.07460  1.0000 0.1078662549
H   H57       1.0  0.82790  0.48150  0.52940  1.0000 0.1078662549
H   H58       1.0  0.48150  0.82790  0.97060  1.0000 0.1078662549
H   H59       1.0  0.17210  0.51850  0.47060  1.0000 0.1078662549
H   H60       1.0  0.51850  0.17210  0.02940  1.0000 0.1078662549
H   H61       1.0  0.80480  0.57880  0.54330  1.0000 0.129703545
H   H62       1.0  0.57880  0.80480  0.95670  1.0000 0.129703545
H   H63       1.0  0.19520  0.42120  0.45670  1.0000 0.129703545
H   H64       1.0  0.42120  0.19520  0.04330  1.0000 0.129703545
H   H65       1.0  0.71420  0.50020  0.71050  1.0000 0.1221514596
H   H66       1.0  0.50020  0.71420  0.78950  1.0000 0.1221514596
H   H67       1.0  0.28580  0.49980  0.28950  1.0000 0.1221514596
H   H68       1.0  0.49980  0.28580  0.21050  1.0000 0.1221514596
H   H69       1.0  0.73020  0.40340  0.68940  1.0000 0.1078662549
H   H70       1.0  0.40340  0.73020  0.81060  1.0000 0.1078662549
H   H71       1.0  0.26980  0.59660  0.31060  1.0000 0.1078662549
H   H72       1.0  0.59660  0.26980  0.18940  1.0000 0.1078662549
H   H73       1.0  0.00590  0.18790  0.51450  1.0000 0.1221514596
H   H74       1.0  0.18790  0.00590  0.98550  1.0000 0.1221514596
H   H75       1.0  0.99410  0.81210  0.48550  1.0000 0.1221514596
H   H76       1.0  0.81210  0.99410  0.01450  1.0000 0.1221514596
H   H77       1.0  0.96730  0.36670  0.56620  1.0000 0.1078662549
H   H78       1.0  0.36670  0.96730  0.93380  1.0000 0.1078662549
H   H79       1.0  0.03270  0.63330  0.43380  1.0000 0.1078662549
H   H80       1.0  0.63330  0.03270  0.06620  1.0000 0.1078662549
H   H81       1.0  0.03750  0.35690  0.47460  1.0000 0.1221514596
H   H82       1.0  0.35690  0.03750  0.02540  1.0000 0.1221514596
H   H83       1.0  0.96250  0.64310  0.52540  1.0000 0.1221514596
H   H84       1.0  0.64310  0.96250  0.97460  1.0000 0.1221514596
H   H85       1.0  0.91790  0.20110  0.55670  1.0000 0.1078662549
H   H86       1.0  0.20110  0.91790  0.94330  1.0000 0.1078662549
H   H87       1.0  0.08210  0.79890  0.44330  1.0000 0.1078662549
H   H88       1.0  0.79890  0.08210  0.05670  1.0000 0.1078662549
C   C1        1.0  0.71424  0.20588  0.60150  1.0000 0.0757329178
C   C2        1.0  0.20588  0.71424  0.89850  1.0000 0.0690677665
C   C3        1.0  0.28576  0.79412  0.39850  1.0000 0.0690677665
C   C4        1.0  0.79412  0.28576  0.10150  1.0000 0.0757329178
C   C5        1.0  0.72760  0.14470  0.63280  1.0000 -0.2088907811
C   C6        1.0  0.14470  0.72760  0.86720  1.0000 -0.2088907811
C   C7        1.0  0.27240  0.85530  0.36720  1.0000 -0.2088907811
C   C8        1.0  0.85530  0.27240  0.13280  1.0000 -0.2088907811
C   C9        1.0  0.68123  0.09693  0.63260  1.0000 0.0757329178
C   C10       1.0  0.09693  0.68123  0.86740  1.0000 0.0757329178
C   C11       1.0  0.31877  0.90307  0.36740  1.0000 0.0757329178
C   C12       1.0  0.90307  0.31877  0.13260  1.0000 0.0757329178
C   C13       1.0  0.61993  0.10909  0.59790  1.0000 -0.2088907811
C   C14       1.0  0.10909  0.61993  0.90210  1.0000 -0.2088907811
C   C15       1.0  0.38007  0.89091  0.40210  1.0000 -0.2088907811
C   C16       1.0  0.89091  0.38007  0.09790  1.0000 -0.2088907811
C   C17       1.0  0.60595  0.16963  0.56400  1.0000 0.0757329178
C   C18       1.0  0.16963  0.60595  0.93600  1.0000 0.0757329178
C   C19       1.0  0.39405  0.83037  0.43600  1.0000 0.0757329178
C   C20       1.0  0.83037  0.39405  0.06400  1.0000 0.0690677665
C   C21       1.0  0.65361  0.21749  0.56670  1.0000 -0.2088907811
C   C22       1.0  0.21749  0.65361  0.93330  1.0000 -0.2088907811
C   C23       1.0  0.34639  0.78251  0.43330  1.0000 -0.2088907811
C   C24       1.0  0.78251  0.34639  0.06670  1.0000 -0.2088907811
C   C25       1.0  0.69517  0.03051  0.67030  1.0000 0.0690677665
C   C26       1.0  0.03051  0.69517  0.82970  1.0000 0.0690677665
C   C27       1.0  0.30483  0.96949  0.32970  1.0000 0.0690677665
C   C28       1.0  0.96949  0.30483  0.17030  1.0000 0.0690677665
C   C29       1.0  0.67220  0.98130  0.63360  1.0000 -0.1537111398
C   C30       1.0  0.98130  0.67220  0.86640  1.0000 -0.1537111398
C   C31       1.0  0.32780  0.01870  0.36640  1.0000 -0.1537111398
C   C32       1.0  0.01870  0.32780  0.13360  1.0000 -0.1537111398
C   C33       1.0  0.68346  0.92054  0.66490  1.0000 -0.0966991437
C   C34       1.0  0.92054  0.68346  0.83510  1.0000 -0.0966991437
C   C35       1.0  0.31654  0.07946  0.33510  1.0000 -0.0966991437
C   C36       1.0  0.07946  0.31654  0.16490  1.0000 -0.0966991437
C   C37       1.0  0.71906  0.90794  0.73540  1.0000 -0.0319589646
C   C38       1.0  0.90794  0.71906  0.76460  1.0000 -0.0319589646
C   C39       1.0  0.28094  0.09206  0.26460  1.0000 -0.0319589646
C   C40       1.0  0.09206  0.28094  0.23540  1.0000 -0.0319589646
C   C41       1.0  0.74302  0.95630  0.77280  1.0000 -0.0966991437
C   C42       1.0  0.95630  0.74302  0.72720  1.0000 -0.0966991437
C   C43       1.0  0.25698  0.04370  0.22720  1.0000 -0.0966991437
C   C44       1.0  0.04370  0.25698  0.27280  1.0000 -0.0966991437
C   C45       1.0  0.73254  0.01736  0.73970  1.0000 -0.1537111398
C   C46       1.0  0.01736  0.73254  0.76030  1.0000 -0.1581300626
C   C47       1.0  0.26746  0.98264  0.26030  1.0000 -0.1581300626
C   C48       1.0  0.98264  0.26746  0.23970  1.0000 -0.1537111398
C   C49       1.0  0.72906  0.84056  0.77040  1.0000 0.6595757408
C   C50       1.0  0.84056  0.72906  0.72960  1.0000 0.6595757408
C   C51       1.0  0.27094  0.15944  0.22960  1.0000 0.6595757408
C   C52       1.0  0.15944  0.27094  0.27040  1.0000 0.6595757408
C   C53       1.0  0.54135  0.18415  0.52750  1.0000 0.0690677665
C   C54       1.0  0.18415  0.54135  0.97250  1.0000 0.0690677665
C   C55       1.0  0.45865  0.81585  0.47250  1.0000 0.0690677665
C   C56       1.0  0.81585  0.45865  0.02750  1.0000 0.0690677665
C   C57       1.0  0.53223  0.22737  0.46190  1.0000 -0.1581300626
C   C58       1.0  0.22737  0.53223  0.03810  1.0000 -0.1581300626
C   C59       1.0  0.46777  0.77263  0.53810  1.0000 -0.1581300626
C   C60       1.0  0.77263  0.46777  0.96190  1.0000 -0.1581300626
C   C61       1.0  0.47302  0.24378  0.42830  1.0000 -0.0966991437
C   C62       1.0  0.24378  0.47302  0.07170  1.0000 -0.0966991437
C   C63       1.0  0.52698  0.75622  0.57170  1.0000 -0.0966991437
C   C64       1.0  0.75622  0.52698  0.92830  1.0000 -0.0966991437
C   C65       1.0  0.42186  0.21754  0.45950  1.0000 -0.0511595728
C   C66       1.0  0.21754  0.42186  0.04050  1.0000 -0.0511595728
C   C67       1.0  0.57814  0.78246  0.54050  1.0000 -0.0511595728
C   C68       1.0  0.78246  0.57814  0.95950  1.0000 -0.0511595728
C   C69       1.0  0.43038  0.17336  0.52290  1.0000 -0.0966991437
C   C70       1.0  0.17336  0.43038  0.97710  1.0000 -0.0966991437
C   C71       1.0  0.56962  0.82664  0.47710  1.0000 -0.0966991437
C   C72       1.0  0.82664  0.56962  0.02290  1.0000 -0.0966991437
C   C73       1.0  0.48958  0.15674  0.55680  1.0000 -0.1581300626
C   C74       1.0  0.15674  0.48958  0.94320  1.0000 -0.1581300626
C   C75       1.0  0.51042  0.84326  0.44320  1.0000 -0.1581300626
C   C76       1.0  0.84326  0.51042  0.05680  1.0000 -0.1581300626
C   C77       1.0  0.35824  0.23796  0.42340  1.0000 0.6595757408
C   C78       1.0  0.23796  0.35824  0.07660  1.0000 0.6595757408
C   C79       1.0  0.64176  0.76204  0.57660  1.0000 0.6595757408
C   C80       1.0  0.76204  0.64176  0.92340  1.0000 0.6595757408
C   C81       1.0  0.76278  0.25752  0.59770  1.0000 0.0690677665
C   C82       1.0  0.25752  0.76278  0.90230  1.0000 0.0690677665
C   C83       1.0  0.23722  0.74248  0.40230  1.0000 0.0690677665
C   C84       1.0  0.74248  0.23722  0.09770  1.0000 0.0690677665
C   C85       1.0  0.75090  0.31620  0.60670  1.0000 -0.2088907811
C   C86       1.0  0.31620  0.75090  0.89330  1.0000 -0.2088907811
C   C87       1.0  0.24910  0.68380  0.39330  1.0000 -0.2088907811
C   C88       1.0  0.68380  0.24910  0.10670  1.0000 -0.2088907811
C   C89       1.0  0.79538  0.36798  0.59790  1.0000 0.0690677665
C   C90       1.0  0.36798  0.79538  0.90210  1.0000 0.0690677665
C   C91       1.0  0.20462  0.63202  0.40210  1.0000 0.0690677665
C   C92       1.0  0.63202  0.20462  0.09790  1.0000 0.0690677665
C   C93       1.0  0.85225  0.35783  0.58120  1.0000 -0.2088907811
C   C94       1.0  0.35783  0.85225  0.91880  1.0000 -0.2088907811
C   C95       1.0  0.14775  0.64217  0.41880  1.0000 -0.2088907811
C   C96       1.0  0.64217  0.14775  0.08120  1.0000 -0.2088907811
C   C97       1.0  0.86590  0.29856  0.57270  1.0000 0.0921052127
C   C98       1.0  0.29856  0.86590  0.92730  1.0000 0.0921052127
C   C99       1.0  0.13410  0.70144  0.42730  1.0000 0.0921052127
C   C100      1.0  0.70144  0.13410  0.07270  1.0000 0.0921052127
C   C101      1.0  0.82094  0.24926  0.58070  1.0000 -0.2088907811
C   C102      1.0  0.24926  0.82094  0.91930  1.0000 -0.2088907811
C   C103      1.0  0.17906  0.75074  0.41930  1.0000 -0.2088907811
C   C104      1.0  0.75074  0.17906  0.08070  1.0000 -0.2088907811
C   C105      1.0  0.92593  0.28889  0.55000  1.0000 0.0426632893
C   C106      1.0  0.28889  0.92593  0.95000  1.0000 0.0426632893
C   C107      1.0  0.07407  0.71111  0.45000  1.0000 0.0426632893
C   C108      1.0  0.71111  0.07407  0.05000  1.0000 0.0426632893
C   C109      1.0  0.03970  0.26830  0.51190  1.0000 -0.0393808242
C   C110      1.0  0.26830  0.03970  0.98810  1.0000 -0.0393808242
C   C111      1.0  0.96030  0.73170  0.48810  1.0000 -0.0393808242
C   C112      1.0  0.73170  0.96030  0.01190  1.0000 -0.0393808242
C   C113      1.0  0.10163  0.26017  0.49190  1.0000 0.5760048731
C   C114      1.0  0.26017  0.10163  0.00810  1.0000 0.5760048731
C   C115      1.0  0.89837  0.73983  0.50810  1.0000 0.5760048731
C   C116      1.0  0.73983  0.89837  0.99190  1.0000 0.5760048731
C   C117      1.0  0.78131  0.43049  0.60890  1.0000 0.0603696806
C   C118      1.0  0.43049  0.78131  0.89110  1.0000 0.0603696806
C   C119      1.0  0.21869  0.56951  0.39110  1.0000 0.0603696806
C   C120      1.0  0.56951  0.21869  0.10890  1.0000 0.0603696806
C   C121      1.0  0.80382  0.48514  0.56480  1.0000 -0.1581300626
C   C122      1.0  0.48514  0.80382  0.93520  1.0000 -0.1581300626
C   C123      1.0  0.19618  0.51486  0.43520  1.0000 -0.1581300626
C   C124      1.0  0.51486  0.19618  0.06480  1.0000 -0.1581300626
C   C125      1.0  0.79062  0.54338  0.57360  1.0000 -0.0938266711
C   C126      1.0  0.54338  0.79062  0.92640  1.0000 -0.0938266711
C   C127      1.0  0.20938  0.45662  0.42640  1.0000 -0.0938266711
C   C128      1.0  0.45662  0.20938  0.07360  1.0000 -0.0938266711
C   C129      1.0  0.75610  0.54964  0.62770  1.0000 -0.0393808242
C   C130      1.0  0.54964  0.75610  0.87230  1.0000 -0.0393808242
C   C131      1.0  0.24390  0.45036  0.37230  1.0000 -0.0393808242
C   C132      1.0  0.45036  0.24390  0.12770  1.0000 -0.0393808242
C   C133      1.0  0.73556  0.49652  0.67250  1.0000 -0.0966991437
C   C134      1.0  0.49652  0.73556  0.82750  1.0000 -0.0966991437
C   C135      1.0  0.26444  0.50348  0.32750  1.0000 -0.0966991437
C   C136      1.0  0.50348  0.26444  0.17250  1.0000 -0.0966991437
C   C137      1.0  0.74674  0.43858  0.66090  1.0000 -0.1581300626
C   C138      1.0  0.43858  0.74674  0.83910  1.0000 -0.1581300626
C   C139      1.0  0.25326  0.56142  0.33910  1.0000 -0.1581300626
C   C140      1.0  0.56142  0.25326  0.16090  1.0000 -0.1581300626
C   C141      1.0  0.74433  0.61379  0.64050  1.0000 0.6507223947
C   C142      1.0  0.61379  0.74433  0.85950  1.0000 0.6507223947
C   C143      1.0  0.25567  0.38621  0.35950  1.0000 0.6507223947
C   C144      1.0  0.38621  0.25567  0.14050  1.0000 0.6507223947
C   C145      1.0  0.99960  0.22760  0.52210  1.0000 -0.0777917644
C   C146      1.0  0.22760  0.99960  0.97790  1.0000 -0.0777917644
C   C147      1.0  0.00040  0.77240  0.47790  1.0000 -0.0777917644
C   C148      1.0  0.77240  0.00040  0.02210  1.0000 -0.0777917644
C   C149      1.0  0.96770  0.33110  0.54530  1.0000 -0.1430506305
C   C150      1.0  0.33110  0.96770  0.95470  1.0000 -0.1430506305
C   C151      1.0  0.03230  0.66890  0.45470  1.0000 -0.1430506305
C   C152      1.0  0.66890  0.03230  0.04530  1.0000 -0.1430506305
C   C153      1.0  0.02010  0.32310  0.50430  1.0000 -0.0966991437
C   C154      1.0  0.32310  0.02010  0.99570  1.0000 -0.0966991437
C   C155      1.0  0.97990  0.67690  0.49570  1.0000 -0.0966991437
C   C156      1.0  0.67690  0.97990  0.00430  1.0000 -0.0966991437
C   C157      1.0  0.94390  0.23650  0.54460  1.0000 -0.1752173239
C   C158      1.0  0.23650  0.94390  0.95540  1.0000 -0.1752173239
C   C159      1.0  0.05610  0.76350  0.45540  1.0000 -0.1752173239
C   C160      1.0  0.76350  0.05610  0.04460  1.0000 -0.1752173239
O   O1        1.0  0.75763  0.83147  0.83640  1.0000 -0.7218577983
O   O2        1.0  0.83147  0.75763  0.66360  1.0000 -0.7218577983
O   O3        1.0  0.24237  0.16853  0.16360  1.0000 -0.7218577983
O   O4        1.0  0.16853  0.24237  0.33640  1.0000 -0.7218577983
O   O5        1.0  0.70838  0.79888  0.73220  1.0000 -0.6762718605
O   O6        1.0  0.79888  0.70838  0.76780  1.0000 -0.6762718605
O   O7        1.0  0.29162  0.20112  0.26780  1.0000 -0.6762718605
O   O8        1.0  0.20112  0.29162  0.23220  1.0000 -0.6762718605
O   O9        1.0  0.35596  0.27778  0.36390  1.0000 -0.7277128594
O   O10       1.0  0.27778  0.35596  0.13610  1.0000 -0.7277128594
O   O11       1.0  0.64404  0.72222  0.63610  1.0000 -0.7277128594
O   O12       1.0  0.72222  0.64404  0.86390  1.0000 -0.7277128594
O   O13       1.0  0.31389  0.21837  0.45400  1.0000 -0.6762718605
O   O14       1.0  0.21837  0.31389  0.04600  1.0000 -0.6762718605
O   O15       1.0  0.68611  0.78163  0.54600  1.0000 -0.6762718605
O   O16       1.0  0.78163  0.68611  0.95400  1.0000 -0.6762718605
O   O17       1.0  0.14017  0.30371  0.48120  1.0000 -0.590817471
O   O18       1.0  0.30371  0.14017  0.01880  1.0000 -0.590817471
O   O19       1.0  0.85983  0.69629  0.51880  1.0000 -0.590817471
O   O20       1.0  0.69629  0.85983  0.98120  1.0000 -0.590817471
O   O21       1.0  0.11329  0.20695  0.48450  1.0000 -0.6325514214
O   O22       1.0  0.20695  0.11329  0.01550  1.0000 -0.6325514214
O   O23       1.0  0.88671  0.79305  0.51550  1.0000 -0.6325514214
O   O24       1.0  0.79305  0.88671  0.98450  1.0000 -0.6325514214
O   O25       1.0  0.75433  0.65953  0.59110  1.0000 -0.7218577983
O   O26       1.0  0.65953  0.75433  0.90890  1.0000 -0.7218577983
O   O27       1.0  0.24567  0.34047  0.40890  1.0000 -0.7218577983
O   O28       1.0  0.34047  0.24567  0.09110  1.0000 -0.7218577983
O   O29       1.0  0.72415  0.61639  0.69720  1.0000 -0.6530580418
O   O30       1.0  0.61639  0.72415  0.80280  1.0000 -0.6530580418
O   O31       1.0  0.27585  0.38361  0.30280  1.0000 -0.6530580418
O   O32       1.0  0.38361  0.27585  0.19720  1.0000 -0.6530580418
