# DDEC6 charges by PACMAN v1.1 (https://github.com/mtap-research/PACMAN-charge/)
data_0000[Ni][pcu]3[ASR]2
_chemical_formula_sum              "Ni1 H30 C24 N12"
_cell_length_a       11.1234
_cell_length_b       11.1234
_cell_length_c       11.1234
_cell_angle_alpha    114.471
_cell_angle_beta     114.471
_cell_angle_gamma    114.471

_symmetry_space_group_name_H-M    "P 1"
_symmetry_Int_Tables_number       1

loop_
  _symmetry_equiv_pos_as_xyz
  'x, y, z'

loop_
  _atom_site_type_symbol
  _atom_site_label
  _atom_site_symmetry_multiplicity
  _atom_site_fract_x
  _atom_site_fract_y
  _atom_site_fract_z
  _atom_site_occupancy
  _atom_site_charge
Ni  Ni1       1.0  0.00000  0.00000  0.00000  1.0000 0.493304832
H   H1        1.0  0.46000  0.28100  0.28200  1.0000 0.1008003765
H   H2        1.0  0.28100  0.28200  0.46000  1.0000 0.1008003765
H   H3        1.0  0.28200  0.46000  0.28100  1.0000 0.1008003765
H   H4        1.0  0.54000  0.71900  0.71800  1.0000 0.1008003765
H   H5        1.0  0.71900  0.71800  0.54000  1.0000 0.1008003765
H   H6        1.0  0.71800  0.54000  0.71900  1.0000 0.1008003765
H   H7        1.0  0.64800  0.46900  0.25700  1.0000 0.1060053018
H   H8        1.0  0.46900  0.25700  0.64800  1.0000 0.1060053018
H   H9        1.0  0.25700  0.64800  0.46900  1.0000 0.1060053018
H   H10       1.0  0.35200  0.53100  0.74300  1.0000 0.1060053018
H   H11       1.0  0.53100  0.74300  0.35200  1.0000 0.1060053018
H   H12       1.0  0.74300  0.35200  0.53100  1.0000 0.1060053018
H   H13       1.0  0.11600  0.17200  0.83800  1.0000 0.1008003765
H   H14       1.0  0.17200  0.83800  0.11600  1.0000 0.1008003765
H   H15       1.0  0.83800  0.11600  0.17200  1.0000 0.1008003765
H   H16       1.0  0.88400  0.82800  0.16200  1.0000 0.1008003765
H   H17       1.0  0.82800  0.16200  0.88400  1.0000 0.1008003765
H   H18       1.0  0.16200  0.88400  0.82800  1.0000 0.1008003765
H   H19       1.0  0.50500  0.37300  0.91100  1.0000 0.1008003765
H   H20       1.0  0.37300  0.91100  0.50500  1.0000 0.1008003765
H   H21       1.0  0.91100  0.50500  0.37300  1.0000 0.1008003765
H   H22       1.0  0.49500  0.62700  0.08900  1.0000 0.1008003765
H   H23       1.0  0.62700  0.08900  0.49500  1.0000 0.1008003765
H   H24       1.0  0.08900  0.49500  0.62700  1.0000 0.1008003765
H   H25       1.0  0.31800  0.32900  0.81800  1.0000 0.1008003765
H   H26       1.0  0.32900  0.81800  0.31800  1.0000 0.1008003765
H   H27       1.0  0.81800  0.31800  0.32900  1.0000 0.1008003765
H   H28       1.0  0.68200  0.67100  0.18200  1.0000 0.1008003765
H   H29       1.0  0.67100  0.18200  0.68200  1.0000 0.1008003765
H   H30       1.0  0.18200  0.68200  0.67100  1.0000 0.1008003765
C   C1        1.0  0.41268  0.28203  0.18909  1.0000 -0.0659010875
C   C2        1.0  0.28203  0.18909  0.41268  1.0000 -0.0659010875
C   C3        1.0  0.18909  0.41268  0.28203  1.0000 -0.0659010875
C   C4        1.0  0.58732  0.71797  0.81091  1.0000 -0.0659010875
C   C5        1.0  0.71797  0.81091  0.58732  1.0000 -0.0659010875
C   C6        1.0  0.81091  0.58732  0.71797  1.0000 -0.0659010875
C   C7        1.0  0.51679  0.37899  0.17282  1.0000 -0.1598163228
C   C8        1.0  0.37899  0.17282  0.51679  1.0000 -0.1598163228
C   C9        1.0  0.17282  0.51679  0.37899  1.0000 -0.1598163228
C   C10       1.0  0.48321  0.62101  0.82718  1.0000 -0.1598163228
C   C11       1.0  0.62101  0.82718  0.48321  1.0000 -0.1598163228
C   C12       1.0  0.82718  0.48321  0.62101  1.0000 -0.1598163228
C   C13       1.0  0.22371  0.21768  0.94861  1.0000 0.0375209178
C   C14       1.0  0.21768  0.94861  0.22371  1.0000 0.0375209178
C   C15       1.0  0.94861  0.22371  0.21768  1.0000 0.0375209178
C   C16       1.0  0.77629  0.78232  0.05139  1.0000 0.0375209178
C   C17       1.0  0.78232  0.05139  0.77629  1.0000 0.0375209178
C   C18       1.0  0.05139  0.77629  0.78232  1.0000 0.0375209178
C   C19       1.0  0.44081  0.39650  0.93639  1.0000 -0.1598163228
C   C20       1.0  0.39650  0.93639  0.44081  1.0000 -0.1598163228
C   C21       1.0  0.93639  0.44081  0.39650  1.0000 -0.1598163228
C   C22       1.0  0.55919  0.60350  0.06361  1.0000 -0.1598163228
C   C23       1.0  0.60350  0.06361  0.55919  1.0000 -0.1598163228
C   C24       1.0  0.06361  0.55919  0.60350  1.0000 -0.1598163228
N   N1        1.0  0.22870  0.18178  0.04882  1.0000 -0.2704252171
N   N2        1.0  0.18178  0.04882  0.22870  1.0000 -0.2704252171
N   N3        1.0  0.04882  0.22870  0.18178  1.0000 -0.2704252171
N   N4        1.0  0.77130  0.81822  0.95118  1.0000 -0.2704252171
N   N5        1.0  0.81822  0.95118  0.77130  1.0000 -0.2704252171
N   N6        1.0  0.95118  0.77130  0.81822  1.0000 -0.2704252171
N   N7        1.0  0.39504  0.33476  0.01750  1.0000 0.0270137527
N   N8        1.0  0.33476  0.01750  0.39504  1.0000 0.0270137527
N   N9        1.0  0.01750  0.39504  0.33476  1.0000 0.0270137527
N   N10       1.0  0.60496  0.66524  0.98250  1.0000 0.0270137527
N   N11       1.0  0.66524  0.98250  0.60496  1.0000 0.0270137527
N   N12       1.0  0.98250  0.60496  0.66524  1.0000 0.0270137527
