# DDEC6 charges by PACMAN v1.1 (https://github.com/mtap-research/PACMAN-charge/)
data_0000[Co][ins]3[ASR]2
_chemical_formula_sum              "Co4 H44 C40 N8 O16"
_cell_length_a       6.5634
_cell_length_b       25.3343
_cell_length_c       10.1614
_cell_angle_alpha    90
_cell_angle_beta     129.512
_cell_angle_gamma    90

_symmetry_space_group_name_H-M    "P 1"
_symmetry_Int_Tables_number       1

loop_
  _symmetry_equiv_pos_as_xyz
  'x, y, z'

loop_
  _atom_site_type_symbol
  _atom_site_label
  _atom_site_symmetry_multiplicity
  _atom_site_fract_x
  _atom_site_fract_y
  _atom_site_fract_z
  _atom_site_occupancy
  _atom_site_charge
Co  Co1       1.0  0.18096  0.21413  0.05747  1.0000 0.8901056025
Co  Co2       1.0  0.81904  0.71413  0.44253  1.0000 0.8901056025
Co  Co3       1.0  0.81904  0.78587  0.94253  1.0000 0.8901056025
Co  Co4       1.0  0.18096  0.28587  0.55747  1.0000 0.8901056025
H   H1        1.0  0.35620  0.35260  0.22470  1.0000 0.0797723925
H   H2        1.0  0.64380  0.85260  0.27530  1.0000 0.0797723925
H   H3        1.0  0.64380  0.64740  0.77530  1.0000 0.0797723925
H   H4        1.0  0.35620  0.14740  0.72470  1.0000 0.0797723925
H   H5        1.0  0.29970  0.30280  0.99610  1.0000 0.301949871
H   H6        1.0  0.70030  0.80280  0.50390  1.0000 0.301949871
H   H7        1.0  0.70030  0.69720  0.00390  1.0000 0.301949871
H   H8        1.0  0.29970  0.19720  0.49610  1.0000 0.301949871
H   H9        1.0  0.52710  0.28840  0.17650  1.0000 0.301949871
H   H10       1.0  0.47290  0.78840  0.32350  1.0000 0.301949871
H   H11       1.0  0.47290  0.71160  0.82350  1.0000 0.301949871
H   H12       1.0  0.52710  0.21160  0.67650  1.0000 0.301949871
H   H13       1.0  0.89040  0.36340  0.05150  1.0000 0.1286699234
H   H14       1.0  0.10960  0.86340  0.44850  1.0000 0.1286699234
H   H15       1.0  0.10960  0.63660  0.94850  1.0000 0.1286699234
H   H16       1.0  0.89040  0.13660  0.55150  1.0000 0.1286699234
H   H17       1.0  0.99430  0.37060  0.94720  1.0000 0.1286699234
H   H18       1.0  0.00570  0.87060  0.55280  1.0000 0.1286699234
H   H19       1.0  0.00570  0.62940  0.05280  1.0000 0.1286699234
H   H20       1.0  0.99430  0.12940  0.44720  1.0000 0.1286699234
H   H21       1.0  0.83280  0.17360  0.13510  1.0000 0.1164265547
H   H22       1.0  0.16720  0.67360  0.36490  1.0000 0.1164265547
H   H23       1.0  0.16720  0.82640  0.86490  1.0000 0.1164265547
H   H24       1.0  0.83280  0.32640  0.63510  1.0000 0.1164265547
H   H25       1.0  0.58620  0.10160  0.09980  1.0000 0.1364789728
H   H26       1.0  0.41380  0.60160  0.40020  1.0000 0.1364789728
H   H27       1.0  0.41380  0.89840  0.90020  1.0000 0.1364789728
H   H28       1.0  0.58620  0.39840  0.59980  1.0000 0.1364789728
H   H29       1.0  0.78600  0.02950  0.84180  1.0000 0.1286699234
H   H30       1.0  0.21400  0.52950  0.65820  1.0000 0.1286699234
H   H31       1.0  0.21400  0.97050  0.15820  1.0000 0.1286699234
H   H32       1.0  0.78600  0.47050  0.34180  1.0000 0.1286699234
H   H33       1.0  0.04180  0.10230  0.89340  1.0000 0.1040848915
H   H34       1.0  0.95820  0.60230  0.60660  1.0000 0.1040848915
H   H35       1.0  0.95820  0.89770  0.10660  1.0000 0.1040848915
H   H36       1.0  0.04180  0.39770  0.39340  1.0000 0.1040848915
H   H37       1.0  0.48590  0.98420  0.86160  1.0000 0.1164265547
H   H38       1.0  0.51410  0.48420  0.63840  1.0000 0.1164265547
H   H39       1.0  0.51410  0.01580  0.13840  1.0000 0.1164265547
H   H40       1.0  0.48590  0.51580  0.36160  1.0000 0.1164265547
H   H41       1.0  0.28720  0.02480  0.84850  1.0000 0.1286699234
H   H42       1.0  0.71280  0.52480  0.65150  1.0000 0.1286699234
H   H43       1.0  0.71280  0.97520  0.15150  1.0000 0.1286699234
H   H44       1.0  0.28720  0.47520  0.34850  1.0000 0.1286699234
C   C1        1.0  0.20390  0.28953  0.27150  1.0000 0.5734041754
C   C2        1.0  0.79610  0.78953  0.22850  1.0000 0.5734041754
C   C3        1.0  0.79610  0.71047  0.72850  1.0000 0.5734041754
C   C4        1.0  0.20390  0.21047  0.77150  1.0000 0.5734041754
C   C5        1.0  0.23370  0.32241  0.15670  1.0000 0.0420108598
C   C6        1.0  0.76630  0.82241  0.34330  1.0000 0.0420108598
C   C7        1.0  0.76630  0.67759  0.84330  1.0000 0.0420108598
C   C8        1.0  0.23370  0.17759  0.65670  1.0000 0.0420108598
C   C9        1.0  0.96540  0.34430  0.00600  1.0000 -0.3906332131
C   C10       1.0  0.03460  0.84430  0.49400  1.0000 -0.3906332131
C   C11       1.0  0.03460  0.65570  0.99400  1.0000 -0.3906332131
C   C12       1.0  0.96540  0.15570  0.50600  1.0000 -0.3906332131
C   C13       1.0  0.75870  0.30479  0.87270  1.0000 0.6468684945
C   C14       1.0  0.24130  0.80479  0.62730  1.0000 0.6468684945
C   C15       1.0  0.24130  0.69521  0.12730  1.0000 0.6468684945
C   C16       1.0  0.75870  0.19521  0.37270  1.0000 0.6468684945
C   C17       1.0  0.82520  0.14361  0.07600  1.0000 0.0915635202
C   C18       1.0  0.17480  0.64361  0.42400  1.0000 0.0915635202
C   C19       1.0  0.17480  0.85639  0.92400  1.0000 0.0915635202
C   C20       1.0  0.82520  0.35639  0.57600  1.0000 0.0915635202
C   C21       1.0  0.67500  0.10104  0.05400  1.0000 -0.2043950435
C   C22       1.0  0.32500  0.60104  0.44600  1.0000 -0.2043950435
C   C23       1.0  0.32500  0.89896  0.94600  1.0000 -0.2043950435
C   C24       1.0  0.67500  0.39896  0.55400  1.0000 -0.2043950435
C   C25       1.0  0.65540  0.05743  0.96430  1.0000 0.1635492865
C   C26       1.0  0.34460  0.55743  0.53570  1.0000 0.1635492865
C   C27       1.0  0.34460  0.94257  0.03570  1.0000 0.1635492865
C   C28       1.0  0.65540  0.44257  0.46430  1.0000 0.1635492865
C   C29       1.0  0.79430  0.05864  0.90390  1.0000 -0.2321604777
C   C30       1.0  0.20570  0.55864  0.59610  1.0000 -0.2321604777
C   C31       1.0  0.20570  0.94136  0.09610  1.0000 -0.2321604777
C   C32       1.0  0.79430  0.44136  0.40390  1.0000 -0.2321604777
C   C33       1.0  0.94560  0.10248  0.93420  1.0000 0.0797723925
C   C34       1.0  0.05440  0.60248  0.56580  1.0000 0.0797723925
C   C35       1.0  0.05440  0.89752  0.06580  1.0000 0.0797723925
C   C36       1.0  0.94560  0.39752  0.43420  1.0000 0.0797723925
C   C37       1.0  0.47150  0.01180  0.92430  1.0000 -0.244199923
C   C38       1.0  0.52850  0.51180  0.57570  1.0000 -0.244199923
C   C39       1.0  0.52850  0.98820  0.07570  1.0000 -0.244199923
C   C40       1.0  0.47150  0.48820  0.42430  1.0000 -0.244199923
N   N1        1.0  0.34580  0.28962  0.09620  1.0000 -0.6030914958
N   N2        1.0  0.65420  0.78962  0.40380  1.0000 -0.6030914958
N   N3        1.0  0.65420  0.71038  0.90380  1.0000 -0.6030914958
N   N4        1.0  0.34580  0.21038  0.59620  1.0000 -0.6030914958
N   N5        1.0  0.96130  0.14503  0.01860  1.0000 -0.244199923
N   N6        1.0  0.03870  0.64503  0.48140  1.0000 -0.244199923
N   N7        1.0  0.03870  0.85497  0.98140  1.0000 -0.244199923
N   N8        1.0  0.96130  0.35497  0.51860  1.0000 -0.244199923
O   O1        1.0  0.19080  0.24035  0.25540  1.0000 -0.529316562
O   O2        1.0  0.80920  0.74035  0.24460  1.0000 -0.529316562
O   O3        1.0  0.80920  0.75965  0.74460  1.0000 -0.529316562
O   O4        1.0  0.19080  0.25965  0.75540  1.0000 -0.529316562
O   O5        1.0  0.19190  0.18483  0.87270  1.0000 -0.5615302499
O   O6        1.0  0.80810  0.68483  0.62730  1.0000 -0.5615302499
O   O7        1.0  0.80810  0.81517  0.12730  1.0000 -0.5615302499
O   O8        1.0  0.19190  0.31517  0.37270  1.0000 -0.5615302499
O   O9        1.0  0.81290  0.25628  0.88630  1.0000 -0.5615302499
O   O10       1.0  0.18710  0.75628  0.61370  1.0000 -0.5615302499
O   O11       1.0  0.18710  0.74372  0.11370  1.0000 -0.5615302499
O   O12       1.0  0.81290  0.24372  0.38630  1.0000 -0.5615302499
O   O13       1.0  0.54040  0.32531  0.75300  1.0000 -0.587985995
O   O14       1.0  0.45960  0.82531  0.74700  1.0000 -0.587985995
O   O15       1.0  0.45960  0.67469  0.24700  1.0000 -0.587985995
O   O16       1.0  0.54040  0.17469  0.25300  1.0000 -0.587985995
