# DDEC6 charges by PACMAN v1.1 (https://github.com/mtap-research/PACMAN-charge/)
data_0000[Tb][nan]2[ASR]2
_chemical_formula_sum              "Tb8 H56 C120 O64"
_cell_length_a       19.2638
_cell_length_b       19.2638
_cell_length_c       19.2638
_cell_angle_alpha    136.159
_cell_angle_beta     101.026
_cell_angle_gamma    95.0188

_symmetry_space_group_name_H-M    "P 1"
_symmetry_Int_Tables_number       1

loop_
  _symmetry_equiv_pos_as_xyz
  'x, y, z'

loop_
  _atom_site_type_symbol
  _atom_site_label
  _atom_site_symmetry_multiplicity
  _atom_site_fract_x
  _atom_site_fract_y
  _atom_site_fract_z
  _atom_site_occupancy
  _atom_site_charge
Tb  Tb1       1.0  0.17675  0.92675  0.25000  1.0000 2.1065787192
Tb  Tb2       1.0  0.32325  0.57325  0.75000  1.0000 2.1065787192
Tb  Tb3       1.0  0.82325  0.07325  0.75000  1.0000 2.1065787192
Tb  Tb4       1.0  0.67675  0.42675  0.25000  1.0000 2.1065787192
Tb  Tb5       1.0  0.34733  0.25000  0.59733  1.0000 2.1026893969
Tb  Tb6       1.0  0.15267  0.75000  0.90267  1.0000 2.1026893969
Tb  Tb7       1.0  0.65267  0.75000  0.40267  1.0000 2.1026893969
Tb  Tb8       1.0  0.84733  0.25000  0.09733  1.0000 2.1026893969
H   H1        1.0  0.74950  0.35370  0.71080  1.0000 0.3538977022
H   H2        1.0  0.64740  0.19680  0.44920  1.0000 0.1483672227
H   H3        1.0  0.63220  0.92330  0.34510  1.0000 0.1483672227
H   H4        1.0  0.75830  0.20600  0.65570  1.0000 0.1347881372
H   H5        1.0  0.49220  0.86380  0.09240  1.0000 0.1347881372
H   H6        1.0  0.31000  0.92740  0.17040  1.0000 0.1211069117
H   H7        1.0  0.51290  0.08790  0.40440  1.0000 0.1366470571
H   H8        1.0  0.14290  0.03870  0.78920  1.0000 0.3538977022
H   H9        1.0  0.24760  0.19820  0.05080  1.0000 0.1483672227
H   H10       1.0  0.07820  0.28710  0.15490  1.0000 0.1483672227
H   H11       1.0  0.05030  0.10260  0.84430  1.0000 0.1347881372
H   H12       1.0  0.27140  0.39980  0.40760  1.0000 0.1347881372
H   H13       1.0  0.25700  0.13960  0.32960  1.0000 0.1211069117
H   H14       1.0  0.18350  0.10850  0.09560  1.0000 0.1366470571
H   H15       1.0  0.35710  0.14630  0.89580  1.0000 0.3538977022
H   H16       1.0  0.25240  0.30320  0.95060  1.0000 0.1483672227
H   H17       1.0  0.42180  0.57670  0.20890  1.0000 0.1483672227
H   H18       1.0  0.44970  0.29400  0.05230  1.0000 0.1347881372
H   H19       1.0  0.22860  0.63620  0.12840  1.0000 0.1347881372
H   H20       1.0  0.24300  0.57260  0.88260  1.0000 0.1211069117
H   H21       1.0  0.31650  0.41210  0.92500  1.0000 0.1366470571
H   H22       1.0  0.75050  0.46130  0.60420  1.0000 0.3538977022
H   H23       1.0  0.85260  0.30180  0.54940  1.0000 0.1483672227
H   H24       1.0  0.86780  0.21290  0.29110  1.0000 0.1483672227
H   H25       1.0  0.74170  0.39740  0.44770  1.0000 0.1347881372
H   H26       1.0  0.00780  0.10020  0.37160  1.0000 0.1347881372
H   H27       1.0  0.19000  0.36040  0.61740  1.0000 0.1211069117
H   H28       1.0  0.98710  0.39150  0.57500  1.0000 0.1366470571
H   H29       1.0  0.25050  0.64630  0.28920  1.0000 0.3538977022
H   H30       1.0  0.35260  0.80320  0.55080  1.0000 0.1483672227
H   H31       1.0  0.36780  0.07670  0.65490  1.0000 0.1483672227
H   H32       1.0  0.24170  0.79400  0.34430  1.0000 0.1347881372
H   H33       1.0  0.50780  0.13620  0.90760  1.0000 0.1347881372
H   H34       1.0  0.69000  0.07260  0.82960  1.0000 0.1211069117
H   H35       1.0  0.48710  0.91210  0.59560  1.0000 0.1366470571
H   H36       1.0  0.85710  0.96130  0.21080  1.0000 0.3538977022
H   H37       1.0  0.75240  0.80180  0.94920  1.0000 0.1483672227
H   H38       1.0  0.92180  0.71290  0.84510  1.0000 0.1483672227
H   H39       1.0  0.94970  0.89740  0.15570  1.0000 0.1347881372
H   H40       1.0  0.72860  0.60020  0.59240  1.0000 0.1347881372
H   H41       1.0  0.74300  0.86040  0.67040  1.0000 0.1211069117
H   H42       1.0  0.81650  0.89150  0.90440  1.0000 0.1366470571
H   H43       1.0  0.64290  0.85370  0.10420  1.0000 0.3538977022
H   H44       1.0  0.74760  0.69680  0.04940  1.0000 0.1483672227
H   H45       1.0  0.57820  0.42330  0.79110  1.0000 0.1483672227
H   H46       1.0  0.55030  0.70600  0.94770  1.0000 0.1347881372
H   H47       1.0  0.77140  0.36380  0.87160  1.0000 0.1347881372
H   H48       1.0  0.75700  0.42740  0.11740  1.0000 0.1211069117
H   H49       1.0  0.68350  0.58790  0.07500  1.0000 0.1366470571
H   H50       1.0  0.24950  0.53870  0.39580  1.0000 0.3538977022
H   H51       1.0  0.14740  0.69820  0.45060  1.0000 0.1483672227
H   H52       1.0  0.13220  0.78710  0.70890  1.0000 0.1483672227
H   H53       1.0  0.25830  0.60260  0.55230  1.0000 0.1347881372
H   H54       1.0  0.99220  0.89980  0.62840  1.0000 0.1347881372
H   H55       1.0  0.81000  0.63960  0.38260  1.0000 0.1211069117
H   H56       1.0  0.01290  0.60850  0.42500  1.0000 0.1366470571
C   C1        1.0  0.70430  0.21670  0.56620  1.0000 0.2758209522
C   C2        1.0  0.65990  0.16170  0.46360  1.0000 -0.2889503424
C   C3        1.0  0.63570  0.05330  0.38500  1.0000 0.2301159095
C   C4        1.0  0.65210  0.99700  0.40030  1.0000 -0.2323554248
C   C5        1.0  0.70110  0.05650  0.50480  1.0000 0.0419211428
C   C6        1.0  0.72640  0.16680  0.58700  1.0000 -0.2719317485
C   C7        1.0  0.72160  0.99810  0.52810  1.0000 0.6360260959
C   C8        1.0  0.51590  0.98090  0.25420  1.0000 0.2658310349
C   C9        1.0  0.47100  0.90320  0.14460  1.0000 -0.2146814574
C   C10       1.0  0.39490  0.88560  0.11510  1.0000 0.0087895501
C   C11       1.0  0.36160  0.94140  0.19160  1.0000 -0.1467354183
C   C12       1.0  0.40530  0.01640  0.29770  1.0000 0.0087895501
C   C13       1.0  0.48350  0.03720  0.33150  1.0000 -0.2323554248
C   C14       1.0  0.34380  0.79870  0.99630  1.0000 0.6537082906
C   C15       1.0  0.36950  0.07690  0.38160  1.0000 0.6250922198
C   C16       1.0  0.15050  0.13810  0.93380  1.0000 0.2758209522
C   C17       1.0  0.19810  0.19630  0.03640  1.0000 -0.2889503424
C   C18       1.0  0.16830  0.25070  0.11500  1.0000 0.2301159095
C   C19       1.0  0.09670  0.25180  0.09970  1.0000 -0.2323554248
C   C20       1.0  0.05170  0.19630  0.99520  1.0000 0.0419211428
C   C21       1.0  0.07980  0.13940  0.91300  1.0000 -0.2719317485
C   C22       1.0  0.97000  0.19350  0.97190  1.0000 0.6360260959
C   C23       1.0  0.22670  0.26170  0.24580  1.0000 0.2658310349
C   C24       1.0  0.25860  0.32640  0.35540  1.0000 -0.2146814574
C   C25       1.0  0.27050  0.27980  0.38490  1.0000 0.0087895501
C   C26       1.0  0.24980  0.17000  0.30840  1.0000 -0.1467354183
C   C27       1.0  0.21870  0.10760  0.20230  1.0000 0.0087895501
C   C28       1.0  0.20570  0.15200  0.16850  1.0000 -0.2323554248
C   C29       1.0  0.30240  0.34750  0.50370  1.0000 0.6537082906
C   C30       1.0  0.19530  0.98790  0.11840  1.0000 0.6250922198
C   C31       1.0  0.34950  0.28330  0.98760  1.0000 0.2758209522
C   C32       1.0  0.30190  0.33830  0.99820  1.0000 -0.2889503424
C   C33       1.0  0.33170  0.44670  0.08240  1.0000 0.2301159095
C   C34       1.0  0.40330  0.50300  0.15510  1.0000 -0.2323554248
C   C35       1.0  0.44830  0.44350  0.14460  1.0000 0.0419211428
C   C36       1.0  0.42020  0.33320  0.05960  1.0000 -0.2719317485
C   C37       1.0  0.53000  0.50190  0.22350  1.0000 0.6360260959
C   C38       1.0  0.27330  0.51910  0.03500  1.0000 0.2658310349
C   C39       1.0  0.24140  0.59680  0.06780  1.0000 -0.2146814574
C   C40       1.0  0.22950  0.61440  0.00930  1.0000 0.0087895501
C   C41       1.0  0.25020  0.55860  0.92020  1.0000 -0.1467354183
C   C42       1.0  0.28130  0.48360  0.88890  1.0000 0.0087895501
C   C43       1.0  0.29430  0.46280  0.94630  1.0000 -0.2323554248
C   C44       1.0  0.19760  0.70130  0.04510  1.0000 0.6537082906
C   C45       1.0  0.30470  0.42310  0.79260  1.0000 0.6250922198
C   C46       1.0  0.79570  0.36190  0.51240  1.0000 0.2758209522
C   C47       1.0  0.84010  0.30370  0.50180  1.0000 -0.2889503424
C   C48       1.0  0.86430  0.24930  0.41760  1.0000 0.2301159095
C   C49       1.0  0.84790  0.24820  0.34490  1.0000 -0.2323554248
C   C50       1.0  0.79890  0.30370  0.35540  1.0000 0.0419211428
C   C51       1.0  0.77360  0.36060  0.44040  1.0000 -0.2719317485
C   C52       1.0  0.77840  0.30650  0.27650  1.0000 0.6360260959
C   C53       1.0  0.98410  0.23830  0.46500  1.0000 0.2658310349
C   C54       1.0  0.02900  0.17360  0.43220  1.0000 -0.2146814574
C   C55       1.0  0.10510  0.22020  0.49070  1.0000 0.0087895501
C   C56       1.0  0.13840  0.33000  0.57980  1.0000 -0.1467354183
C   C57       1.0  0.09470  0.39240  0.61110  1.0000 0.0087895501
C   C58       1.0  0.01650  0.34800  0.55370  1.0000 -0.2323554248
C   C59       1.0  0.15620  0.15250  0.45490  1.0000 0.6537082906
C   C60       1.0  0.13050  0.51210  0.70740  1.0000 0.6250922198
C   C61       1.0  0.29570  0.78330  0.43380  1.0000 0.2758209522
C   C62       1.0  0.34010  0.83830  0.53640  1.0000 -0.2889503424
C   C63       1.0  0.36430  0.94670  0.61500  1.0000 0.2301159095
C   C64       1.0  0.34790  0.00300  0.59970  1.0000 -0.2323554248
C   C65       1.0  0.29890  0.94350  0.49520  1.0000 0.0419211428
C   C66       1.0  0.27360  0.83320  0.41300  1.0000 -0.2719317485
C   C67       1.0  0.27840  0.00190  0.47190  1.0000 0.6360260959
C   C68       1.0  0.48410  0.01910  0.74580  1.0000 0.2658310349
C   C69       1.0  0.52900  0.09680  0.85540  1.0000 -0.2146814574
C   C70       1.0  0.60510  0.11440  0.88490  1.0000 0.0087895501
C   C71       1.0  0.63840  0.05860  0.80840  1.0000 -0.1467354183
C   C72       1.0  0.59470  0.98360  0.70230  1.0000 0.0087895501
C   C73       1.0  0.51650  0.96280  0.66850  1.0000 -0.2323554248
C   C74       1.0  0.65620  0.20130  0.00370  1.0000 0.6537082906
C   C75       1.0  0.63050  0.92310  0.61840  1.0000 0.6250922198
C   C76       1.0  0.84950  0.86190  0.06620  1.0000 0.2758209522
C   C77       1.0  0.80190  0.80370  0.96360  1.0000 -0.2889503424
C   C78       1.0  0.83170  0.74930  0.88500  1.0000 0.2301159095
C   C79       1.0  0.90330  0.74820  0.90030  1.0000 -0.2323554248
C   C80       1.0  0.94830  0.80370  0.00480  1.0000 0.0419211428
C   C81       1.0  0.92020  0.86060  0.08700  1.0000 -0.2719317485
C   C82       1.0  0.03000  0.80650  0.02810  1.0000 0.6360260959
C   C83       1.0  0.77330  0.73830  0.75420  1.0000 0.2658310349
C   C84       1.0  0.74140  0.67360  0.64460  1.0000 -0.2146814574
C   C85       1.0  0.72950  0.72020  0.61510  1.0000 0.0087895501
C   C86       1.0  0.75020  0.83000  0.69160  1.0000 -0.1467354183
C   C87       1.0  0.78130  0.89240  0.79770  1.0000 0.0087895501
C   C88       1.0  0.79430  0.84800  0.83150  1.0000 -0.2323554248
C   C89       1.0  0.69760  0.65250  0.49630  1.0000 0.6537082906
C   C90       1.0  0.80470  0.01210  0.88160  1.0000 0.6250922198
C   C91       1.0  0.65050  0.71670  0.01240  1.0000 0.2758209522
C   C92       1.0  0.69810  0.66170  0.00180  1.0000 -0.2889503424
C   C93       1.0  0.66830  0.55330  0.91760  1.0000 0.2301159095
C   C94       1.0  0.59670  0.49700  0.84490  1.0000 -0.2323554248
C   C95       1.0  0.55170  0.55650  0.85540  1.0000 0.0419211428
C   C96       1.0  0.57980  0.66680  0.94040  1.0000 -0.2719317485
C   C97       1.0  0.47000  0.49810  0.77650  1.0000 0.6360260959
C   C98       1.0  0.72670  0.48090  0.96500  1.0000 0.2658310349
C   C99       1.0  0.75860  0.40320  0.93220  1.0000 -0.2146814574
C   C100      1.0  0.77050  0.38560  0.99070  1.0000 0.0087895501
C   C101      1.0  0.74980  0.44140  0.07980  1.0000 -0.1467354183
C   C102      1.0  0.71870  0.51640  0.11110  1.0000 0.0087895501
C   C103      1.0  0.70570  0.53720  0.05370  1.0000 -0.2323554248
C   C104      1.0  0.80240  0.29870  0.95490  1.0000 0.6537082906
C   C105      1.0  0.69530  0.57690  0.20740  1.0000 0.6250922198
C   C106      1.0  0.20430  0.63810  0.48760  1.0000 0.2758209522
C   C107      1.0  0.15990  0.69630  0.49820  1.0000 -0.2889503424
C   C108      1.0  0.13570  0.75070  0.58240  1.0000 0.2301159095
C   C109      1.0  0.15210  0.75180  0.65510  1.0000 -0.2323554248
C   C110      1.0  0.20110  0.69630  0.64460  1.0000 0.0419211428
C   C111      1.0  0.22640  0.63940  0.55960  1.0000 -0.2719317485
C   C112      1.0  0.22160  0.69350  0.72350  1.0000 0.6360260959
C   C113      1.0  0.01590  0.76170  0.53500  1.0000 0.2658310349
C   C114      1.0  0.97100  0.82640  0.56780  1.0000 -0.2146814574
C   C115      1.0  0.89490  0.77980  0.50930  1.0000 0.0087895501
C   C116      1.0  0.86160  0.67000  0.42020  1.0000 -0.1467354183
C   C117      1.0  0.90530  0.60760  0.38890  1.0000 0.0087895501
C   C118      1.0  0.98350  0.65200  0.44630  1.0000 -0.2323554248
C   C119      1.0  0.84380  0.84750  0.54510  1.0000 0.6537082906
C   C120      1.0  0.86950  0.48790  0.29260  1.0000 0.6250922198
O   O1        1.0  0.72300  0.32750  0.65150  1.0000 -0.4439809804
O   O2        1.0  0.58940  0.99110  0.27550  1.0000 -0.2457902838
O   O3        1.0  0.69530  0.90390  0.45660  1.0000 -0.5995288674
O   O4        1.0  0.76590  0.05700  0.61950  1.0000 -0.6517369521
O   O5        1.0  0.36710  0.72830  0.93060  1.0000 -0.663411047
O   O6        1.0  0.27930  0.80330  0.97580  1.0000 -0.6927481477
O   O7        1.0  0.29990  0.04620  0.35010  1.0000 -0.6927481477
O   O8        1.0  0.41170  0.15970  0.47940  1.0000 -0.6517369521
O   O9        1.0  0.17600  0.07150  0.84850  1.0000 -0.4439809804
O   O10       1.0  0.21560  0.31390  0.22450  1.0000 -0.2457902838
O   O11       1.0  0.94730  0.23870  0.04340  1.0000 -0.5995288674
O   O12       1.0  0.93750  0.14640  0.88050  1.0000 -0.6517369521
O   O13       1.0  0.29770  0.43650  0.56940  1.0000 -0.663411047
O   O14       1.0  0.32750  0.30350  0.52420  1.0000 -0.6927481477
O   O15       1.0  0.19610  0.94980  0.14990  1.0000 -0.6927481477
O   O16       1.0  0.18030  0.93230  0.02060  1.0000 -0.6517369521
O   O17       1.0  0.32400  0.17250  0.89550  1.0000 -0.4439809804
O   O18       1.0  0.28440  0.50890  0.09830  1.0000 -0.2457902838
O   O19       1.0  0.55270  0.59610  0.29140  1.0000 -0.5995288674
O   O20       1.0  0.56250  0.44300  0.20890  1.0000 -0.6517369521
O   O21       1.0  0.20230  0.77170  0.13880  1.0000 -0.663411047
O   O22       1.0  0.17250  0.69670  0.97600  1.0000 -0.6927481477
O   O23       1.0  0.30390  0.45380  0.75370  1.0000 -0.6927481477
O   O24       1.0  0.31970  0.34030  0.75200  1.0000 -0.6517369521
O   O25       1.0  0.77700  0.42850  0.60450  1.0000 -0.4439809804
O   O26       1.0  0.91060  0.18610  0.40170  1.0000 -0.2457902838
O   O27       1.0  0.80470  0.26130  0.20860  1.0000 -0.5995288674
O   O28       1.0  0.73410  0.35360  0.29110  1.0000 -0.6517369521
O   O29       1.0  0.13290  0.06350  0.36120  1.0000 -0.663411047
O   O30       1.0  0.22070  0.19650  0.52400  1.0000 -0.6927481477
O   O31       1.0  0.20010  0.55020  0.74630  1.0000 -0.6927481477
O   O32       1.0  0.08830  0.56770  0.74800  1.0000 -0.6517369521
O   O33       1.0  0.27700  0.67250  0.34850  1.0000 -0.4439809804
O   O34       1.0  0.41060  0.00890  0.72450  1.0000 -0.2457902838
O   O35       1.0  0.30470  0.09610  0.54340  1.0000 -0.5995288674
O   O36       1.0  0.23410  0.94300  0.38050  1.0000 -0.6517369521
O   O37       1.0  0.63290  0.27170  0.06940  1.0000 -0.663411047
O   O38       1.0  0.72070  0.19670  0.02420  1.0000 -0.6927481477
O   O39       1.0  0.70010  0.95380  0.64990  1.0000 -0.6927481477
O   O40       1.0  0.58830  0.84030  0.52060  1.0000 -0.6517369521
O   O41       1.0  0.82400  0.92850  0.15150  1.0000 -0.4439809804
O   O42       1.0  0.78440  0.68610  0.77550  1.0000 -0.2457902838
O   O43       1.0  0.05270  0.76130  0.95660  1.0000 -0.5995288674
O   O44       1.0  0.06250  0.85360  0.11950  1.0000 -0.6517369521
O   O45       1.0  0.70230  0.56350  0.43060  1.0000 -0.663411047
O   O46       1.0  0.67250  0.69650  0.47580  1.0000 -0.6927481477
O   O47       1.0  0.80390  0.05020  0.85010  1.0000 -0.6927481477
O   O48       1.0  0.81970  0.06770  0.97940  1.0000 -0.6517369521
O   O49       1.0  0.67600  0.82750  0.10450  1.0000 -0.4439809804
O   O50       1.0  0.71560  0.49110  0.90170  1.0000 -0.2457902838
O   O51       1.0  0.44730  0.40390  0.70860  1.0000 -0.5995288674
O   O52       1.0  0.43750  0.55700  0.79110  1.0000 -0.6517369521
O   O53       1.0  0.79770  0.22830  0.86120  1.0000 -0.663411047
O   O54       1.0  0.82750  0.30330  0.02400  1.0000 -0.6927481477
O   O55       1.0  0.69610  0.54620  0.24630  1.0000 -0.6927481477
O   O56       1.0  0.68030  0.65970  0.24800  1.0000 -0.6517369521
O   O57       1.0  0.22300  0.57150  0.39550  1.0000 -0.4439809804
O   O58       1.0  0.08940  0.81390  0.59830  1.0000 -0.2457902838
O   O59       1.0  0.19530  0.73870  0.79140  1.0000 -0.5995288674
O   O60       1.0  0.26590  0.64640  0.70890  1.0000 -0.6517369521
O   O61       1.0  0.86710  0.93650  0.63880  1.0000 -0.663411047
O   O62       1.0  0.77930  0.80350  0.47600  1.0000 -0.6927481477
O   O63       1.0  0.79990  0.44980  0.25370  1.0000 -0.6927481477
O   O64       1.0  0.91170  0.43230  0.25200  1.0000 -0.6517369521
