# DDEC6 charges by PACMAN v1.1 (https://github.com/mtap-research/PACMAN-charge/)
data_0000[Mn][nan]2[ASR]1
_chemical_formula_sum              "Mn12 H60 C108 N24 O48"
_cell_length_a       16.5122
_cell_length_b       16.5122
_cell_length_c       13.66
_cell_angle_alpha    87.8123
_cell_angle_beta     92.1877
_cell_angle_gamma    106.541

_symmetry_space_group_name_H-M    "P 1"
_symmetry_Int_Tables_number       1

loop_
  _symmetry_equiv_pos_as_xyz
  'x, y, z'

loop_
  _atom_site_type_symbol
  _atom_site_label
  _atom_site_symmetry_multiplicity
  _atom_site_fract_x
  _atom_site_fract_y
  _atom_site_fract_z
  _atom_site_occupancy
  _atom_site_charge
Mn  Mn1       1.0  0.74759  0.96003  0.18203  1.0000 0.9606915878
Mn  Mn2       1.0  0.67434  0.87580  0.41846  1.0000 0.9660932438
Mn  Mn3       1.0  0.58548  0.76708  0.85380  1.0000 0.9489100741
Mn  Mn4       1.0  0.96003  0.74759  0.31797  1.0000 0.9606915878
Mn  Mn5       1.0  0.87580  0.67434  0.08154  1.0000 0.9660932438
Mn  Mn6       1.0  0.76708  0.58548  0.64620  1.0000 0.9489100741
Mn  Mn7       1.0  0.25241  0.03997  0.81797  1.0000 0.9606915878
Mn  Mn8       1.0  0.32566  0.12420  0.58154  1.0000 0.9660932438
Mn  Mn9       1.0  0.41452  0.23292  0.14620  1.0000 0.9489100741
Mn  Mn10      1.0  0.03997  0.25241  0.68203  1.0000 0.9606915878
Mn  Mn11      1.0  0.12420  0.32566  0.91846  1.0000 0.9660932438
Mn  Mn12      1.0  0.23292  0.41452  0.35380  1.0000 0.9489100741
H   H1        1.0  0.01803  0.82683  0.67934  1.0000 0.160661863
H   H2        1.0  0.16176  0.88494  0.34507  1.0000 0.1403343903
H   H3        1.0  0.20950  0.95688  0.41944  1.0000 0.1403343903
H   H4        1.0  0.19957  0.77967  0.55443  1.0000 0.1107334418
H   H5        1.0  0.30698  0.71408  0.58486  1.0000 0.1262891905
H   H6        1.0  0.43174  0.84054  0.35182  1.0000 0.1196980754
H   H7        1.0  0.32424  0.90472  0.32035  1.0000 0.1196980754
H   H8        1.0  0.43133  0.68579  0.54741  1.0000 0.1403343903
H   H9        1.0  0.49703  0.77771  0.53847  1.0000 0.1196980754
H   H10       1.0  0.50963  0.61035  0.23252  1.0000 0.1713772433
H   H11       1.0  0.52859  0.96437  0.57266  1.0000 0.160661863
H   H12       1.0  0.35141  0.86987  0.85623  1.0000 0.1403343903
H   H13       1.0  0.41006  0.81246  0.89569  1.0000 0.1403343903
H   H14       1.0  0.55524  0.99630  0.84597  1.0000 0.1107334418
H   H15       1.0  0.37453  0.89985  0.04448  1.0000 0.1196980754
H   H16       1.0  0.82683  0.01803  0.82066  1.0000 0.160661863
H   H17       1.0  0.88494  0.16176  0.15493  1.0000 0.1403343903
H   H18       1.0  0.95688  0.20950  0.08056  1.0000 0.1403343903
H   H19       1.0  0.77967  0.19957  0.94557  1.0000 0.1107334418
H   H20       1.0  0.71408  0.30698  0.91514  1.0000 0.1262891905
H   H21       1.0  0.84054  0.43174  0.14818  1.0000 0.1196980754
H   H22       1.0  0.90472  0.32424  0.17965  1.0000 0.1196980754
H   H23       1.0  0.68579  0.43133  0.95259  1.0000 0.1403343903
H   H24       1.0  0.77771  0.49703  0.96153  1.0000 0.1196980754
H   H25       1.0  0.61035  0.50963  0.26748  1.0000 0.1713772433
H   H26       1.0  0.96437  0.52859  0.92734  1.0000 0.160661863
H   H27       1.0  0.86987  0.35141  0.64377  1.0000 0.1403343903
H   H28       1.0  0.81246  0.41006  0.60431  1.0000 0.1403343903
H   H29       1.0  0.99630  0.55524  0.65403  1.0000 0.1107334418
H   H30       1.0  0.89985  0.37453  0.45552  1.0000 0.1196980754
H   H31       1.0  0.98197  0.17317  0.32066  1.0000 0.160661863
H   H32       1.0  0.83824  0.11506  0.65493  1.0000 0.1403343903
H   H33       1.0  0.79050  0.04312  0.58056  1.0000 0.1403343903
H   H34       1.0  0.80043  0.22033  0.44557  1.0000 0.1107334418
H   H35       1.0  0.69302  0.28592  0.41514  1.0000 0.1262891905
H   H36       1.0  0.56826  0.15946  0.64818  1.0000 0.1196980754
H   H37       1.0  0.67576  0.09528  0.67965  1.0000 0.1196980754
H   H38       1.0  0.56867  0.31421  0.45259  1.0000 0.1403343903
H   H39       1.0  0.50297  0.22229  0.46153  1.0000 0.1196980754
H   H40       1.0  0.49037  0.38965  0.76748  1.0000 0.1713772433
H   H41       1.0  0.47141  0.03563  0.42734  1.0000 0.160661863
H   H42       1.0  0.64859  0.13013  0.14377  1.0000 0.1403343903
H   H43       1.0  0.58994  0.18754  0.10431  1.0000 0.1403343903
H   H44       1.0  0.44476  0.00370  0.15403  1.0000 0.1107334418
H   H45       1.0  0.62547  0.10015  0.95552  1.0000 0.1196980754
H   H46       1.0  0.17317  0.98197  0.17934  1.0000 0.160661863
H   H47       1.0  0.11506  0.83824  0.84507  1.0000 0.1403343903
H   H48       1.0  0.04312  0.79050  0.91944  1.0000 0.1403343903
H   H49       1.0  0.22033  0.80043  0.05443  1.0000 0.1107334418
H   H50       1.0  0.28592  0.69302  0.08486  1.0000 0.1262891905
H   H51       1.0  0.15946  0.56826  0.85182  1.0000 0.1196980754
H   H52       1.0  0.09528  0.67576  0.82035  1.0000 0.1196980754
H   H53       1.0  0.31421  0.56867  0.04741  1.0000 0.1403343903
H   H54       1.0  0.22229  0.50297  0.03847  1.0000 0.1196980754
H   H55       1.0  0.38965  0.49037  0.73252  1.0000 0.1713772433
H   H56       1.0  0.03563  0.47141  0.07266  1.0000 0.160661863
H   H57       1.0  0.13013  0.64859  0.35623  1.0000 0.1403343903
H   H58       1.0  0.18754  0.58994  0.39569  1.0000 0.1403343903
H   H59       1.0  0.00370  0.44476  0.34597  1.0000 0.1107334418
H   H60       1.0  0.10015  0.62547  0.54448  1.0000 0.1196980754
C   C1        1.0  0.10887  0.88759  0.57635  1.0000 -0.0077582926
C   C2        1.0  0.03807  0.82987  0.61464  1.0000 -0.2226234434
C   C3        1.0  0.00261  0.77711  0.53706  1.0000 0.038292853
C   C4        1.0  0.92271  0.70641  0.53060  1.0000 0.5591097491
C   C5        1.0  0.16754  0.96246  0.62599  1.0000 0.5771718787
C   C6        1.0  0.18360  0.89530  0.41333  1.0000 -0.1997120774
C   C7        1.0  0.25087  0.84973  0.43443  1.0000 0.1107334418
C   C8        1.0  0.24669  0.79251  0.51292  1.0000 -0.1545483007
C   C9        1.0  0.31125  0.75353  0.53148  1.0000 -0.1367792868
C   C10       1.0  0.38102  0.77204  0.47277  1.0000 0.1107334418
C   C11       1.0  0.38483  0.82813  0.39360  1.0000 -0.1302381588
C   C12       1.0  0.32045  0.86645  0.37486  1.0000 -0.1367792868
C   C13       1.0  0.45301  0.73489  0.50221  1.0000 -0.1931097714
C   C14       1.0  0.46277  0.63707  0.36484  1.0000 0.038292853
C   C15       1.0  0.51391  0.64811  0.28450  1.0000 -0.1997120774
C   C16       1.0  0.57305  0.72669  0.29645  1.0000 0.0702340918
C   C17       1.0  0.64575  0.77121  0.23463  1.0000 0.5771718787
C   C18       1.0  0.39275  0.56095  0.39792  1.0000 0.5413102077
C   C19       1.0  0.44981  0.93525  0.69474  1.0000 0.0037877614
C   C20       1.0  0.51409  0.93343  0.63262  1.0000 -0.2277674658
C   C21       1.0  0.55259  0.87607  0.67789  1.0000 0.038292853
C   C22       1.0  0.39202  0.99084  0.68876  1.0000 0.5686474459
C   C23       1.0  0.62512  0.84520  0.65006  1.0000 0.5686474459
C   C24       1.0  0.41065  0.86823  0.86589  1.0000 -0.1931097714
C   C25       1.0  0.45775  0.93771  0.93402  1.0000 0.1196980754
C   C26       1.0  0.53254  0.99762  0.90857  1.0000 -0.1367792868
C   C27       1.0  0.42549  0.94045  0.02607  1.0000 -0.1249277128
C   C28       1.0  0.88759  0.10887  0.92365  1.0000 -0.0077582926
C   C29       1.0  0.82987  0.03807  0.88536  1.0000 -0.2226234434
C   C30       1.0  0.77711  0.00261  0.96294  1.0000 0.038292853
C   C31       1.0  0.70641  0.92271  0.96940  1.0000 0.5591097491
C   C32       1.0  0.96246  0.16754  0.87401  1.0000 0.5771718787
C   C33       1.0  0.89530  0.18360  0.08667  1.0000 -0.1997120774
C   C34       1.0  0.84973  0.25087  0.06557  1.0000 0.1107334418
C   C35       1.0  0.79251  0.24669  0.98708  1.0000 -0.1545483007
C   C36       1.0  0.75353  0.31125  0.96852  1.0000 -0.1367792868
C   C37       1.0  0.77204  0.38102  0.02723  1.0000 0.1107334418
C   C38       1.0  0.82813  0.38483  0.10640  1.0000 -0.1302381588
C   C39       1.0  0.86645  0.32045  0.12514  1.0000 -0.1367792868
C   C40       1.0  0.73489  0.45301  0.99779  1.0000 -0.1931097714
C   C41       1.0  0.63707  0.46277  0.13516  1.0000 0.038292853
C   C42       1.0  0.64811  0.51391  0.21550  1.0000 -0.1997120774
C   C43       1.0  0.72669  0.57305  0.20355  1.0000 0.0702340918
C   C44       1.0  0.77121  0.64575  0.26537  1.0000 0.5771718787
C   C45       1.0  0.56095  0.39275  0.10208  1.0000 0.5413102077
C   C46       1.0  0.93525  0.44981  0.80526  1.0000 0.0037877614
C   C47       1.0  0.93343  0.51409  0.86738  1.0000 -0.2277674658
C   C48       1.0  0.87607  0.55259  0.82211  1.0000 0.038292853
C   C49       1.0  0.99084  0.39202  0.81124  1.0000 0.5686474459
C   C50       1.0  0.84520  0.62512  0.84994  1.0000 0.5686474459
C   C51       1.0  0.86823  0.41065  0.63411  1.0000 -0.1931097714
C   C52       1.0  0.93771  0.45775  0.56598  1.0000 0.1196980754
C   C53       1.0  0.99762  0.53254  0.59143  1.0000 -0.1367792868
C   C54       1.0  0.94045  0.42549  0.47393  1.0000 -0.1249277128
C   C55       1.0  0.89113  0.11241  0.42365  1.0000 -0.0077582926
C   C56       1.0  0.96193  0.17013  0.38536  1.0000 -0.2226234434
C   C57       1.0  0.99739  0.22289  0.46294  1.0000 0.038292853
C   C58       1.0  0.07729  0.29359  0.46940  1.0000 0.5591097491
C   C59       1.0  0.83246  0.03754  0.37401  1.0000 0.5771718787
C   C60       1.0  0.81640  0.10470  0.58667  1.0000 -0.1997120774
C   C61       1.0  0.74913  0.15027  0.56557  1.0000 0.1107334418
C   C62       1.0  0.75331  0.20749  0.48708  1.0000 -0.1545483007
C   C63       1.0  0.68875  0.24647  0.46852  1.0000 -0.1367792868
C   C64       1.0  0.61898  0.22796  0.52723  1.0000 0.1107334418
C   C65       1.0  0.61517  0.17187  0.60640  1.0000 -0.1302381588
C   C66       1.0  0.67955  0.13355  0.62514  1.0000 -0.1367792868
C   C67       1.0  0.54699  0.26511  0.49779  1.0000 -0.1931097714
C   C68       1.0  0.53723  0.36293  0.63516  1.0000 0.038292853
C   C69       1.0  0.48609  0.35189  0.71550  1.0000 -0.1997120774
C   C70       1.0  0.42695  0.27331  0.70355  1.0000 0.0702340918
C   C71       1.0  0.35425  0.22879  0.76537  1.0000 0.5771718787
C   C72       1.0  0.60725  0.43905  0.60208  1.0000 0.5413102077
C   C73       1.0  0.55019  0.06475  0.30526  1.0000 0.0037877614
C   C74       1.0  0.48591  0.06657  0.36738  1.0000 -0.2277674658
C   C75       1.0  0.44741  0.12393  0.32211  1.0000 0.038292853
C   C76       1.0  0.60798  0.00916  0.31124  1.0000 0.5686474459
C   C77       1.0  0.37488  0.15480  0.34994  1.0000 0.5686474459
C   C78       1.0  0.58935  0.13177  0.13411  1.0000 -0.1931097714
C   C79       1.0  0.54225  0.06229  0.06598  1.0000 0.1196980754
C   C80       1.0  0.46746  0.00238  0.09143  1.0000 -0.1367792868
C   C81       1.0  0.57451  0.05955  0.97393  1.0000 -0.1249277128
C   C82       1.0  0.11241  0.89113  0.07635  1.0000 -0.0077582926
C   C83       1.0  0.17013  0.96193  0.11464  1.0000 -0.2226234434
C   C84       1.0  0.22289  0.99739  0.03706  1.0000 0.038292853
C   C85       1.0  0.29359  0.07729  0.03060  1.0000 0.5591097491
C   C86       1.0  0.03754  0.83246  0.12599  1.0000 0.5771718787
C   C87       1.0  0.10470  0.81640  0.91333  1.0000 -0.1997120774
C   C88       1.0  0.15027  0.74913  0.93443  1.0000 0.1107334418
C   C89       1.0  0.20749  0.75331  0.01292  1.0000 -0.1545483007
C   C90       1.0  0.24647  0.68875  0.03148  1.0000 -0.1367792868
C   C91       1.0  0.22796  0.61898  0.97277  1.0000 0.1107334418
C   C92       1.0  0.17187  0.61517  0.89360  1.0000 -0.1302381588
C   C93       1.0  0.13355  0.67955  0.87486  1.0000 -0.1367792868
C   C94       1.0  0.26511  0.54699  0.00221  1.0000 -0.1931097714
C   C95       1.0  0.36293  0.53723  0.86484  1.0000 0.038292853
C   C96       1.0  0.35189  0.48609  0.78450  1.0000 -0.1997120774
C   C97       1.0  0.27331  0.42695  0.79645  1.0000 0.0702340918
C   C98       1.0  0.22879  0.35425  0.73463  1.0000 0.5771718787
C   C99       1.0  0.43905  0.60725  0.89792  1.0000 0.5413102077
C   C100      1.0  0.06475  0.55019  0.19474  1.0000 0.0037877614
C   C101      1.0  0.06657  0.48591  0.13262  1.0000 -0.2277674658
C   C102      1.0  0.12393  0.44741  0.17789  1.0000 0.038292853
C   C103      1.0  0.00916  0.60798  0.18876  1.0000 0.5686474459
C   C104      1.0  0.15480  0.37488  0.15006  1.0000 0.5686474459
C   C105      1.0  0.13177  0.58935  0.36589  1.0000 -0.1931097714
C   C106      1.0  0.06229  0.54225  0.43402  1.0000 0.1196980754
C   C107      1.0  0.00238  0.46746  0.40857  1.0000 -0.1367792868
C   C108      1.0  0.05955  0.57451  0.52607  1.0000 -0.1249277128
N   N1        1.0  0.11315  0.86723  0.48028  1.0000 0.1911281017
N   N2        1.0  0.04869  0.79903  0.45612  1.0000 -0.2924048959
N   N3        1.0  0.49207  0.70759  0.41958  1.0000 0.1911281017
N   N4        1.0  0.55930  0.76296  0.37809  1.0000 -0.2924048959
N   N5        1.0  0.45170  0.87934  0.77088  1.0000 0.1911281017
N   N6        1.0  0.51469  0.84379  0.76216  1.0000 -0.262712328
N   N7        1.0  0.86723  0.11315  0.01972  1.0000 0.1911281017
N   N8        1.0  0.79903  0.04869  0.04388  1.0000 -0.2924048959
N   N9        1.0  0.70759  0.49207  0.08042  1.0000 0.1911281017
N   N10       1.0  0.76296  0.55930  0.12191  1.0000 -0.2924048959
N   N11       1.0  0.87934  0.45170  0.72912  1.0000 0.1911281017
N   N12       1.0  0.84379  0.51469  0.73784  1.0000 -0.262712328
N   N13       1.0  0.88685  0.13277  0.51972  1.0000 0.1911281017
N   N14       1.0  0.95131  0.20097  0.54388  1.0000 -0.2924048959
N   N15       1.0  0.50793  0.29241  0.58042  1.0000 0.1911281017
N   N16       1.0  0.44070  0.23704  0.62191  1.0000 -0.2924048959
N   N17       1.0  0.54830  0.12066  0.22912  1.0000 0.1911281017
N   N18       1.0  0.48531  0.15621  0.23784  1.0000 -0.262712328
N   N19       1.0  0.13277  0.88685  0.98028  1.0000 0.1911281017
N   N20       1.0  0.20097  0.95131  0.95612  1.0000 -0.2924048959
N   N21       1.0  0.29241  0.50793  0.91958  1.0000 0.1911281017
N   N22       1.0  0.23704  0.44070  0.87809  1.0000 -0.2924048959
N   N23       1.0  0.12066  0.54830  0.27088  1.0000 0.1911281017
N   N24       1.0  0.15621  0.48531  0.26216  1.0000 -0.262712328
O   O1        1.0  0.90113  0.67619  0.44631  1.0000 -0.5334804041
O   O2        1.0  0.88270  0.68342  0.60830  1.0000 -0.5420038882
O   O3        1.0  0.16238  0.96184  0.71789  1.0000 -0.5576242192
O   O4        1.0  0.21434  0.01942  0.57288  1.0000 -0.5420038882
O   O5        1.0  0.69129  0.84357  0.26628  1.0000 -0.5891647024
O   O6        1.0  0.65684  0.73686  0.15930  1.0000 -0.4538214414
O   O7        1.0  0.34632  0.51964  0.32971  1.0000 -0.5891647024
O   O8        1.0  0.38718  0.54464  0.48837  1.0000 -0.5451098068
O   O9        1.0  0.34274  0.98584  0.75837  1.0000 -0.5576242192
O   O10       1.0  0.39968  0.03886  0.61350  1.0000 -0.5420038882
O   O11       1.0  0.66209  0.87355  0.57227  1.0000 -0.5420038882
O   O12       1.0  0.64381  0.79073  0.70779  1.0000 -0.4883053435
O   O13       1.0  0.67619  0.90113  0.05369  1.0000 -0.5334804041
O   O14       1.0  0.68342  0.88270  0.89170  1.0000 -0.5420038882
O   O15       1.0  0.96184  0.16238  0.78211  1.0000 -0.5576242192
O   O16       1.0  0.01942  0.21434  0.92712  1.0000 -0.5420038882
O   O17       1.0  0.84357  0.69129  0.23372  1.0000 -0.5891647024
O   O18       1.0  0.73686  0.65684  0.34070  1.0000 -0.4538214414
O   O19       1.0  0.51964  0.34632  0.17029  1.0000 -0.5891647024
O   O20       1.0  0.54464  0.38718  0.01163  1.0000 -0.5451098068
O   O21       1.0  0.98584  0.34274  0.74163  1.0000 -0.5576242192
O   O22       1.0  0.03886  0.39968  0.88650  1.0000 -0.5420038882
O   O23       1.0  0.87355  0.66209  0.92773  1.0000 -0.5420038882
O   O24       1.0  0.79073  0.64381  0.79221  1.0000 -0.4883053435
O   O25       1.0  0.09887  0.32381  0.55369  1.0000 -0.5334804041
O   O26       1.0  0.11730  0.31658  0.39170  1.0000 -0.5420038882
O   O27       1.0  0.83762  0.03816  0.28211  1.0000 -0.5576242192
O   O28       1.0  0.78566  0.98058  0.42712  1.0000 -0.5420038882
O   O29       1.0  0.30871  0.15643  0.73372  1.0000 -0.5891647024
O   O30       1.0  0.34316  0.26314  0.84070  1.0000 -0.4538214414
O   O31       1.0  0.65368  0.48036  0.67029  1.0000 -0.5891647024
O   O32       1.0  0.61282  0.45536  0.51163  1.0000 -0.5420038882
O   O33       1.0  0.65726  0.01416  0.24163  1.0000 -0.5576242192
O   O34       1.0  0.60032  0.96114  0.38650  1.0000 -0.5420038882
O   O35       1.0  0.33791  0.12645  0.42773  1.0000 -0.5420038882
O   O36       1.0  0.35619  0.20927  0.29221  1.0000 -0.4883053435
O   O37       1.0  0.32381  0.09887  0.94631  1.0000 -0.5334804041
O   O38       1.0  0.31658  0.11730  0.10830  1.0000 -0.5420038882
O   O39       1.0  0.03816  0.83762  0.21789  1.0000 -0.5576242192
O   O40       1.0  0.98058  0.78566  0.07288  1.0000 -0.5420038882
O   O41       1.0  0.15643  0.30871  0.76628  1.0000 -0.5891647024
O   O42       1.0  0.26314  0.34316  0.65930  1.0000 -0.4538214414
O   O43       1.0  0.48036  0.65368  0.82971  1.0000 -0.5891647024
O   O44       1.0  0.45536  0.61282  0.98837  1.0000 -0.5420038882
O   O45       1.0  0.01416  0.65726  0.25837  1.0000 -0.5576242192
O   O46       1.0  0.96114  0.60032  0.11350  1.0000 -0.5420038882
O   O47       1.0  0.12645  0.33791  0.07227  1.0000 -0.5420038882
O   O48       1.0  0.20927  0.35619  0.20779  1.0000 -0.4883053435
