# DDEC6 charges by PACMAN v1.1 (https://github.com/mtap-research/PACMAN-charge/)
data_0000[Ce][ant]3[ASR]1
_chemical_formula_sum              "Ce4 H12 C28 S2 N4 O24"
_cell_length_a       14.7484
_cell_length_b       14.7484
_cell_length_c       6.7481
_cell_angle_alpha    87.9617
_cell_angle_beta     92.0383
_cell_angle_gamma    125.397

_symmetry_space_group_name_H-M    "P 1"
_symmetry_Int_Tables_number       1

loop_
  _symmetry_equiv_pos_as_xyz
  'x, y, z'

loop_
  _atom_site_type_symbol
  _atom_site_label
  _atom_site_symmetry_multiplicity
  _atom_site_fract_x
  _atom_site_fract_y
  _atom_site_fract_z
  _atom_site_occupancy
  _atom_site_charge
Ce  Ce1       1.0  0.70368  0.91064  0.49037  1.0000 1.9715483733
Ce  Ce2       1.0  0.91064  0.70368  0.00963  1.0000 1.9715483733
Ce  Ce3       1.0  0.29632  0.08936  0.50963  1.0000 1.9629568406
Ce  Ce4       1.0  0.08936  0.29632  0.99037  1.0000 1.9629568406
H   H1        1.0  0.95650  0.40870  0.63460  1.0000 0.1115440749
H   H2        1.0  0.40870  0.95650  0.86540  1.0000 0.1115440749
H   H3        1.0  0.04350  0.59130  0.36540  1.0000 0.1115440749
H   H4        1.0  0.59130  0.04350  0.13460  1.0000 0.1115440749
H   H5        1.0  0.69320  0.40820  0.54940  1.0000 0.1200976991
H   H6        1.0  0.40820  0.69320  0.95060  1.0000 0.1200976991
H   H7        1.0  0.30680  0.59180  0.45060  1.0000 0.1200976991
H   H8        1.0  0.59180  0.30680  0.04940  1.0000 0.1200976991
H   H9        1.0  0.65650  0.11690  0.58860  1.0000 0.1275726207
H   H10       1.0  0.11690  0.65650  0.91140  1.0000 0.1275726207
H   H11       1.0  0.34350  0.88310  0.41140  1.0000 0.1275726207
H   H12       1.0  0.88310  0.34350  0.08860  1.0000 0.1275726207
C   C1        1.0  0.87463  0.19697  0.63760  1.0000 0.6396168419
C   C2        1.0  0.19697  0.87463  0.86240  1.0000 0.6396168419
C   C3        1.0  0.12537  0.80303  0.36240  1.0000 0.6396168419
C   C4        1.0  0.80303  0.12537  0.13760  1.0000 0.6396168419
C   C5        1.0  0.81653  0.25367  0.61290  1.0000 -0.0917824
C   C6        1.0  0.25367  0.81653  0.88710  1.0000 -0.0917824
C   C7        1.0  0.18347  0.74633  0.38710  1.0000 -0.0917824
C   C8        1.0  0.74633  0.18347  0.11290  1.0000 -0.0917824
C   C9        1.0  0.87985  0.36935  0.61540  1.0000 0.0569500238
C   C10       1.0  0.36935  0.87985  0.88460  1.0000 0.0569500238
C   C11       1.0  0.12015  0.63065  0.38460  1.0000 0.0569500238
C   C12       1.0  0.63065  0.12015  0.11540  1.0000 0.0569500238
C   C13       1.0  0.72459  0.36901  0.56680  1.0000 0.0524639212
C   C14       1.0  0.36901  0.72459  0.93320  1.0000 0.0524639212
C   C15       1.0  0.27541  0.63099  0.43320  1.0000 0.0524639212
C   C16       1.0  0.63099  0.27541  0.06680  1.0000 0.0524639212
C   C17       1.0  0.65419  0.25301  0.56620  1.0000 -0.0674298243
C   C18       1.0  0.25301  0.65419  0.93380  1.0000 -0.0674298243
C   C19       1.0  0.34581  0.74699  0.43380  1.0000 -0.0674298243
C   C20       1.0  0.74699  0.34581  0.06620  1.0000 -0.0674298243
C   C21       1.0  0.70099  0.19421  0.58910  1.0000 -0.0814245321
C   C22       1.0  0.19421  0.70099  0.91090  1.0000 -0.0814245321
C   C23       1.0  0.29901  0.80579  0.41090  1.0000 -0.0814245321
C   C24       1.0  0.80579  0.29901  0.08910  1.0000 -0.0814245321
C   C25       1.0  0.53047  0.19513  0.54280  1.0000 0.5664033838
C   C26       1.0  0.19513  0.53047  0.95720  1.0000 0.5664033838
C   C27       1.0  0.46953  0.80487  0.45720  1.0000 0.5664033838
C   C28       1.0  0.80487  0.46953  0.04280  1.0000 0.5664033838
S   S1        1.0  0.79935  0.79935  0.75000  1.0000 1.3195347138
S   S2        1.0  0.20065  0.20065  0.25000  1.0000 1.2991214343
N   N1        1.0  0.83527  0.42673  0.59120  1.0000 -0.2319829143
N   N2        1.0  0.42673  0.83527  0.90880  1.0000 -0.2319829143
N   N3        1.0  0.16473  0.57327  0.40880  1.0000 -0.2319829143
N   N4        1.0  0.57327  0.16473  0.09120  1.0000 -0.2319829143
O   O1        1.0  0.46563  0.09259  0.57490  1.0000 -0.581487929
O   O2        1.0  0.09259  0.46563  0.92510  1.0000 -0.581487929
O   O3        1.0  0.53437  0.90741  0.42510  1.0000 -0.581487929
O   O4        1.0  0.90741  0.53437  0.07490  1.0000 -0.581487929
O   O5        1.0  0.49426  0.25274  0.49130  1.0000 -0.6189646475
O   O6        1.0  0.25274  0.49426  0.00870  1.0000 -0.6189646475
O   O7        1.0  0.50574  0.74726  0.50870  1.0000 -0.6189646475
O   O8        1.0  0.74726  0.50574  0.99130  1.0000 -0.6189646475
O   O9        1.0  0.82195  0.09637  0.59820  1.0000 -0.6189646475
O   O10       1.0  0.09637  0.82195  0.90180  1.0000 -0.6189646475
O   O11       1.0  0.17805  0.90363  0.40180  1.0000 -0.6189646475
O   O12       1.0  0.90363  0.17805  0.09820  1.0000 -0.6189646475
O   O13       1.0  0.97502  0.25548  0.69550  1.0000 -0.6189646475
O   O14       1.0  0.25548  0.97502  0.80450  1.0000 -0.6189646475
O   O15       1.0  0.02498  0.74452  0.30450  1.0000 -0.6189646475
O   O16       1.0  0.74452  0.02498  0.19550  1.0000 -0.6189646475
O   O17       1.0  0.72273  0.75527  0.57720  1.0000 -0.7027015738
O   O18       1.0  0.75527  0.72273  0.92280  1.0000 -0.7027015738
O   O19       1.0  0.27727  0.24473  0.42280  1.0000 -0.7027015738
O   O20       1.0  0.24473  0.27727  0.07720  1.0000 -0.7027015738
O   O21       1.0  0.81617  0.90543  0.79300  1.0000 -0.685536211
O   O22       1.0  0.90543  0.81617  0.70700  1.0000 -0.685536211
O   O23       1.0  0.18383  0.09457  0.20700  1.0000 -0.6801879756
O   O24       1.0  0.09457  0.18383  0.29300  1.0000 -0.6801879756
