# DDEC6 charges by PACMAN v1.1 (https://github.com/mtap-research/PACMAN-charge/)
data_0000[Ni][dia]3[ASR]3
_chemical_formula_sum              "Ni12 H24 C24 O48"
_cell_length_a       11.1487
_cell_length_b       9.7763
_cell_length_c       17.9685
_cell_angle_alpha    90
_cell_angle_beta     126.948
_cell_angle_gamma    90

_symmetry_space_group_name_H-M    "P 1"
_symmetry_Int_Tables_number       1

loop_
  _symmetry_equiv_pos_as_xyz
  'x, y, z'

loop_
  _atom_site_type_symbol
  _atom_site_label
  _atom_site_symmetry_multiplicity
  _atom_site_fract_x
  _atom_site_fract_y
  _atom_site_fract_z
  _atom_site_occupancy
  _atom_site_charge
Ni  Ni1       1.0  0.87951  0.92361  0.63509  1.0000 0.9097153838
Ni  Ni2       1.0  0.12049  0.42361  0.86491  1.0000 0.9097153838
Ni  Ni3       1.0  0.12049  0.07639  0.36491  1.0000 0.9097153838
Ni  Ni4       1.0  0.87951  0.57639  0.13509  1.0000 0.9097153838
Ni  Ni5       1.0  0.93322  0.61731  0.69226  1.0000 0.8767068381
Ni  Ni6       1.0  0.06678  0.11731  0.80774  1.0000 0.8767068381
Ni  Ni7       1.0  0.06678  0.38269  0.30774  1.0000 0.8767068381
Ni  Ni8       1.0  0.93322  0.88269  0.19226  1.0000 0.8767068381
Ni  Ni9       1.0  0.00000  0.00000  0.50000  1.0000 0.9097153838
Ni  Ni10      1.0  0.00000  0.50000  0.00000  1.0000 0.9097153838
Ni  Ni11      1.0  0.50000  0.00000  0.50000  1.0000 0.9097153838
Ni  Ni12      1.0  0.50000  0.50000  0.00000  1.0000 0.9097153838
H   H1        1.0  0.52390  0.70710  0.51400  1.0000 0.1106353611
H   H2        1.0  0.47610  0.20710  0.98600  1.0000 0.1106353611
H   H3        1.0  0.47610  0.29290  0.48600  1.0000 0.1106353611
H   H4        1.0  0.52390  0.79290  0.01400  1.0000 0.1106353611
H   H5        1.0  0.99220  0.62210  0.54820  1.0000 0.1106353611
H   H6        1.0  0.00780  0.12210  0.95180  1.0000 0.1106353611
H   H7        1.0  0.00780  0.37790  0.45180  1.0000 0.1106353611
H   H8        1.0  0.99220  0.87790  0.04820  1.0000 0.1106353611
H   H9        1.0  0.74650  0.19410  0.72920  1.0000 0.1192206438
H   H10       1.0  0.25350  0.69410  0.77080  1.0000 0.1192206438
H   H11       1.0  0.25350  0.80590  0.27080  1.0000 0.1192206438
H   H12       1.0  0.74650  0.30590  0.22920  1.0000 0.1192206438
H   H13       1.0  0.01650  0.76440  0.87100  1.0000 0.1106353611
H   H14       1.0  0.98350  0.26440  0.62900  1.0000 0.1106353611
H   H15       1.0  0.98350  0.23560  0.12900  1.0000 0.1106353611
H   H16       1.0  0.01650  0.73560  0.37100  1.0000 0.1106353611
H   H17       1.0  0.73170  0.15680  0.42850  1.0000 0.0985356286
H   H18       1.0  0.26830  0.65680  0.07150  1.0000 0.0985356286
H   H19       1.0  0.26830  0.84320  0.57150  1.0000 0.0985356286
H   H20       1.0  0.73170  0.34320  0.92850  1.0000 0.0985356286
H   H21       1.0  0.28390  0.05320  0.76140  1.0000 0.1106353611
H   H22       1.0  0.71610  0.55320  0.73860  1.0000 0.1106353611
H   H23       1.0  0.71610  0.94680  0.23860  1.0000 0.1106353611
H   H24       1.0  0.28390  0.44680  0.26140  1.0000 0.1106353611
C   C1        1.0  0.62630  0.72500  0.55460  1.0000 0.4711151118
C   C2        1.0  0.37370  0.22500  0.94540  1.0000 0.4711151118
C   C3        1.0  0.37370  0.27500  0.44540  1.0000 0.4711151118
C   C4        1.0  0.62630  0.77500  0.05460  1.0000 0.4711151118
C   C5        1.0  0.98080  0.71490  0.55380  1.0000 0.4547562147
C   C6        1.0  0.01920  0.21490  0.94620  1.0000 0.4547562147
C   C7        1.0  0.01920  0.28510  0.44620  1.0000 0.4547562147
C   C8        1.0  0.98080  0.78510  0.05380  1.0000 0.4547562147
C   C9        1.0  0.72920  0.13300  0.68395  1.0000 0.4404646749
C   C10       1.0  0.27080  0.63300  0.81605  1.0000 0.4404646749
C   C11       1.0  0.27080  0.86700  0.31605  1.0000 0.4404646749
C   C12       1.0  0.72920  0.36700  0.18395  1.0000 0.4404646749
C   C13       1.0  0.00500  0.83450  0.83219  1.0000 0.4711151118
C   C14       1.0  0.99500  0.33450  0.66781  1.0000 0.4711151118
C   C15       1.0  0.99500  0.16550  0.16781  1.0000 0.4711151118
C   C16       1.0  0.00500  0.66550  0.33219  1.0000 0.4711151118
C   C17       1.0  0.72640  0.10210  0.46876  1.0000 0.480123579
C   C18       1.0  0.27360  0.60210  0.03124  1.0000 0.480123579
C   C19       1.0  0.27360  0.89790  0.53124  1.0000 0.480123579
C   C20       1.0  0.72640  0.39790  0.96876  1.0000 0.480123579
C   C21       1.0  0.19060  0.02540  0.70905  1.0000 0.4547562147
C   C22       1.0  0.80940  0.52540  0.79095  1.0000 0.4547562147
C   C23       1.0  0.80940  0.97460  0.29095  1.0000 0.4547562147
C   C24       1.0  0.19060  0.47460  0.20905  1.0000 0.4547562147
O   O1        1.0  0.66541  0.84960  0.56251  1.0000 -0.5331219291
O   O2        1.0  0.33459  0.34960  0.93749  1.0000 -0.5331219291
O   O3        1.0  0.33459  0.15040  0.43749  1.0000 -0.5331219291
O   O4        1.0  0.66541  0.65040  0.06251  1.0000 -0.5331219291
O   O5        1.0  0.70937  0.62541  0.59498  1.0000 -0.4815254477
O   O6        1.0  0.29063  0.12541  0.90502  1.0000 -0.4815254477
O   O7        1.0  0.29063  0.37459  0.40502  1.0000 -0.4815254477
O   O8        1.0  0.70937  0.87459  0.09498  1.0000 -0.4815254477
O   O9        1.0  0.93668  0.80524  0.74663  1.0000 -0.5410835718
O   O10       1.0  0.06332  0.30524  0.75337  1.0000 -0.5410835718
O   O11       1.0  0.06332  0.19476  0.25337  1.0000 -0.5410835718
O   O12       1.0  0.93668  0.69476  0.24663  1.0000 -0.5410835718
O   O13       1.0  0.95958  0.74821  0.61323  1.0000 -0.5410835718
O   O14       1.0  0.04042  0.24821  0.88677  1.0000 -0.5410835718
O   O15       1.0  0.04042  0.25179  0.38677  1.0000 -0.5410835718
O   O16       1.0  0.95958  0.75179  0.11323  1.0000 -0.5410835718
O   O17       1.0  0.84411  0.08594  0.69438  1.0000 -0.5410835718
O   O18       1.0  0.15589  0.58594  0.80562  1.0000 -0.5410835718
O   O19       1.0  0.15589  0.91406  0.30562  1.0000 -0.5410835718
O   O20       1.0  0.84411  0.41406  0.19438  1.0000 -0.5410835718
O   O21       1.0  0.08777  0.01096  0.71847  1.0000 -0.5410835718
O   O22       1.0  0.91223  0.51096  0.78153  1.0000 -0.5410835718
O   O23       1.0  0.91223  0.98904  0.28153  1.0000 -0.5410835718
O   O24       1.0  0.08777  0.48904  0.21847  1.0000 -0.5410835718
O   O25       1.0  0.83928  0.02507  0.52407  1.0000 -0.5410835718
O   O26       1.0  0.16072  0.52507  0.97593  1.0000 -0.5410835718
O   O27       1.0  0.16072  0.97493  0.47593  1.0000 -0.5410835718
O   O28       1.0  0.83928  0.47493  0.02407  1.0000 -0.5410835718
O   O29       1.0  0.05770  0.94766  0.86875  1.0000 -0.4881544391
O   O30       1.0  0.94230  0.44766  0.63125  1.0000 -0.4881544391
O   O31       1.0  0.94230  0.05234  0.13125  1.0000 -0.4881544391
O   O32       1.0  0.05770  0.55234  0.36875  1.0000 -0.4881544391
O   O33       1.0  0.17980  0.00630  0.63776  1.0000 -0.4815254477
O   O34       1.0  0.82020  0.50630  0.86224  1.0000 -0.4815254477
O   O35       1.0  0.82020  0.99370  0.36224  1.0000 -0.4815254477
O   O36       1.0  0.17980  0.49370  0.13776  1.0000 -0.4815254477
O   O37       1.0  0.98790  0.79311  0.50258  1.0000 -0.4881544391
O   O38       1.0  0.01210  0.29311  0.99742  1.0000 -0.4881544391
O   O39       1.0  0.01210  0.20689  0.49742  1.0000 -0.4881544391
O   O40       1.0  0.98790  0.70689  0.00258  1.0000 -0.4881544391
O   O41       1.0  0.59762  0.10720  0.62100  1.0000 -0.4627122288
O   O42       1.0  0.40238  0.60720  0.87900  1.0000 -0.4627122288
O   O43       1.0  0.40238  0.89280  0.37900  1.0000 -0.4627122288
O   O44       1.0  0.59762  0.39280  0.12100  1.0000 -0.4627122288
O   O45       1.0  0.61136  0.11095  0.46346  1.0000 -0.4881544391
O   O46       1.0  0.38864  0.61095  0.03654  1.0000 -0.4881544391
O   O47       1.0  0.38864  0.88905  0.53654  1.0000 -0.4881544391
O   O48       1.0  0.61136  0.38905  0.96346  1.0000 -0.4881544391
