# DDEC6 charges by PACMAN v1.1 (https://github.com/mtap-research/PACMAN-charge/)
data_0000[Cu][nan]3[ASR]4
_chemical_formula_sum              "Cu18 H12 C12 Cl16 O4"
_cell_length_a       12.547
_cell_length_b       12.502
_cell_length_c       8.201
_cell_angle_alpha    75.93
_cell_angle_beta     82.21
_cell_angle_gamma    76.05

_symmetry_space_group_name_H-M    "P 1"
_symmetry_Int_Tables_number       1

loop_
  _symmetry_equiv_pos_as_xyz
  'x, y, z'

loop_
  _atom_site_type_symbol
  _atom_site_label
  _atom_site_symmetry_multiplicity
  _atom_site_fract_x
  _atom_site_fract_y
  _atom_site_fract_z
  _atom_site_occupancy
  _atom_site_charge
Cu  Cu1       1.0  0.37086  0.48877  0.16786  1.0000 0.4301818952
Cu  Cu2       1.0  0.21915  0.33775  0.27050  1.0000 0.4820312306
Cu  Cu3       1.0  0.38843  0.19820  0.15451  1.0000 0.2987345427
Cu  Cu4       1.0  0.52191  0.66545  0.05456  1.0000 0.2987345427
Cu  Cu5       1.0  0.43821  0.15429  0.50963  1.0000 0.4239912674
Cu  Cu6       1.0  0.50676  0.91056  0.16634  1.0000 0.4022656624
Cu  Cu7       1.0  0.32095  0.26781  0.76556  1.0000 0.2332100541
Cu  Cu8       1.0  0.41527  0.41487  0.58650  1.0000 0.4050727531
Cu  Cu9       1.0  0.11133  0.42953  0.57284  1.0000 0.5161221966
Cu  Cu10      1.0  0.62914  0.51123  0.83214  1.0000 0.4373427972
Cu  Cu11      1.0  0.78085  0.66225  0.72950  1.0000 0.4820312306
Cu  Cu12      1.0  0.61157  0.80180  0.84549  1.0000 0.2987345427
Cu  Cu13      1.0  0.47809  0.33415  0.94604  1.0000 0.2987345427
Cu  Cu14      1.0  0.56179  0.84571  0.49037  1.0000 0.4301818952
Cu  Cu15      1.0  0.49324  0.08944  0.83366  1.0000 0.4022656624
Cu  Cu16      1.0  0.67905  0.73219  0.23444  1.0000 0.2332100541
Cu  Cu17      1.0  0.58473  0.58513  0.41350  1.0000 0.4022656624
Cu  Cu18      1.0  0.88867  0.57047  0.42716  1.0000 0.5136507496
H   H1        1.0  0.21653  0.58463  0.85221  1.0000 0.0882474849
H   H2        1.0  0.11895  0.49620  0.91335  1.0000 0.062320438
H   H3        1.0  0.70320  0.07518  0.53703  1.0000 0.062320438
H   H4        1.0  0.67110  0.21826  0.41175  1.0000 0.073112604
H   H5        1.0  0.70005  0.23805  0.72168  1.0000 0.3493023857
H   H6        1.0  0.10889  0.59741  0.16782  1.0000 0.3438573822
H   H7        1.0  0.78347  0.41537  0.14779  1.0000 0.0882474849
H   H8        1.0  0.88105  0.50380  0.08665  1.0000 0.062320438
H   H9        1.0  0.29680  0.92482  0.46297  1.0000 0.062320438
H   H10       1.0  0.32890  0.78174  0.58825  1.0000 0.073112604
H   H11       1.0  0.29995  0.76195  0.27832  1.0000 0.3493023857
H   H12       1.0  0.89111  0.40259  0.83218  1.0000 0.3438573822
C   C1        1.0  0.33572  0.36087  0.06734  1.0000 -0.4385160461
C   C2        1.0  0.25336  0.45051  0.06159  1.0000 -0.0869016565
C   C3        1.0  0.17125  0.53969  0.96339  1.0000 0.0882474849
C   C4        1.0  0.46901  0.25257  0.67153  1.0000 -0.4614642814
C   C5        1.0  0.55729  0.18265  0.61942  1.0000 -0.0605895922
C   C6        1.0  0.67198  0.16556  0.54406  1.0000 0.1181637689
C   C7        1.0  0.66428  0.63913  0.93266  1.0000 -0.4456995979
C   C8        1.0  0.74664  0.54949  0.93841  1.0000 -0.0869016565
C   C9        1.0  0.82875  0.46031  0.03661  1.0000 0.0962555527
C   C10       1.0  0.53099  0.74743  0.32847  1.0000 -0.4614642814
C   C11       1.0  0.44271  0.81735  0.38058  1.0000 -0.0605895922
C   C12       1.0  0.32802  0.83444  0.45594  1.0000 0.1181637689
Cl  Cl1       1.0  0.54352  0.08388  0.28947  1.0000 -0.3702063218
Cl  Cl2       1.0  0.34344  0.68354  0.07120  1.0000 -0.3213707462
Cl  Cl3       1.0  0.35567  0.04921  0.04728  1.0000 -0.3022412762
Cl  Cl4       1.0  0.53210  0.44743  0.30249  1.0000 -0.3702063218
Cl  Cl5       1.0  0.14364  0.29780  0.81580  1.0000 -0.259553428
Cl  Cl6       1.0  0.26467  0.16531  0.44877  1.0000 -0.361415039
Cl  Cl7       1.0  0.03616  0.40006  0.35312  1.0000 -0.3873121098
Cl  Cl8       1.0  0.25360  0.52056  0.47025  1.0000 -0.4138071493
Cl  Cl9       1.0  0.45648  0.91612  0.71053  1.0000 -0.3702063218
Cl  Cl10      1.0  0.65656  0.31646  0.92880  1.0000 -0.3213707462
Cl  Cl11      1.0  0.64433  0.95079  0.95272  1.0000 -0.3022412762
Cl  Cl12      1.0  0.46790  0.55257  0.69751  1.0000 -0.375536646
Cl  Cl13      1.0  0.85636  0.70220  0.18420  1.0000 -0.259553428
Cl  Cl14      1.0  0.73533  0.83469  0.55123  1.0000 -0.361415039
Cl  Cl15      1.0  0.96384  0.59994  0.64688  1.0000 -0.3873121098
Cl  Cl16      1.0  0.74640  0.47944  0.52975  1.0000 -0.4160668507
O   O1        1.0  0.10517  0.62410  0.04563  1.0000 -0.4385160461
O   O2        1.0  0.74338  0.19579  0.63794  1.0000 -0.4044698581
O   O3        1.0  0.89483  0.37590  0.95437  1.0000 -0.4385160461
O   O4        1.0  0.25662  0.80421  0.36206  1.0000 -0.4044698581
