# DDEC6 charges by PACMAN v1.1 (https://github.com/mtap-research/PACMAN-charge/)
data_0000[Co][nan]3[ASR]14
_chemical_formula_sum              "Co6 H6 C24 O18"
_cell_length_a       15.1204
_cell_length_b       15.1204
_cell_length_c       15.1204
_cell_angle_alpha    117.786
_cell_angle_beta     117.786
_cell_angle_gamma    117.786

_symmetry_space_group_name_H-M    "P 1"
_symmetry_Int_Tables_number       1

loop_
  _symmetry_equiv_pos_as_xyz
  'x, y, z'

loop_
  _atom_site_type_symbol
  _atom_site_label
  _atom_site_symmetry_multiplicity
  _atom_site_fract_x
  _atom_site_fract_y
  _atom_site_fract_z
  _atom_site_occupancy
  _atom_site_charge
Co  Co1       1.0  0.89120  0.19320  0.60760  1.0000 0.9698562112
Co  Co2       1.0  0.19320  0.60760  0.89120  1.0000 0.9698562112
Co  Co3       1.0  0.60760  0.89120  0.19320  1.0000 0.9698562112
Co  Co4       1.0  0.19320  0.89120  0.60760  1.0000 0.9698562112
Co  Co5       1.0  0.89120  0.60760  0.19320  1.0000 0.9698562112
Co  Co6       1.0  0.60760  0.19320  0.89120  1.0000 0.9698562112
H   H1        1.0  0.74395  0.26110  0.74395  1.0000 0.1416022417
H   H2        1.0  0.26110  0.74395  0.74395  1.0000 0.1416022417
H   H3        1.0  0.74395  0.74395  0.26110  1.0000 0.1416022417
H   H4        1.0  0.46345  0.88610  0.46345  1.0000 0.1257947621
H   H5        1.0  0.88610  0.46345  0.46345  1.0000 0.1257947621
H   H6        1.0  0.46345  0.46345  0.88610  1.0000 0.1257947621
C   C1        1.0  0.05390  0.49590  0.96000  1.0000 0.3622198986
C   C2        1.0  0.49590  0.96000  0.05390  1.0000 0.3622198986
C   C3        1.0  0.96000  0.05390  0.49590  1.0000 0.3622198986
C   C4        1.0  0.49590  0.05390  0.96000  1.0000 0.3622198986
C   C5        1.0  0.05390  0.96000  0.49590  1.0000 0.3622198986
C   C6        1.0  0.96000  0.49590  0.05390  1.0000 0.3622198986
C   C7        1.0  0.91845  0.41910  0.91845  1.0000 -0.3331109
C   C8        1.0  0.41910  0.91845  0.91845  1.0000 -0.3331109
C   C9        1.0  0.91845  0.91845  0.41910  1.0000 -0.3331109
C   C10       1.0  0.27210  0.69090  0.17770  1.0000 -0.2163538052
C   C11       1.0  0.69090  0.17770  0.27210  1.0000 -0.2163538052
C   C12       1.0  0.17770  0.27210  0.69090  1.0000 -0.2163538052
C   C13       1.0  0.69090  0.27210  0.17770  1.0000 -0.2163538052
C   C14       1.0  0.27210  0.17770  0.69090  1.0000 -0.2163538052
C   C15       1.0  0.17770  0.69090  0.27210  1.0000 -0.2163538052
C   C16       1.0  0.43840  0.79970  0.25150  1.0000 0.6202911423
C   C17       1.0  0.79970  0.25150  0.43840  1.0000 0.6202911423
C   C18       1.0  0.25150  0.43840  0.79970  1.0000 0.6202911423
C   C19       1.0  0.79970  0.43840  0.25150  1.0000 0.6202911423
C   C20       1.0  0.43840  0.25150  0.79970  1.0000 0.6202911423
C   C21       1.0  0.25150  0.79970  0.43840  1.0000 0.6202911423
C   C22       1.0  0.31650  0.76000  0.31650  1.0000 -0.0564727461
C   C23       1.0  0.76000  0.31650  0.31650  1.0000 -0.0564727461
C   C24       1.0  0.31650  0.31650  0.76000  1.0000 -0.0564727461
O   O1        1.0  0.00440  0.42590  0.82390  1.0000 -0.5841984245
O   O2        1.0  0.42590  0.82390  0.00440  1.0000 -0.5853458855
O   O3        1.0  0.82390  0.00440  0.42590  1.0000 -0.5841984245
O   O4        1.0  0.42590  0.00440  0.82390  1.0000 -0.5841984245
O   O5        1.0  0.00440  0.82390  0.42590  1.0000 -0.5841984245
O   O6        1.0  0.82390  0.42590  0.00440  1.0000 -0.5841984245
O   O7        1.0  0.40250  0.74560  0.12880  1.0000 -0.5740368777
O   O8        1.0  0.74560  0.12880  0.40250  1.0000 -0.5740368777
O   O9        1.0  0.12880  0.40250  0.74560  1.0000 -0.5740368777
O   O10       1.0  0.74560  0.40250  0.12880  1.0000 -0.5740368777
O   O11       1.0  0.40250  0.12880  0.74560  1.0000 -0.5740368777
O   O12       1.0  0.12880  0.74560  0.40250  1.0000 -0.5740368777
O   O13       1.0  0.61530  0.94720  0.43620  1.0000 -0.5164935801
O   O14       1.0  0.94720  0.43620  0.61530  1.0000 -0.5164935801
O   O15       1.0  0.43620  0.61530  0.94720  1.0000 -0.5164935801
O   O16       1.0  0.94720  0.61530  0.43620  1.0000 -0.5164935801
O   O17       1.0  0.61530  0.43620  0.94720  1.0000 -0.5164935801
O   O18       1.0  0.43620  0.94720  0.61530  1.0000 -0.5164935801
