# DDEC6 charges by PACMAN v1.1 (https://github.com/mtap-research/PACMAN-charge/)
data_0000[Zn][nan]2[ASR]1
_chemical_formula_sum              "Zn4 H48 C92 N12 O24"
_cell_length_a       9.6312
_cell_length_b       18.828
_cell_length_c       15.965
_cell_angle_alpha    90
_cell_angle_beta     125.92
_cell_angle_gamma    90

_symmetry_space_group_name_H-M    "P 1"
_symmetry_Int_Tables_number       1

loop_
  _symmetry_equiv_pos_as_xyz
  'x, y, z'

loop_
  _atom_site_type_symbol
  _atom_site_label
  _atom_site_symmetry_multiplicity
  _atom_site_fract_x
  _atom_site_fract_y
  _atom_site_fract_z
  _atom_site_occupancy
  _atom_site_charge
Zn  Zn1       1.0  0.16607  0.60302  0.35758  1.0000 0.4924389714
Zn  Zn2       1.0  0.16607  0.89698  0.85758  1.0000 0.4924389714
Zn  Zn3       1.0  0.83393  0.10302  0.14242  1.0000 0.4924389714
Zn  Zn4       1.0  0.83393  0.39698  0.64242  1.0000 0.4924389714
H   H1        1.0  0.52830  0.53220  0.20140  1.0000 0.1232867777
H   H2        1.0  0.08770  0.70520  0.83930  1.0000 0.1273590784
H   H3        1.0  0.83070  0.55650  0.11490  1.0000 0.1114006223
H   H4        1.0  0.76630  0.50190  0.21640  1.0000 0.1273590784
H   H5        1.0  0.03100  0.66200  0.95780  1.0000 0.1412251164
H   H6        1.0  0.71840  0.75860  0.64420  1.0000 0.1232867777
H   H7        1.0  0.73780  0.77180  0.90160  1.0000 0.1479242141
H   H8        1.0  0.40850  0.63870  0.67550  1.0000 0.1412251164
H   H9        1.0  0.18000  0.47450  0.08820  1.0000 0.1412251164
H   H10       1.0  0.25310  0.66740  0.20540  1.0000 0.1412251164
H   H11       1.0  0.16270  0.47050  0.23630  1.0000 0.1412251164
H   H12       1.0  0.20620  0.59000  0.30280  1.0000 0.1412251164
H   H13       1.0  0.52830  0.96780  0.70140  1.0000 0.1232867777
H   H14       1.0  0.08770  0.79480  0.33930  1.0000 0.1273590784
H   H15       1.0  0.83070  0.94350  0.61490  1.0000 0.1114006223
H   H16       1.0  0.76630  0.99810  0.71640  1.0000 0.1273590784
H   H17       1.0  0.03100  0.83800  0.45780  1.0000 0.1412251164
H   H18       1.0  0.71840  0.74140  0.14420  1.0000 0.1273590784
H   H19       1.0  0.73780  0.72820  0.40160  1.0000 0.1479242141
H   H20       1.0  0.40850  0.86130  0.17550  1.0000 0.1412251164
H   H21       1.0  0.18000  0.02550  0.58820  1.0000 0.1412251164
H   H22       1.0  0.25310  0.83260  0.70540  1.0000 0.1412251164
H   H23       1.0  0.16270  0.02950  0.73630  1.0000 0.1412251164
H   H24       1.0  0.20620  0.91000  0.80280  1.0000 0.1412251164
H   H25       1.0  0.47170  0.03220  0.29860  1.0000 0.1232867777
H   H26       1.0  0.91230  0.20520  0.66070  1.0000 0.1273590784
H   H27       1.0  0.16930  0.05650  0.38510  1.0000 0.1114006223
H   H28       1.0  0.23370  0.00190  0.28360  1.0000 0.1273590784
H   H29       1.0  0.96900  0.16200  0.54220  1.0000 0.1412251164
H   H30       1.0  0.28160  0.25860  0.85580  1.0000 0.1232867777
H   H31       1.0  0.26220  0.27180  0.59840  1.0000 0.1479242141
H   H32       1.0  0.59150  0.13870  0.82450  1.0000 0.1412251164
H   H33       1.0  0.82000  0.97450  0.41180  1.0000 0.1412251164
H   H34       1.0  0.74690  0.16740  0.29460  1.0000 0.1412251164
H   H35       1.0  0.83730  0.97050  0.26370  1.0000 0.1412251164
H   H36       1.0  0.79380  0.09000  0.19720  1.0000 0.1412251164
H   H37       1.0  0.47170  0.46780  0.79860  1.0000 0.1232867777
H   H38       1.0  0.91230  0.29480  0.16070  1.0000 0.1273590784
H   H39       1.0  0.16930  0.44350  0.88510  1.0000 0.1114006223
H   H40       1.0  0.23370  0.49810  0.78360  1.0000 0.1273590784
H   H41       1.0  0.96900  0.33800  0.04220  1.0000 0.1412251164
H   H42       1.0  0.28160  0.24140  0.35580  1.0000 0.1232867777
H   H43       1.0  0.26220  0.22820  0.09840  1.0000 0.1479242141
H   H44       1.0  0.59150  0.36130  0.32450  1.0000 0.1412251164
H   H45       1.0  0.82000  0.52550  0.91180  1.0000 0.1412251164
H   H46       1.0  0.74690  0.33260  0.79460  1.0000 0.1412251164
H   H47       1.0  0.83730  0.52950  0.76370  1.0000 0.1412251164
H   H48       1.0  0.79380  0.41000  0.69720  1.0000 0.1412251164
C   C1        1.0  0.60410  0.60420  0.01690  1.0000 -0.0793252919
C   C2        1.0  0.41090  0.59210  0.06920  1.0000 0.0089970674
C   C3        1.0  0.54430  0.54940  0.15300  1.0000 -0.119596047
C   C4        1.0  0.44430  0.61980  0.99630  1.0000 0.0475115361
C   C5        1.0  0.25200  0.60980  0.04560  1.0000 0.1114006223
C   C6        1.0  0.32260  0.66210  0.91310  1.0000 -0.0625053203
C   C7        1.0  0.16860  0.67770  0.89590  1.0000 -0.042061453
C   C8        1.0  0.72350  0.56360  0.10110  1.0000 -0.0793252919
C   C9        1.0  0.68890  0.53340  0.16500  1.0000 -0.0746107554
C   C10       1.0  0.13300  0.65100  0.96670  1.0000 -0.1444384424
C   C11       1.0  0.35630  0.68900  0.83760  1.0000 0.4606423671
C   C12       1.0  0.64780  0.63420  0.95140  1.0000 0.4336447561
C   C13       1.0  0.56830  0.69920  0.79840  1.0000 0.1752859796
C   C14       1.0  0.74880  0.77410  0.77890  1.0000 -0.0031811366
C   C15       1.0  0.67670  0.74540  0.68170  1.0000 -0.119596047
C   C16       1.0  0.69250  0.75170  0.83710  1.0000 -0.1639976581
C   C17       1.0  0.54290  0.69690  0.63970  1.0000 0.0089970674
C   C18       1.0  0.49380  0.67310  0.70120  1.0000 -0.1784161931
C   C19       1.0  0.45720  0.66910  0.52950  1.0000 0.5429327036
C   C20       1.0  0.19000  0.51250  0.12870  1.0000 -0.1095853975
C   C21       1.0  0.22980  0.61900  0.19340  1.0000 0.1232867777
C   C22       1.0  0.18200  0.51100  0.21110  1.0000 -0.042061453
C   C23       1.0  0.89460  0.82760  0.82340  1.0000 0.5429327036
C   C24       1.0  0.60410  0.89580  0.51690  1.0000 -0.0793252919
C   C25       1.0  0.41090  0.90790  0.56920  1.0000 0.0089970674
C   C26       1.0  0.54430  0.95060  0.65300  1.0000 -0.119596047
C   C27       1.0  0.44430  0.88020  0.49630  1.0000 0.0475115361
C   C28       1.0  0.25200  0.89020  0.54560  1.0000 0.1114006223
C   C29       1.0  0.32260  0.83790  0.41310  1.0000 -0.0625053203
C   C30       1.0  0.16860  0.82230  0.39590  1.0000 -0.042061453
C   C31       1.0  0.72350  0.93640  0.60110  1.0000 -0.0793252919
C   C32       1.0  0.68890  0.96660  0.66500  1.0000 -0.0746107554
C   C33       1.0  0.13300  0.84900  0.46670  1.0000 -0.1444384424
C   C34       1.0  0.35630  0.81100  0.33760  1.0000 0.4606423671
C   C35       1.0  0.64780  0.86580  0.45140  1.0000 0.4336447561
C   C36       1.0  0.56830  0.80080  0.29840  1.0000 0.1752859796
C   C37       1.0  0.74880  0.72590  0.27890  1.0000 -0.0031811366
C   C38       1.0  0.67670  0.75460  0.18170  1.0000 -0.119596047
C   C39       1.0  0.69250  0.74830  0.33710  1.0000 -0.1639976581
C   C40       1.0  0.54290  0.80310  0.13970  1.0000 0.0089970674
C   C41       1.0  0.49380  0.82690  0.20120  1.0000 -0.1784161931
C   C42       1.0  0.45720  0.83090  0.02950  1.0000 0.5429327036
C   C43       1.0  0.19000  0.98750  0.62870  1.0000 -0.1095853975
C   C44       1.0  0.22980  0.88100  0.69340  1.0000 0.1232867777
C   C45       1.0  0.18200  0.98900  0.71110  1.0000 -0.0452478534
C   C46       1.0  0.89460  0.67240  0.32340  1.0000 0.5429327036
C   C47       1.0  0.39590  0.10420  0.48310  1.0000 -0.0793252919
C   C48       1.0  0.58910  0.09210  0.43080  1.0000 0.0089970674
C   C49       1.0  0.45570  0.04940  0.34700  1.0000 -0.119596047
C   C50       1.0  0.55570  0.11980  0.50370  1.0000 0.0475115361
C   C51       1.0  0.74800  0.10980  0.45440  1.0000 0.1114006223
C   C52       1.0  0.67740  0.16210  0.58690  1.0000 -0.0625053203
C   C53       1.0  0.83140  0.17770  0.60410  1.0000 -0.042061453
C   C54       1.0  0.27650  0.06360  0.39890  1.0000 -0.0793252919
C   C55       1.0  0.31110  0.03340  0.33500  1.0000 -0.0746107554
C   C56       1.0  0.86700  0.15100  0.53330  1.0000 -0.1444384424
C   C57       1.0  0.64370  0.18900  0.66240  1.0000 0.4606423671
C   C58       1.0  0.35220  0.13420  0.54860  1.0000 0.4336447561
C   C59       1.0  0.43170  0.19920  0.70160  1.0000 0.1752859796
C   C60       1.0  0.25120  0.27410  0.72110  1.0000 -0.0031811366
C   C61       1.0  0.32330  0.24540  0.81830  1.0000 -0.119596047
C   C62       1.0  0.30750  0.25170  0.66290  1.0000 -0.1639976581
C   C63       1.0  0.45710  0.19690  0.86030  1.0000 0.0089970674
C   C64       1.0  0.50620  0.17310  0.79880  1.0000 -0.1784161931
C   C65       1.0  0.54280  0.16910  0.97050  1.0000 0.5429327036
C   C66       1.0  0.81000  0.01250  0.37130  1.0000 -0.1095853975
C   C67       1.0  0.77020  0.11900  0.30660  1.0000 0.1232867777
C   C68       1.0  0.81800  0.01100  0.28890  1.0000 -0.042061453
C   C69       1.0  0.10540  0.32760  0.67660  1.0000 0.5429327036
C   C70       1.0  0.39590  0.39580  0.98310  1.0000 -0.0793252919
C   C71       1.0  0.58910  0.40790  0.93080  1.0000 0.0089970674
C   C72       1.0  0.45570  0.45060  0.84700  1.0000 -0.119596047
C   C73       1.0  0.55570  0.38020  0.00370  1.0000 0.0475115361
C   C74       1.0  0.74800  0.39020  0.95440  1.0000 0.1114006223
C   C75       1.0  0.67740  0.33790  0.08690  1.0000 -0.0625053203
C   C76       1.0  0.83140  0.32230  0.10410  1.0000 -0.042061453
C   C77       1.0  0.27650  0.43640  0.89890  1.0000 -0.0793252919
C   C78       1.0  0.31110  0.46660  0.83500  1.0000 -0.0746107554
C   C79       1.0  0.86700  0.34900  0.03330  1.0000 -0.1444384424
C   C80       1.0  0.64370  0.31100  0.16240  1.0000 0.4606423671
C   C81       1.0  0.35220  0.36580  0.04860  1.0000 0.4336447561
C   C82       1.0  0.43170  0.30080  0.20160  1.0000 0.1752859796
C   C83       1.0  0.25120  0.22590  0.22110  1.0000 -0.0031811366
C   C84       1.0  0.32330  0.25460  0.31830  1.0000 -0.119596047
C   C85       1.0  0.30750  0.24830  0.16290  1.0000 -0.1639976581
C   C86       1.0  0.45710  0.30310  0.36030  1.0000 0.0089970674
C   C87       1.0  0.50620  0.32690  0.29880  1.0000 -0.1784161931
C   C88       1.0  0.54280  0.33090  0.47050  1.0000 0.5429327036
C   C89       1.0  0.81000  0.48750  0.87130  1.0000 -0.1095853975
C   C90       1.0  0.77020  0.38100  0.80660  1.0000 0.1232867777
C   C91       1.0  0.81800  0.48900  0.78890  1.0000 -0.0452478534
C   C92       1.0  0.10540  0.17240  0.17660  1.0000 0.5429327036
N   N1        1.0  0.52230  0.67210  0.86440  1.0000 -0.2208570359
N   N2        1.0  0.21690  0.58500  0.11860  1.0000 0.0089970674
N   N3        1.0  0.20630  0.57750  0.25100  1.0000 -0.1938332511
N   N4        1.0  0.52230  0.82790  0.36440  1.0000 -0.2208570359
N   N5        1.0  0.21690  0.91500  0.61860  1.0000 0.0089970674
N   N6        1.0  0.20630  0.92250  0.75100  1.0000 -0.1938332511
N   N7        1.0  0.47770  0.17210  0.63560  1.0000 -0.2208570359
N   N8        1.0  0.78310  0.08500  0.38140  1.0000 0.0089970674
N   N9        1.0  0.79370  0.07750  0.24900  1.0000 -0.1938332511
N   N10       1.0  0.47770  0.32790  0.13560  1.0000 -0.2208570359
N   N11       1.0  0.78310  0.41500  0.88140  1.0000 0.0089970674
N   N12       1.0  0.79370  0.42250  0.74900  1.0000 -0.1938332511
O   O1        1.0  0.25840  0.72160  0.76200  1.0000 -0.3986684909
O   O2        1.0  0.78870  0.62550  0.97000  1.0000 -0.4407556808
O   O3        1.0  0.33770  0.62650  0.50040  1.0000 -0.505204097
O   O4        1.0  0.50630  0.69050  0.47950  1.0000 -0.5387946522
O   O5        1.0  0.97240  0.83190  0.78240  1.0000 -0.5239556437
O   O6        1.0  0.92550  0.86560  0.89580  1.0000 -0.5239556437
O   O7        1.0  0.25840  0.77840  0.26200  1.0000 -0.3986684909
O   O8        1.0  0.78870  0.87450  0.47000  1.0000 -0.4407556808
O   O9        1.0  0.33770  0.87350  0.00040  1.0000 -0.505204097
O   O10       1.0  0.50630  0.80950  0.97950  1.0000 -0.5387946522
O   O11       1.0  0.97240  0.66810  0.28240  1.0000 -0.5239556437
O   O12       1.0  0.92550  0.63440  0.39580  1.0000 -0.5239556437
O   O13       1.0  0.74160  0.22160  0.73800  1.0000 -0.3986684909
O   O14       1.0  0.21130  0.12550  0.53000  1.0000 -0.4407556808
O   O15       1.0  0.66230  0.12650  0.99960  1.0000 -0.5046736157
O   O16       1.0  0.49370  0.19050  0.02050  1.0000 -0.5387946522
O   O17       1.0  0.02760  0.33190  0.71760  1.0000 -0.5239556437
O   O18       1.0  0.07450  0.36560  0.60420  1.0000 -0.5239556437
O   O19       1.0  0.74160  0.27840  0.23800  1.0000 -0.3986684909
O   O20       1.0  0.21130  0.37450  0.03000  1.0000 -0.4407556808
O   O21       1.0  0.66230  0.37350  0.49960  1.0000 -0.5046736157
O   O22       1.0  0.49370  0.30950  0.52050  1.0000 -0.5387946522
O   O23       1.0  0.02760  0.16810  0.21760  1.0000 -0.5239556437
O   O24       1.0  0.07450  0.13440  0.10420  1.0000 -0.5239556437
