# DDEC6 charges by PACMAN v1.1 (https://github.com/mtap-research/PACMAN-charge/)
data_0000[SiCu][pcu]3[ASR]1
_chemical_formula_sum              "Cu2 Si2 H32 C48 N8 F12"
_cell_length_a       13.715
_cell_length_b       13.715
_cell_length_c       7.95226
_cell_angle_alpha    90
_cell_angle_beta     90
_cell_angle_gamma    90

_symmetry_space_group_name_H-M    "P 1"
_symmetry_Int_Tables_number       1

loop_
  _symmetry_equiv_pos_as_xyz
  'x, y, z'

loop_
  _atom_site_type_symbol
  _atom_site_label
  _atom_site_symmetry_multiplicity
  _atom_site_fract_x
  _atom_site_fract_y
  _atom_site_fract_z
  _atom_site_occupancy
  _atom_site_charge
Cu  Cu1       1.0  0.00000  0.00000  0.00000  1.0000 0.7008121303
Cu  Cu2       1.0  0.50000  0.50000  0.50000  1.0000 0.7008121303
Si  Si1       1.0  0.00000  0.00000  0.50000  1.0000 1.7170461706
Si  Si2       1.0  0.50000  0.50000  0.00000  1.0000 1.7170461706
H   H1        1.0  0.00000  0.15554  0.26367  1.0000 0.1131803832
H   H2        1.0  0.00000  0.84446  0.73633  1.0000 0.1131803832
H   H3        1.0  0.00000  0.84446  0.26367  1.0000 0.1131803832
H   H4        1.0  0.00000  0.15554  0.73633  1.0000 0.1131803832
H   H5        1.0  0.84446  0.00000  0.26367  1.0000 0.1131803832
H   H6        1.0  0.15554  0.00000  0.73633  1.0000 0.1131803832
H   H7        1.0  0.15554  0.00000  0.26367  1.0000 0.1131803832
H   H8        1.0  0.84446  0.00000  0.73633  1.0000 0.1131803832
H   H9        1.0  0.50000  0.65554  0.76367  1.0000 0.1131803832
H   H10       1.0  0.50000  0.34446  0.23633  1.0000 0.1131803832
H   H11       1.0  0.50000  0.34446  0.76367  1.0000 0.1131803832
H   H12       1.0  0.50000  0.65554  0.23633  1.0000 0.1131803832
H   H13       1.0  0.34446  0.50000  0.76367  1.0000 0.1131803832
H   H14       1.0  0.65554  0.50000  0.23633  1.0000 0.1131803832
H   H15       1.0  0.65554  0.50000  0.76367  1.0000 0.1131803832
H   H16       1.0  0.34446  0.50000  0.23633  1.0000 0.1131803832
H   H17       1.0  0.00000  0.33772  0.27355  1.0000 0.1185177891
H   H18       1.0  0.00000  0.66228  0.72645  1.0000 0.1185177891
H   H19       1.0  0.00000  0.66228  0.27355  1.0000 0.1185177891
H   H20       1.0  0.00000  0.33772  0.72645  1.0000 0.1185177891
H   H21       1.0  0.66228  0.00000  0.27355  1.0000 0.1185177891
H   H22       1.0  0.33772  0.00000  0.72645  1.0000 0.1185177891
H   H23       1.0  0.33772  0.00000  0.27355  1.0000 0.1185177891
H   H24       1.0  0.66228  0.00000  0.72645  1.0000 0.1185177891
H   H25       1.0  0.50000  0.83772  0.77355  1.0000 0.1185177891
H   H26       1.0  0.50000  0.16228  0.22645  1.0000 0.1185177891
H   H27       1.0  0.50000  0.16228  0.77355  1.0000 0.1185177891
H   H28       1.0  0.50000  0.83772  0.22645  1.0000 0.1185177891
H   H29       1.0  0.16228  0.50000  0.77355  1.0000 0.1185177891
H   H30       1.0  0.83772  0.50000  0.22645  1.0000 0.1185177891
H   H31       1.0  0.83772  0.50000  0.77355  1.0000 0.1185177891
H   H32       1.0  0.16228  0.50000  0.22645  1.0000 0.1185177891
C   C1        1.0  0.00000  0.19878  0.14734  1.0000 0.1045029309
C   C2        1.0  0.00000  0.80122  0.85266  1.0000 0.1045029309
C   C3        1.0  0.00000  0.80122  0.14734  1.0000 0.1045029309
C   C4        1.0  0.00000  0.19878  0.85266  1.0000 0.1045029309
C   C5        1.0  0.80122  0.00000  0.14734  1.0000 0.1045029309
C   C6        1.0  0.19878  0.00000  0.85266  1.0000 0.1045029309
C   C7        1.0  0.19878  0.00000  0.14734  1.0000 0.1045029309
C   C8        1.0  0.80122  0.00000  0.85266  1.0000 0.1045029309
C   C9        1.0  0.50000  0.69878  0.64734  1.0000 0.1045029309
C   C10       1.0  0.50000  0.30122  0.35266  1.0000 0.1045029309
C   C11       1.0  0.50000  0.30122  0.64734  1.0000 0.1045029309
C   C12       1.0  0.50000  0.69878  0.35266  1.0000 0.1045029309
C   C13       1.0  0.30122  0.50000  0.64734  1.0000 0.1045029309
C   C14       1.0  0.69878  0.50000  0.35266  1.0000 0.1045029309
C   C15       1.0  0.69878  0.50000  0.64734  1.0000 0.1045029309
C   C16       1.0  0.30122  0.50000  0.35266  1.0000 0.1045029309
C   C17       1.0  0.00000  0.30014  0.15197  1.0000 -0.1596169257
C   C18       1.0  0.00000  0.69986  0.84803  1.0000 -0.1596169257
C   C19       1.0  0.00000  0.69986  0.15197  1.0000 -0.1596169257
C   C20       1.0  0.00000  0.30014  0.84803  1.0000 -0.1596169257
C   C21       1.0  0.69986  0.00000  0.15197  1.0000 -0.1596169257
C   C22       1.0  0.30014  0.00000  0.84803  1.0000 -0.1596169257
C   C23       1.0  0.30014  0.00000  0.15197  1.0000 -0.1596169257
C   C24       1.0  0.69986  0.00000  0.84803  1.0000 -0.1596169257
C   C25       1.0  0.50000  0.80014  0.65197  1.0000 -0.1596169257
C   C26       1.0  0.50000  0.19986  0.34803  1.0000 -0.1596169257
C   C27       1.0  0.50000  0.19986  0.65197  1.0000 -0.1596169257
C   C28       1.0  0.50000  0.80014  0.34803  1.0000 -0.1596169257
C   C29       1.0  0.19986  0.50000  0.65197  1.0000 -0.1596169257
C   C30       1.0  0.80014  0.50000  0.34803  1.0000 -0.1596169257
C   C31       1.0  0.80014  0.50000  0.65197  1.0000 -0.1596169257
C   C32       1.0  0.19986  0.50000  0.34803  1.0000 -0.1596169257
C   C33       1.0  0.00000  0.64699  0.00000  1.0000 0.1569795004
C   C34       1.0  0.00000  0.35301  0.00000  1.0000 0.1569795004
C   C35       1.0  0.35301  0.00000  0.00000  1.0000 0.1569795004
C   C36       1.0  0.64699  0.00000  0.00000  1.0000 0.1569795004
C   C37       1.0  0.50000  0.14699  0.50000  1.0000 0.1569795004
C   C38       1.0  0.50000  0.85301  0.50000  1.0000 0.1569795004
C   C39       1.0  0.85301  0.50000  0.50000  1.0000 0.1569795004
C   C40       1.0  0.14699  0.50000  0.50000  1.0000 0.1569795004
C   C41       1.0  0.00000  0.54441  0.00000  1.0000 -0.0888474266
C   C42       1.0  0.00000  0.45559  0.00000  1.0000 -0.0888474266
C   C43       1.0  0.45559  0.00000  0.00000  1.0000 -0.0888474266
C   C44       1.0  0.54441  0.00000  0.00000  1.0000 -0.0888474266
C   C45       1.0  0.50000  0.04441  0.50000  1.0000 -0.0888474266
C   C46       1.0  0.50000  0.95559  0.50000  1.0000 -0.0888474266
C   C47       1.0  0.95559  0.50000  0.50000  1.0000 -0.0888474266
C   C48       1.0  0.04441  0.50000  0.50000  1.0000 -0.0888474266
N   N1        1.0  0.00000  0.14821  0.00000  1.0000 -0.2241045841
N   N2        1.0  0.00000  0.85179  0.00000  1.0000 -0.2241045841
N   N3        1.0  0.85179  0.00000  0.00000  1.0000 -0.2241045841
N   N4        1.0  0.14821  0.00000  0.00000  1.0000 -0.2241045841
N   N5        1.0  0.50000  0.64821  0.50000  1.0000 -0.2241045841
N   N6        1.0  0.50000  0.35179  0.50000  1.0000 -0.2241045841
N   N7        1.0  0.35179  0.50000  0.50000  1.0000 -0.2241045841
N   N8        1.0  0.64821  0.50000  0.50000  1.0000 -0.2241045841
F   F1        1.0  0.00000  0.00000  0.28290  1.0000 -0.5221361527
F   F2        1.0  0.00000  0.00000  0.71710  1.0000 -0.5221361527
F   F3        1.0  0.50000  0.50000  0.78290  1.0000 -0.5221361527
F   F4        1.0  0.50000  0.50000  0.21710  1.0000 -0.5221361527
F   F5        1.0  0.08790  0.08790  0.50000  1.0000 -0.5405923435
F   F6        1.0  0.91210  0.91210  0.50000  1.0000 -0.5405923435
F   F7        1.0  0.91210  0.08790  0.50000  1.0000 -0.5405923435
F   F8        1.0  0.08790  0.91210  0.50000  1.0000 -0.5405923435
F   F9        1.0  0.58790  0.58790  0.00000  1.0000 -0.5405923435
F   F10       1.0  0.41210  0.41210  0.00000  1.0000 -0.5405923435
F   F11       1.0  0.41210  0.58790  0.00000  1.0000 -0.5405923435
F   F12       1.0  0.58790  0.41210  0.00000  1.0000 -0.5405923435
