# DDEC6 charges by PACMAN v1.1 (https://github.com/mtap-research/PACMAN-charge/)
data_0000[Zn][nan]3[ASR]11
_chemical_formula_sum              "Zn8 H96 C144 N24 O40"
_cell_length_a       19.6626
_cell_length_b       19.6626
_cell_length_c       26.423
_cell_angle_alpha    55.7505
_cell_angle_beta     124.25
_cell_angle_gamma    150.508

_symmetry_space_group_name_H-M    "P 1"
_symmetry_Int_Tables_number       1

loop_
  _symmetry_equiv_pos_as_xyz
  'x, y, z'

loop_
  _atom_site_type_symbol
  _atom_site_label
  _atom_site_symmetry_multiplicity
  _atom_site_fract_x
  _atom_site_fract_y
  _atom_site_fract_z
  _atom_site_occupancy
  _atom_site_charge
Zn  Zn1       1.0  0.49487  0.16955  0.70840  1.0000 0.8334753964
Zn  Zn2       1.0  0.16955  0.49487  0.79160  1.0000 0.8334753964
Zn  Zn3       1.0  0.50513  0.83045  0.29160  1.0000 0.8334753964
Zn  Zn4       1.0  0.83045  0.50513  0.20840  1.0000 0.8334753964
Zn  Zn5       1.0  0.14954  0.92172  0.58442  1.0000 0.8445455584
Zn  Zn6       1.0  0.92172  0.14954  0.91558  1.0000 0.8445455584
Zn  Zn7       1.0  0.85046  0.07828  0.41558  1.0000 0.8445455584
Zn  Zn8       1.0  0.07828  0.85046  0.08442  1.0000 0.8445455584
H   H1        1.0  0.46080  0.56220  0.89010  1.0000 0.1299881672
H   H2        1.0  0.56220  0.46080  0.60990  1.0000 0.1299881672
H   H3        1.0  0.53920  0.43780  0.10990  1.0000 0.1299881672
H   H4        1.0  0.43780  0.53920  0.39010  1.0000 0.1299881672
H   H5        1.0  0.55390  0.39590  0.99080  1.0000 0.1414034192
H   H6        1.0  0.39590  0.55390  0.50920  1.0000 0.1414034192
H   H7        1.0  0.44610  0.60410  0.00920  1.0000 0.1414034192
H   H8        1.0  0.60410  0.44610  0.49080  1.0000 0.1414034192
H   H9        1.0  0.19190  0.17750  0.99420  1.0000 0.1299881672
H   H10       1.0  0.17750  0.19190  0.50580  1.0000 0.1299881672
H   H11       1.0  0.80810  0.82250  0.00580  1.0000 0.1299881672
H   H12       1.0  0.82250  0.80810  0.49420  1.0000 0.1299881672
H   H13       1.0  0.63430  0.69790  0.83820  1.0000 0.1100430716
H   H14       1.0  0.69790  0.63430  0.66180  1.0000 0.1100430716
H   H15       1.0  0.36570  0.30210  0.16180  1.0000 0.1100430716
H   H16       1.0  0.30210  0.36570  0.33820  1.0000 0.1100430716
H   H17       1.0  0.69900  0.76360  0.89210  1.0000 0.1100430716
H   H18       1.0  0.76360  0.69900  0.60790  1.0000 0.1100430716
H   H19       1.0  0.30100  0.23640  0.10790  1.0000 0.1100430716
H   H20       1.0  0.23640  0.30100  0.39210  1.0000 0.1100430716
H   H21       1.0  0.79920  0.73000  0.83750  1.0000 0.1414034192
H   H22       1.0  0.73000  0.79920  0.66250  1.0000 0.1414034192
H   H23       1.0  0.20080  0.27000  0.16250  1.0000 0.1414034192
H   H24       1.0  0.27000  0.20080  0.33750  1.0000 0.1414034192
H   H25       1.0  0.19820  0.12120  0.84470  1.0000 0.1198412199
H   H26       1.0  0.12120  0.19820  0.65530  1.0000 0.1198412199
H   H27       1.0  0.80180  0.87880  0.15530  1.0000 0.1198412199
H   H28       1.0  0.87880  0.80180  0.34470  1.0000 0.1198412199
H   H29       1.0  0.15770  0.16850  0.87570  1.0000 0.1198412199
H   H30       1.0  0.16850  0.15770  0.62430  1.0000 0.1198412199
H   H31       1.0  0.84230  0.83150  0.12430  1.0000 0.1198412199
H   H32       1.0  0.83150  0.84230  0.37570  1.0000 0.1198412199
H   H33       1.0  0.93190  0.99250  0.89130  1.0000 0.1299881672
H   H34       1.0  0.99250  0.93190  0.60870  1.0000 0.1299881672
H   H35       1.0  0.06810  0.00750  0.10870  1.0000 0.1299881672
H   H36       1.0  0.00750  0.06810  0.39130  1.0000 0.1299881672
H   H37       1.0  0.12130  0.93070  0.84590  1.0000 0.1100430716
H   H38       1.0  0.93070  0.12130  0.65410  1.0000 0.1100430716
H   H39       1.0  0.87870  0.06930  0.15410  1.0000 0.1100430716
H   H40       1.0  0.06930  0.87870  0.34590  1.0000 0.1100430716
H   H41       1.0  0.06650  0.95710  0.77670  1.0000 0.1100430716
H   H42       1.0  0.95710  0.06650  0.72330  1.0000 0.1100430716
H   H43       1.0  0.93350  0.04290  0.22330  1.0000 0.1100430716
H   H44       1.0  0.04290  0.93350  0.27670  1.0000 0.1100430716
H   H45       1.0  0.74390  0.52930  0.78740  1.0000 0.1506198201
H   H46       1.0  0.52930  0.74390  0.71260  1.0000 0.1506198201
H   H47       1.0  0.25610  0.47070  0.21260  1.0000 0.1506198201
H   H48       1.0  0.47070  0.25610  0.28740  1.0000 0.1506198201
H   H49       1.0  0.95220  0.64040  0.70130  1.0000 0.1414034192
H   H50       1.0  0.64040  0.95220  0.79870  1.0000 0.1414034192
H   H51       1.0  0.04780  0.35960  0.29870  1.0000 0.1414034192
H   H52       1.0  0.35960  0.04780  0.20130  1.0000 0.1414034192
H   H53       1.0  0.14560  0.92420  0.77360  1.0000 0.1198412199
H   H54       1.0  0.92420  0.14560  0.72640  1.0000 0.1198412199
H   H55       1.0  0.85440  0.07580  0.22640  1.0000 0.1198412199
H   H56       1.0  0.07580  0.85440  0.27360  1.0000 0.1198412199
H   H57       1.0  0.37490  0.91550  0.71600  1.0000 0.1198412199
H   H58       1.0  0.91550  0.37490  0.78400  1.0000 0.1198412199
H   H59       1.0  0.62510  0.08450  0.28400  1.0000 0.1198412199
H   H60       1.0  0.08450  0.62510  0.21600  1.0000 0.1198412199
H   H61       1.0  0.38560  0.85040  0.67520  1.0000 0.1414034192
H   H62       1.0  0.85040  0.38560  0.82480  1.0000 0.1414034192
H   H63       1.0  0.61440  0.14960  0.32480  1.0000 0.1414034192
H   H64       1.0  0.14960  0.61440  0.17520  1.0000 0.1414034192
H   H65       1.0  0.68320  0.24740  0.58350  1.0000 0.1299881672
H   H66       1.0  0.24740  0.68320  0.91650  1.0000 0.1299881672
H   H67       1.0  0.31680  0.75260  0.41650  1.0000 0.1299881672
H   H68       1.0  0.75260  0.31680  0.08350  1.0000 0.1299881672
H   H69       1.0  0.64490  0.29130  0.62230  1.0000 0.1299881672
H   H70       1.0  0.29130  0.64490  0.87770  1.0000 0.1299881672
H   H71       1.0  0.35510  0.70870  0.37770  1.0000 0.1299881672
H   H72       1.0  0.70870  0.35510  0.12230  1.0000 0.1299881672
H   H73       1.0  0.54490  0.81330  0.54860  1.0000 0.1414034192
H   H74       1.0  0.81330  0.54490  0.95140  1.0000 0.1414034192
H   H75       1.0  0.45510  0.18670  0.45140  1.0000 0.1414034192
H   H76       1.0  0.18670  0.45510  0.04860  1.0000 0.1414034192
H   H77       1.0  0.64570  0.85590  0.49760  1.0000 0.1100430716
H   H78       1.0  0.85590  0.64570  0.00240  1.0000 0.1100430716
H   H79       1.0  0.35430  0.14410  0.50240  1.0000 0.1100430716
H   H80       1.0  0.14410  0.35430  0.99760  1.0000 0.1100430716
H   H81       1.0  0.91280  0.25260  0.45080  1.0000 0.1198412199
H   H82       1.0  0.25260  0.91280  0.04920  1.0000 0.1198412199
H   H83       1.0  0.08720  0.74740  0.54920  1.0000 0.1198412199
H   H84       1.0  0.74740  0.08720  0.95080  1.0000 0.1198412199
H   H85       1.0  0.82670  0.22190  0.50420  1.0000 0.1299881672
H   H86       1.0  0.22190  0.82670  0.99580  1.0000 0.1299881672
H   H87       1.0  0.17330  0.77810  0.49580  1.0000 0.1299881672
H   H88       1.0  0.77810  0.17330  0.00420  1.0000 0.1299881672
H   H89       1.0  0.81790  0.25670  0.60710  1.0000 0.2758983228
H   H90       1.0  0.25670  0.81790  0.89290  1.0000 0.2758983228
H   H91       1.0  0.18210  0.74330  0.39290  1.0000 0.2758983228
H   H92       1.0  0.74330  0.18210  0.10710  1.0000 0.2758983228
H   H93       1.0  0.85200  0.24720  0.57530  1.0000 0.267920867
H   H94       1.0  0.24720  0.85200  0.92470  1.0000 0.267920867
H   H95       1.0  0.14800  0.75280  0.42470  1.0000 0.267920867
H   H96       1.0  0.75280  0.14800  0.07530  1.0000 0.267920867
C   C1        1.0  0.20871  0.35029  0.91580  1.0000 0.5799500499
C   C2        1.0  0.35029  0.20871  0.58420  1.0000 0.5799500499
C   C3        1.0  0.79129  0.64971  0.08420  1.0000 0.5799500499
C   C4        1.0  0.64971  0.79129  0.41580  1.0000 0.5799500499
C   C5        1.0  0.31116  0.36664  0.93880  1.0000 -0.0161589781
C   C6        1.0  0.36664  0.31116  0.56120  1.0000 -0.0161589781
C   C7        1.0  0.68884  0.63336  0.06120  1.0000 -0.0161589781
C   C8        1.0  0.63336  0.68884  0.43880  1.0000 -0.0161589781
C   C9        1.0  0.43755  0.48885  0.91750  1.0000 -0.2317516428
C   C10       1.0  0.48885  0.43755  0.58250  1.0000 -0.2317516428
C   C11       1.0  0.56245  0.51115  0.08250  1.0000 -0.2317516428
C   C12       1.0  0.51115  0.56245  0.41750  1.0000 -0.2317516428
C   C13       1.0  0.52940  0.50000  0.93790  1.0000 0.2461424324
C   C14       1.0  0.50000  0.52940  0.56210  1.0000 0.2461424324
C   C15       1.0  0.47060  0.50000  0.06210  1.0000 0.2461424324
C   C16       1.0  0.50000  0.47060  0.43790  1.0000 0.2461424324
C   C17       1.0  0.49385  0.38935  0.97820  1.0000 -0.2210849632
C   C18       1.0  0.38935  0.49385  0.52180  1.0000 -0.2210849632
C   C19       1.0  0.50615  0.61065  0.02180  1.0000 -0.2210849632
C   C20       1.0  0.61065  0.50615  0.47820  1.0000 -0.2210849632
C   C21       1.0  0.36577  0.26763  0.99950  1.0000 -0.0079429527
C   C22       1.0  0.26763  0.36577  0.50050  1.0000 -0.0079429527
C   C23       1.0  0.63423  0.73237  0.00050  1.0000 -0.0079429527
C   C24       1.0  0.73237  0.63423  0.49950  1.0000 -0.0079429527
C   C25       1.0  0.27626  0.25794  0.97970  1.0000 -0.1496586573
C   C26       1.0  0.25794  0.27626  0.52030  1.0000 -0.1496586573
C   C27       1.0  0.72374  0.74206  0.02030  1.0000 -0.1496586573
C   C28       1.0  0.74206  0.72374  0.47970  1.0000 -0.1496586573
C   C29       1.0  0.32090  0.14430  0.04020  1.0000 0.5620962087
C   C30       1.0  0.14430  0.32090  0.45980  1.0000 0.5620962087
C   C31       1.0  0.67910  0.85570  0.95980  1.0000 0.5620962087
C   C32       1.0  0.85570  0.67910  0.54020  1.0000 0.5620962087
C   C33       1.0  0.69950  0.72870  0.87740  1.0000 -0.0640067613
C   C34       1.0  0.72870  0.69950  0.62260  1.0000 -0.0640067613
C   C35       1.0  0.30050  0.27130  0.12260  1.0000 -0.0640067613
C   C36       1.0  0.27130  0.30050  0.37740  1.0000 -0.0640067613
C   C37       1.0  0.84480  0.84180  0.86880  1.0000 0.0974248763
C   C38       1.0  0.84180  0.84480  0.63120  1.0000 0.0974248763
C   C39       1.0  0.15520  0.15820  0.13120  1.0000 0.0974248763
C   C40       1.0  0.15820  0.15520  0.36880  1.0000 0.0974248763
C   C41       1.0  0.87220  0.81760  0.84680  1.0000 -0.187928531
C   C42       1.0  0.81760  0.87220  0.65320  1.0000 -0.187928531
C   C43       1.0  0.12780  0.18240  0.15320  1.0000 -0.187928531
C   C44       1.0  0.18240  0.12780  0.34680  1.0000 -0.187928531
C   C45       1.0  0.00480  0.92060  0.83890  1.0000 0.0785543899
C   C46       1.0  0.92060  0.00480  0.66110  1.0000 0.0785543899
C   C47       1.0  0.99520  0.07940  0.16110  1.0000 0.0785543899
C   C48       1.0  0.07940  0.99520  0.33890  1.0000 0.0785543899
C   C49       1.0  0.10810  0.05010  0.85020  1.0000 -0.1705077902
C   C50       1.0  0.05010  0.10810  0.64980  1.0000 -0.1705077902
C   C51       1.0  0.89190  0.94990  0.14980  1.0000 -0.1705077902
C   C52       1.0  0.94990  0.89190  0.35020  1.0000 -0.1705077902
C   C53       1.0  0.08450  0.07850  0.86900  1.0000 -0.07281718
C   C54       1.0  0.07850  0.08450  0.63100  1.0000 -0.07281718
C   C55       1.0  0.91550  0.92150  0.13100  1.0000 -0.07281718
C   C56       1.0  0.92150  0.91550  0.36900  1.0000 -0.07281718
C   C57       1.0  0.94920  0.97320  0.87870  1.0000 -0.1496586573
C   C58       1.0  0.97320  0.94920  0.62130  1.0000 -0.1496586573
C   C59       1.0  0.05080  0.02680  0.12130  1.0000 -0.1496586573
C   C60       1.0  0.02680  0.05080  0.37870  1.0000 -0.1496586573
C   C61       1.0  0.04070  0.89970  0.81750  1.0000 -0.0750177424
C   C62       1.0  0.89970  0.04070  0.68250  1.0000 -0.07281718
C   C63       1.0  0.95930  0.10030  0.18250  1.0000 -0.07281718
C   C64       1.0  0.10030  0.95930  0.31750  1.0000 -0.0750177424
C   C65       1.0  0.94400  0.73260  0.78470  1.0000 0.2290677059
C   C66       1.0  0.73260  0.94400  0.71530  1.0000 0.2290677059
C   C67       1.0  0.05600  0.26740  0.21530  1.0000 0.2290677059
C   C68       1.0  0.26740  0.05600  0.28470  1.0000 0.2290677059
C   C69       1.0  0.82540  0.59640  0.77410  1.0000 -0.2210849632
C   C70       1.0  0.59640  0.82540  0.72590  1.0000 -0.2210849632
C   C71       1.0  0.17460  0.40360  0.22590  1.0000 -0.2210849632
C   C72       1.0  0.40360  0.17460  0.27410  1.0000 -0.2210849632
C   C73       1.0  0.82810  0.56030  0.74360  1.0000 0.0082945925
C   C74       1.0  0.56030  0.82810  0.75640  1.0000 0.0082945925
C   C75       1.0  0.17190  0.43970  0.25640  1.0000 0.0082945925
C   C76       1.0  0.43970  0.17190  0.24360  1.0000 0.0082945925
C   C77       1.0  0.95010  0.66310  0.72280  1.0000 -0.1496586573
C   C78       1.0  0.66310  0.95010  0.77720  1.0000 -0.1496586573
C   C79       1.0  0.04990  0.33690  0.27720  1.0000 -0.1496586573
C   C80       1.0  0.33690  0.04990  0.22280  1.0000 -0.1496586573
C   C81       1.0  0.06579  0.79561  0.73340  1.0000 -0.0079429527
C   C82       1.0  0.79561  0.06579  0.76660  1.0000 -0.0079429527
C   C83       1.0  0.93421  0.20439  0.26660  1.0000 -0.0079429527
C   C84       1.0  0.20439  0.93421  0.23340  1.0000 -0.0079429527
C   C85       1.0  0.06560  0.83360  0.76560  1.0000 -0.2709329273
C   C86       1.0  0.83360  0.06560  0.73440  1.0000 -0.2709329273
C   C87       1.0  0.93440  0.16640  0.23440  1.0000 -0.2709329273
C   C88       1.0  0.16640  0.93440  0.26560  1.0000 -0.2709329273
C   C89       1.0  0.70260  0.41300  0.73180  1.0000 0.5241121356
C   C90       1.0  0.41300  0.70260  0.76820  1.0000 0.5241121356
C   C91       1.0  0.29740  0.58700  0.26820  1.0000 0.5241121356
C   C92       1.0  0.58700  0.29740  0.23180  1.0000 0.5241121356
C   C93       1.0  0.19909  0.90791  0.71140  1.0000 0.5799500499
C   C94       1.0  0.90791  0.19909  0.78860  1.0000 0.5799500499
C   C95       1.0  0.80091  0.09209  0.28860  1.0000 0.5799500499
C   C96       1.0  0.09209  0.80091  0.21140  1.0000 0.5799500499
C   C97       1.0  0.43513  0.98187  0.68800  1.0000 0.0862809535
C   C98       1.0  0.98187  0.43513  0.81200  1.0000 0.0862809535
C   C99       1.0  0.56487  0.01813  0.31200  1.0000 0.0862809535
C   C100      1.0  0.01813  0.56487  0.18800  1.0000 0.0862809535
C   C101      1.0  0.44347  0.94293  0.66460  1.0000 -0.1595539484
C   C102      1.0  0.94293  0.44347  0.83540  1.0000 -0.1595539484
C   C103      1.0  0.55653  0.05707  0.33540  1.0000 -0.1595539484
C   C104      1.0  0.05707  0.55653  0.16460  1.0000 -0.1595539484
C   C105      1.0  0.53630  0.03870  0.62570  1.0000 0.0707883205
C   C106      1.0  0.03870  0.53630  0.87430  1.0000 0.0707883205
C   C107      1.0  0.46370  0.96130  0.37430  1.0000 0.0707883205
C   C108      1.0  0.96130  0.46370  0.12570  1.0000 0.0707883205
C   C109      1.0  0.61780  0.17700  0.60940  1.0000 -0.2090533261
C   C110      1.0  0.17700  0.61780  0.89060  1.0000 -0.2090533261
C   C111      1.0  0.38220  0.82300  0.39060  1.0000 -0.2090533261
C   C112      1.0  0.82300  0.38220  0.10940  1.0000 -0.2090533261
C   C113      1.0  0.59520  0.20240  0.63410  1.0000 0.0974248763
C   C114      1.0  0.20240  0.59520  0.86590  1.0000 0.0974248763
C   C115      1.0  0.40480  0.79760  0.36590  1.0000 0.0974248763
C   C116      1.0  0.79760  0.40480  0.13410  1.0000 0.0974248763
C   C117      1.0  0.54160  0.99460  0.59970  1.0000 0.1739708282
C   C118      1.0  0.99460  0.54160  0.90030  1.0000 0.1739708282
C   C119      1.0  0.45840  0.00540  0.40030  1.0000 0.1739708282
C   C120      1.0  0.00540  0.45840  0.09970  1.0000 0.1739708282
C   C121      1.0  0.60100  0.98260  0.56030  1.0000 0.1739708282
C   C122      1.0  0.98260  0.60100  0.93970  1.0000 0.1739708282
C   C123      1.0  0.39900  0.01740  0.43970  1.0000 0.1739708282
C   C124      1.0  0.01740  0.39900  0.06030  1.0000 0.1739708282
C   C125      1.0  0.67550  0.01710  0.53020  1.0000 0.0785543899
C   C126      1.0  0.01710  0.67550  0.96980  1.0000 0.0785543899
C   C127      1.0  0.32450  0.98290  0.46980  1.0000 0.0785543899
C   C128      1.0  0.98290  0.32450  0.03020  1.0000 0.0785543899
C   C129      1.0  0.61980  0.90360  0.52870  1.0000 -0.1705077902
C   C130      1.0  0.90360  0.61980  0.97130  1.0000 -0.1705077902
C   C131      1.0  0.38020  0.09640  0.47130  1.0000 -0.1705077902
C   C132      1.0  0.09640  0.38020  0.02870  1.0000 -0.1705077902
C   C133      1.0  0.67920  0.92980  0.49710  1.0000 0.0785543899
C   C134      1.0  0.92980  0.67920  0.00290  1.0000 0.0785543899
C   C135      1.0  0.32080  0.07020  0.50290  1.0000 0.0785543899
C   C136      1.0  0.07020  0.32080  0.99710  1.0000 0.0785543899
C   C137      1.0  0.83670  0.16250  0.47020  1.0000 0.0785543899
C   C138      1.0  0.16250  0.83670  0.02980  1.0000 0.0785543899
C   C139      1.0  0.16330  0.83750  0.52980  1.0000 0.0785543899
C   C140      1.0  0.83750  0.16330  0.97020  1.0000 0.0785543899
C   C141      1.0  0.78510  0.14450  0.50210  1.0000 -0.1811520305
C   C142      1.0  0.14450  0.78510  0.99790  1.0000 -0.1811520305
C   C143      1.0  0.21490  0.85550  0.49790  1.0000 -0.1811520305
C   C144      1.0  0.85550  0.21490  0.00210  1.0000 -0.1811520305
N   N1        1.0  0.50829  0.10891  0.67280  1.0000 -0.2317516428
N   N2        1.0  0.10891  0.50829  0.82720  1.0000 -0.2317516428
N   N3        1.0  0.49171  0.89109  0.32720  1.0000 -0.2317516428
N   N4        1.0  0.89109  0.49171  0.17280  1.0000 -0.2317516428
N   N5        1.0  0.64907  0.07013  0.58190  1.0000 0.0707883205
N   N6        1.0  0.07013  0.64907  0.91810  1.0000 0.0707883205
N   N7        1.0  0.35093  0.92987  0.41810  1.0000 0.0707883205
N   N8        1.0  0.92987  0.35093  0.08190  1.0000 0.0707883205
N   N9        1.0  0.43255  0.86785  0.59010  1.0000 -0.2403499219
N   N10       1.0  0.86785  0.43255  0.90990  1.0000 -0.2403499219
N   N11       1.0  0.56745  0.13215  0.40990  1.0000 -0.2403499219
N   N12       1.0  0.13215  0.56745  0.09010  1.0000 -0.2403499219
N   N13       1.0  0.47000  0.85980  0.56520  1.0000 -0.2403499219
N   N14       1.0  0.85980  0.47000  0.93480  1.0000 -0.2403499219
N   N15       1.0  0.53000  0.14020  0.43480  1.0000 -0.2403499219
N   N16       1.0  0.14020  0.53000  0.06520  1.0000 -0.2403499219
N   N17       1.0  0.79180  0.20980  0.58900  1.0000 -0.4773915555
N   N18       1.0  0.20980  0.79180  0.91100  1.0000 -0.4773915555
N   N19       1.0  0.20820  0.79020  0.41100  1.0000 -0.4773915555
N   N20       1.0  0.79020  0.20820  0.08900  1.0000 -0.4773915555
N   N21       1.0  0.78278  0.05622  0.46560  1.0000 -0.2457304593
N   N22       1.0  0.05622  0.78278  0.03440  1.0000 -0.2457304593
N   N23       1.0  0.21722  0.94378  0.53440  1.0000 -0.2457304593
N   N24       1.0  0.94378  0.21722  0.96560  1.0000 -0.2457304593
O   O1        1.0  0.09158  0.23082  0.93450  1.0000 -0.5542718913
O   O2        1.0  0.23082  0.09158  0.56550  1.0000 -0.5542718913
O   O3        1.0  0.90842  0.76918  0.06550  1.0000 -0.5542718913
O   O4        1.0  0.76918  0.90842  0.43450  1.0000 -0.5542718913
O   O5        1.0  0.24255  0.45085  0.88280  1.0000 -0.5395459753
O   O6        1.0  0.45085  0.24255  0.61720  1.0000 -0.5395459753
O   O7        1.0  0.75745  0.54915  0.11720  1.0000 -0.5395459753
O   O8        1.0  0.54915  0.75745  0.38280  1.0000 -0.5395459753
O   O9        1.0  0.38965  0.14275  0.04930  1.0000 -0.5769606974
O   O10       1.0  0.14275  0.38965  0.45070  1.0000 -0.5769606974
O   O11       1.0  0.61035  0.85725  0.95070  1.0000 -0.5769606974
O   O12       1.0  0.85725  0.61035  0.54930  1.0000 -0.5769606974
O   O13       1.0  0.21395  0.04785  0.06240  1.0000 -0.5395459753
O   O14       1.0  0.04785  0.21395  0.43760  1.0000 -0.5395459753
O   O15       1.0  0.78605  0.95215  0.93760  1.0000 -0.5395459753
O   O16       1.0  0.95215  0.78605  0.56240  1.0000 -0.5395459753
O   O17       1.0  0.66040  0.61600  0.92170  1.0000 -0.187928531
O   O18       1.0  0.61600  0.66040  0.57830  1.0000 -0.187928531
O   O19       1.0  0.33960  0.38400  0.07830  1.0000 -0.187928531
O   O20       1.0  0.38400  0.33960  0.42170  1.0000 -0.187928531
O   O21       1.0  0.92875  0.75905  0.81410  1.0000 -0.1811520305
O   O22       1.0  0.75905  0.92875  0.68590  1.0000 -0.1811520305
O   O23       1.0  0.07125  0.24095  0.18590  1.0000 -0.1811520305
O   O24       1.0  0.24095  0.07125  0.31410  1.0000 -0.1811520305
O   O25       1.0  0.30890  0.02250  0.72930  1.0000 -0.5043241378
O   O26       1.0  0.02250  0.30890  0.77070  1.0000 -0.5043241378
O   O27       1.0  0.69110  0.97750  0.27070  1.0000 -0.5043241378
O   O28       1.0  0.97750  0.69110  0.22930  1.0000 -0.5043241378
O   O29       1.0  0.19086  0.87794  0.67480  1.0000 -0.5736714896
O   O30       1.0  0.87794  0.19086  0.82520  1.0000 -0.5736714896
O   O31       1.0  0.80914  0.12206  0.32520  1.0000 -0.5736714896
O   O32       1.0  0.12206  0.80914  0.17480  1.0000 -0.5736714896
O   O33       1.0  0.71346  0.38254  0.70940  1.0000 -0.5238506642
O   O34       1.0  0.38254  0.71346  0.79060  1.0000 -0.5238506642
O   O35       1.0  0.28654  0.61746  0.29060  1.0000 -0.5238506642
O   O36       1.0  0.61746  0.28654  0.20940  1.0000 -0.5238506642
O   O37       1.0  0.59010  0.32530  0.74430  1.0000 -0.4911621954
O   O38       1.0  0.32530  0.59010  0.75570  1.0000 -0.4911621954
O   O39       1.0  0.40990  0.67470  0.25570  1.0000 -0.4911621954
O   O40       1.0  0.67470  0.40990  0.24430  1.0000 -0.4911621954
