# DDEC6 charges by PACMAN v1.1 (https://github.com/mtap-research/PACMAN-charge/)
data_0000[Mn][sra]3[ASR]1
_chemical_formula_sum              "Mn4 H60 C104 N12 O24"
_cell_length_a       6.587
_cell_length_b       16.3714
_cell_length_c       23.6408
_cell_angle_alpha    90
_cell_angle_beta     90
_cell_angle_gamma    90

_symmetry_space_group_name_H-M    "P 1"
_symmetry_Int_Tables_number       1

loop_
  _symmetry_equiv_pos_as_xyz
  'x, y, z'

loop_
  _atom_site_type_symbol
  _atom_site_label
  _atom_site_symmetry_multiplicity
  _atom_site_fract_x
  _atom_site_fract_y
  _atom_site_fract_z
  _atom_site_occupancy
  _atom_site_charge
Mn  Mn1       1.0  0.88490  0.88930  0.82556  1.0000 0.9069618897
Mn  Mn2       1.0  0.38490  0.11070  0.17444  1.0000 0.9069618897
Mn  Mn3       1.0  0.88490  0.61070  0.32556  1.0000 0.9069618897
Mn  Mn4       1.0  0.38490  0.38930  0.67444  1.0000 0.9069618897
H   H1        1.0  0.91140  0.72070  0.89060  1.0000 0.3663597123
H   H2        1.0  0.87010  0.53270  0.84600  1.0000 0.1111666719
H   H3        1.0  0.86550  0.41990  0.78740  1.0000 0.1111666719
H   H4        1.0  0.91040  0.67740  0.70990  1.0000 0.1111666719
H   H5        1.0  0.83820  0.46420  0.59440  1.0000 0.1401176491
H   H6        1.0  0.83770  0.50200  0.50060  1.0000 0.1229941712
H   H7        1.0  0.99000  0.72620  0.54860  1.0000 0.1026511804
H   H8        1.0  0.84520  0.81330  0.69930  1.0000 0.1111666719
H   H9        1.0  0.82300  0.85130  0.60540  1.0000 0.1401176491
H   H10       1.0  0.84470  0.98720  0.58250  1.0000 0.1401176491
H   H11       1.0  0.87890  0.13390  0.61480  1.0000 0.1401176491
H   H12       1.0  0.91080  0.22430  0.68600  1.0000 0.1401176491
H   H13       1.0  0.92440  0.25200  0.79080  1.0000 0.1285001801
H   H14       1.0  0.93490  0.20360  0.88250  1.0000 0.1285001801
H   H15       1.0  0.91490  0.06220  0.89830  1.0000 0.1111666719
H   H16       1.0  0.41140  0.27930  0.10940  1.0000 0.3663597123
H   H17       1.0  0.37010  0.46730  0.15400  1.0000 0.1111666719
H   H18       1.0  0.36550  0.58010  0.21260  1.0000 0.1111666719
H   H19       1.0  0.41040  0.32260  0.29010  1.0000 0.1111666719
H   H20       1.0  0.33820  0.53580  0.40560  1.0000 0.1401176491
H   H21       1.0  0.33770  0.49800  0.49940  1.0000 0.1229941712
H   H22       1.0  0.49000  0.27380  0.45140  1.0000 0.1026511804
H   H23       1.0  0.34520  0.18670  0.30070  1.0000 0.1111666719
H   H24       1.0  0.32300  0.14870  0.39460  1.0000 0.1401176491
H   H25       1.0  0.34470  0.01280  0.41750  1.0000 0.1401176491
H   H26       1.0  0.37890  0.86610  0.38520  1.0000 0.1401176491
H   H27       1.0  0.41080  0.77570  0.31400  1.0000 0.1401176491
H   H28       1.0  0.42440  0.74800  0.20920  1.0000 0.1285001801
H   H29       1.0  0.43490  0.79640  0.11750  1.0000 0.1285001801
H   H30       1.0  0.41490  0.93780  0.10170  1.0000 0.1111666719
H   H31       1.0  0.91140  0.77930  0.39060  1.0000 0.3663597123
H   H32       1.0  0.87010  0.96730  0.34600  1.0000 0.1111666719
H   H33       1.0  0.86550  0.08010  0.28740  1.0000 0.1111666719
H   H34       1.0  0.91040  0.82260  0.20990  1.0000 0.1111666719
H   H35       1.0  0.83820  0.03580  0.09440  1.0000 0.1401176491
H   H36       1.0  0.83770  0.99800  0.00060  1.0000 0.1229941712
H   H37       1.0  0.99000  0.77380  0.04860  1.0000 0.1026511804
H   H38       1.0  0.84520  0.68670  0.19930  1.0000 0.1111666719
H   H39       1.0  0.82300  0.64870  0.10540  1.0000 0.1401176491
H   H40       1.0  0.84470  0.51280  0.08250  1.0000 0.1401176491
H   H41       1.0  0.87890  0.36610  0.11480  1.0000 0.1401176491
H   H42       1.0  0.91080  0.27570  0.18600  1.0000 0.1401176491
H   H43       1.0  0.92440  0.24800  0.29080  1.0000 0.1285001801
H   H44       1.0  0.93490  0.29640  0.38250  1.0000 0.1285001801
H   H45       1.0  0.91490  0.43780  0.39830  1.0000 0.1111666719
H   H46       1.0  0.41140  0.22070  0.60940  1.0000 0.3663597123
H   H47       1.0  0.37010  0.03270  0.65400  1.0000 0.1111666719
H   H48       1.0  0.36550  0.91990  0.71260  1.0000 0.1111666719
H   H49       1.0  0.41040  0.17740  0.79010  1.0000 0.1111666719
H   H50       1.0  0.33820  0.96420  0.90560  1.0000 0.1401176491
H   H51       1.0  0.33770  0.00200  0.99940  1.0000 0.1229941712
H   H52       1.0  0.49000  0.22620  0.95140  1.0000 0.1026511804
H   H53       1.0  0.34520  0.31330  0.80070  1.0000 0.1111666719
H   H54       1.0  0.32300  0.35130  0.89460  1.0000 0.1401176491
H   H55       1.0  0.34470  0.48720  0.91750  1.0000 0.1401176491
H   H56       1.0  0.37890  0.63390  0.88520  1.0000 0.1401176491
H   H57       1.0  0.41080  0.72430  0.81400  1.0000 0.1401176491
H   H58       1.0  0.42440  0.75200  0.70920  1.0000 0.1285001801
H   H59       1.0  0.43490  0.70360  0.61750  1.0000 0.1285001801
H   H60       1.0  0.41490  0.56220  0.60170  1.0000 0.1111666719
C   C1        1.0  0.89670  0.69240  0.81950  1.0000 0.5525504069
C   C2        1.0  0.89140  0.61694  0.78319  1.0000 -0.0404156989
C   C3        1.0  0.87730  0.53910  0.80696  1.0000 -0.1184826235
C   C4        1.0  0.87420  0.47190  0.77175  1.0000 -0.1379962473
C   C5        1.0  0.88390  0.48031  0.71315  1.0000 -0.0579981937
C   C6        1.0  0.88290  0.40150  0.67963  1.0000 0.5677909867
C   C7        1.0  0.89800  0.55880  0.68849  1.0000 0.0167958408
C   C8        1.0  0.90120  0.62510  0.72517  1.0000 -0.1379962473
C   C9        1.0  0.90420  0.57550  0.62608  1.0000 0.1953260915
C   C10       1.0  0.86610  0.51800  0.58441  1.0000 -0.1733278616
C   C11       1.0  0.86940  0.54010  0.52843  1.0000 -0.0709214865
C   C12       1.0  0.91950  0.61850  0.51360  1.0000 -0.0709214865
C   C13       1.0  0.95790  0.67260  0.55787  1.0000 0.0415414439
C   C14       1.0  0.92750  0.64750  0.45352  1.0000 0.5882469134
C   C15       1.0  0.85030  0.86860  0.69030  1.0000 0.0819762886
C   C16       1.0  0.83880  0.89060  0.63340  1.0000 -0.1476271434
C   C17       1.0  0.85130  0.97100  0.62012  1.0000 -0.0983160867
C   C18       1.0  0.87410  0.02980  0.66268  1.0000 0.0480651932
C   C19       1.0  0.87850  0.00120  0.71899  1.0000 0.1229941712
C   C20       1.0  0.88400  0.11520  0.65190  1.0000 -0.1297892093
C   C21       1.0  0.90030  0.16890  0.69430  1.0000 -0.1184826235
C   C22       1.0  0.90210  0.14260  0.75290  1.0000 0.0480651932
C   C23       1.0  0.89450  0.05940  0.76515  1.0000 0.1111666719
C   C24       1.0  0.91770  0.19620  0.79770  1.0000 -0.0891621917
C   C25       1.0  0.92350  0.16770  0.85220  1.0000 -0.1297892093
C   C26       1.0  0.91170  0.08200  0.86140  1.0000 0.1026511804
C   C27       1.0  0.39670  0.30760  0.18050  1.0000 0.5525504069
C   C28       1.0  0.39140  0.38306  0.21681  1.0000 -0.0404156989
C   C29       1.0  0.37730  0.46090  0.19304  1.0000 -0.1184826235
C   C30       1.0  0.37420  0.52810  0.22825  1.0000 -0.1379962473
C   C31       1.0  0.38390  0.51969  0.28685  1.0000 -0.0579981937
C   C32       1.0  0.38290  0.59850  0.32037  1.0000 0.5677909867
C   C33       1.0  0.39800  0.44120  0.31151  1.0000 0.0167958408
C   C34       1.0  0.40120  0.37490  0.27483  1.0000 -0.1379962473
C   C35       1.0  0.40420  0.42450  0.37392  1.0000 0.1953260915
C   C36       1.0  0.36610  0.48200  0.41559  1.0000 -0.1733278616
C   C37       1.0  0.36940  0.45990  0.47157  1.0000 -0.0709214865
C   C38       1.0  0.41950  0.38150  0.48640  1.0000 -0.0709214865
C   C39       1.0  0.45790  0.32740  0.44213  1.0000 0.0415414439
C   C40       1.0  0.42750  0.35250  0.54648  1.0000 0.5882469134
C   C41       1.0  0.35030  0.13140  0.30970  1.0000 0.0819762886
C   C42       1.0  0.33880  0.10940  0.36660  1.0000 -0.1476271434
C   C43       1.0  0.35130  0.02900  0.37988  1.0000 -0.0983160867
C   C44       1.0  0.37410  0.97020  0.33732  1.0000 0.0480651932
C   C45       1.0  0.37850  0.99880  0.28101  1.0000 0.1229941712
C   C46       1.0  0.38400  0.88480  0.34810  1.0000 -0.1297892093
C   C47       1.0  0.40030  0.83110  0.30570  1.0000 -0.1184826235
C   C48       1.0  0.40210  0.85740  0.24710  1.0000 0.0480651932
C   C49       1.0  0.39450  0.94060  0.23485  1.0000 0.1111666719
C   C50       1.0  0.41770  0.80380  0.20230  1.0000 -0.0891621917
C   C51       1.0  0.42350  0.83230  0.14780  1.0000 -0.1297892093
C   C52       1.0  0.41170  0.91800  0.13860  1.0000 0.1026511804
C   C53       1.0  0.89670  0.80760  0.31950  1.0000 0.5525504069
C   C54       1.0  0.89140  0.88306  0.28319  1.0000 -0.0404156989
C   C55       1.0  0.87730  0.96090  0.30696  1.0000 -0.1184826235
C   C56       1.0  0.87420  0.02810  0.27175  1.0000 -0.1379962473
C   C57       1.0  0.88390  0.01969  0.21315  1.0000 -0.0579981937
C   C58       1.0  0.88290  0.09850  0.17963  1.0000 0.5677909867
C   C59       1.0  0.89800  0.94120  0.18849  1.0000 0.0167958408
C   C60       1.0  0.90120  0.87490  0.22517  1.0000 -0.1379962473
C   C61       1.0  0.90420  0.92450  0.12608  1.0000 0.1953260915
C   C62       1.0  0.86610  0.98200  0.08441  1.0000 -0.1733278616
C   C63       1.0  0.86940  0.95990  0.02843  1.0000 -0.0709214865
C   C64       1.0  0.91950  0.88150  0.01360  1.0000 -0.0709214865
C   C65       1.0  0.95790  0.82740  0.05787  1.0000 0.0415414439
C   C66       1.0  0.92750  0.85250  0.95352  1.0000 0.5882469134
C   C67       1.0  0.85030  0.63140  0.19030  1.0000 0.0819762886
C   C68       1.0  0.83880  0.60940  0.13340  1.0000 -0.1476271434
C   C69       1.0  0.85130  0.52900  0.12012  1.0000 -0.0983160867
C   C70       1.0  0.87410  0.47020  0.16268  1.0000 0.0480651932
C   C71       1.0  0.87850  0.49880  0.21899  1.0000 0.1229941712
C   C72       1.0  0.88400  0.38480  0.15190  1.0000 -0.1297892093
C   C73       1.0  0.90030  0.33110  0.19430  1.0000 -0.1184826235
C   C74       1.0  0.90210  0.35740  0.25290  1.0000 0.0480651932
C   C75       1.0  0.89450  0.44060  0.26515  1.0000 0.1111666719
C   C76       1.0  0.91770  0.30380  0.29770  1.0000 -0.0891621917
C   C77       1.0  0.92350  0.33230  0.35220  1.0000 -0.1297892093
C   C78       1.0  0.91170  0.41800  0.36140  1.0000 0.1026511804
C   C79       1.0  0.39670  0.19240  0.68050  1.0000 0.5525504069
C   C80       1.0  0.39140  0.11694  0.71681  1.0000 -0.0404156989
C   C81       1.0  0.37730  0.03910  0.69304  1.0000 -0.1184826235
C   C82       1.0  0.37420  0.97190  0.72825  1.0000 -0.1379962473
C   C83       1.0  0.38390  0.98031  0.78685  1.0000 -0.0579981937
C   C84       1.0  0.38290  0.90150  0.82037  1.0000 0.5677909867
C   C85       1.0  0.39800  0.05880  0.81151  1.0000 0.0167958408
C   C86       1.0  0.40120  0.12510  0.77483  1.0000 -0.1379962473
C   C87       1.0  0.40420  0.07550  0.87392  1.0000 0.1953260915
C   C88       1.0  0.36610  0.01800  0.91559  1.0000 -0.1733278616
C   C89       1.0  0.36940  0.04010  0.97157  1.0000 -0.0709214865
C   C90       1.0  0.41950  0.11850  0.98640  1.0000 -0.0709214865
C   C91       1.0  0.45790  0.17260  0.94213  1.0000 0.0415414439
C   C92       1.0  0.42750  0.14750  0.04648  1.0000 0.5882469134
C   C93       1.0  0.35030  0.36860  0.80970  1.0000 0.0819762886
C   C94       1.0  0.33880  0.39060  0.86660  1.0000 -0.1476271434
C   C95       1.0  0.35130  0.47100  0.87988  1.0000 -0.0983160867
C   C96       1.0  0.37410  0.52980  0.83732  1.0000 0.0480651932
C   C97       1.0  0.37850  0.50120  0.78101  1.0000 0.1229941712
C   C98       1.0  0.38400  0.61520  0.84810  1.0000 -0.1297892093
C   C99       1.0  0.40030  0.66890  0.80570  1.0000 -0.1184826235
C   C100      1.0  0.40210  0.64260  0.74710  1.0000 0.0480651932
C   C101      1.0  0.39450  0.55940  0.73485  1.0000 0.1111666719
C   C102      1.0  0.41770  0.69620  0.70230  1.0000 -0.0891621917
C   C103      1.0  0.42350  0.66770  0.64780  1.0000 -0.1297892093
C   C104      1.0  0.41170  0.58200  0.63860  1.0000 0.1026511804
N   N1        1.0  0.95190  0.65290  0.61270  1.0000 -0.3031800075
N   N2        1.0  0.86800  0.92159  0.73239  1.0000 -0.26475185
N   N3        1.0  0.89610  0.02928  0.81870  1.0000 -0.2759504004
N   N4        1.0  0.45190  0.34710  0.38730  1.0000 -0.3031800075
N   N5        1.0  0.36800  0.07841  0.26761  1.0000 -0.26475185
N   N6        1.0  0.39610  0.97072  0.18130  1.0000 -0.2759504004
N   N7        1.0  0.95190  0.84710  0.11270  1.0000 -0.3031800075
N   N8        1.0  0.86800  0.57841  0.23239  1.0000 -0.26475185
N   N9        1.0  0.89610  0.47072  0.31870  1.0000 -0.2759504004
N   N10       1.0  0.45190  0.15290  0.88730  1.0000 -0.3031800075
N   N11       1.0  0.36800  0.42159  0.76761  1.0000 -0.26475185
N   N12       1.0  0.39610  0.52928  0.68130  1.0000 -0.2759504004
O   O1        1.0  0.88590  0.76030  0.79903  1.0000 -0.4976442142
O   O2        1.0  0.91000  0.67748  0.87305  1.0000 -0.4426317199
O   O3        1.0  0.71540  0.36910  0.66972  1.0000 -0.5387327158
O   O4        1.0  0.05080  0.37150  0.66580  1.0000 -0.5387327158
O   O5        1.0  0.87730  0.59869  0.41514  1.0000 -0.5387327158
O   O6        1.0  0.98730  0.72055  0.44590  1.0000 -0.567976652
O   O7        1.0  0.38590  0.23970  0.20097  1.0000 -0.4976442142
O   O8        1.0  0.41000  0.32252  0.12695  1.0000 -0.4426317199
O   O9        1.0  0.21540  0.63090  0.33028  1.0000 -0.5387327158
O   O10       1.0  0.55080  0.62850  0.33420  1.0000 -0.5387327158
O   O11       1.0  0.37730  0.40131  0.58486  1.0000 -0.5387327158
O   O12       1.0  0.48730  0.27945  0.55410  1.0000 -0.567976652
O   O13       1.0  0.88590  0.73970  0.29903  1.0000 -0.4976442142
O   O14       1.0  0.91000  0.82252  0.37305  1.0000 -0.4426317199
O   O15       1.0  0.71540  0.13090  0.16972  1.0000 -0.5387327158
O   O16       1.0  0.05080  0.12850  0.16580  1.0000 -0.5387327158
O   O17       1.0  0.87730  0.90131  0.91514  1.0000 -0.5387327158
O   O18       1.0  0.98730  0.77945  0.94590  1.0000 -0.567976652
O   O19       1.0  0.38590  0.26030  0.70097  1.0000 -0.4976442142
O   O20       1.0  0.41000  0.17748  0.62695  1.0000 -0.4426317199
O   O21       1.0  0.21540  0.86910  0.83028  1.0000 -0.5387327158
O   O22       1.0  0.55080  0.87150  0.83420  1.0000 -0.5387327158
O   O23       1.0  0.37730  0.09869  0.08486  1.0000 -0.5387327158
O   O24       1.0  0.48730  0.22055  0.05410  1.0000 -0.567976652
