# DDEC6 charges by PACMAN v1.1 (https://github.com/mtap-research/PACMAN-charge/)
data_0000[Zn][nan]2[ASR]3
_chemical_formula_sum              "Zn8 H44 C92 N20 O32"
_cell_length_a       13.7709
_cell_length_b       14.613
_cell_length_c       14.726
_cell_angle_alpha    90
_cell_angle_beta     111.255
_cell_angle_gamma    90

_symmetry_space_group_name_H-M    "P 1"
_symmetry_Int_Tables_number       1

loop_
  _symmetry_equiv_pos_as_xyz
  'x, y, z'

loop_
  _atom_site_type_symbol
  _atom_site_label
  _atom_site_symmetry_multiplicity
  _atom_site_fract_x
  _atom_site_fract_y
  _atom_site_fract_z
  _atom_site_occupancy
  _atom_site_charge
Zn  Zn1       1.0  0.16326  0.64379  0.51935  1.0000 0.699604937
Zn  Zn2       1.0  0.21543  0.98643  0.86253  1.0000 0.8448420848
Zn  Zn3       1.0  0.33674  0.14379  0.48065  1.0000 0.699604937
Zn  Zn4       1.0  0.28457  0.48643  0.13747  1.0000 0.8461407508
Zn  Zn5       1.0  0.83674  0.35621  0.48065  1.0000 0.699604937
Zn  Zn6       1.0  0.78457  0.01357  0.13747  1.0000 0.8461407508
Zn  Zn7       1.0  0.66326  0.85621  0.51935  1.0000 0.699604937
Zn  Zn8       1.0  0.71543  0.51357  0.86253  1.0000 0.8448420848
H   H1        1.0  0.08870  0.47140  0.36650  1.0000 0.130660824
H   H2        1.0  0.01520  0.44870  0.20230  1.0000 0.1227347712
H   H3        1.0  0.98920  0.71110  0.15930  1.0000 0.130660824
H   H4        1.0  0.99750  0.84890  0.22720  1.0000 0.1475439405
H   H5        1.0  0.10510  0.98420  0.48210  1.0000 0.1475439405
H   H6        1.0  0.17230  0.96660  0.64100  1.0000 0.130660824
H   H7        1.0  0.31590  0.80310  0.85800  1.0000 0.1475439405
H   H8        1.0  0.30240  0.68660  0.74930  1.0000 0.1576214219
H   H9        1.0  0.18800  0.28940  0.62800  1.0000 0.1227347712
H   H10       1.0  0.24960  0.51180  0.79970  1.0000 0.130660824
H   H11       1.0  0.26840  0.26150  0.91570  1.0000 0.130660824
H   H12       1.0  0.41130  0.97140  0.63350  1.0000 0.130660824
H   H13       1.0  0.48480  0.94870  0.79770  1.0000 0.1227347712
H   H14       1.0  0.51080  0.21110  0.84070  1.0000 0.130660824
H   H15       1.0  0.50250  0.34890  0.77280  1.0000 0.1475439405
H   H16       1.0  0.39490  0.48420  0.51790  1.0000 0.1475439405
H   H17       1.0  0.32770  0.46660  0.35900  1.0000 0.130660824
H   H18       1.0  0.18410  0.30310  0.14200  1.0000 0.1475439405
H   H19       1.0  0.19760  0.18660  0.25070  1.0000 0.1576214219
H   H20       1.0  0.31200  0.78940  0.37200  1.0000 0.1227347712
H   H21       1.0  0.25040  0.01180  0.20030  1.0000 0.130660824
H   H22       1.0  0.23160  0.76150  0.08430  1.0000 0.130660824
H   H23       1.0  0.91130  0.52860  0.63350  1.0000 0.130660824
H   H24       1.0  0.98480  0.55130  0.79770  1.0000 0.1227347712
H   H25       1.0  0.01080  0.28890  0.84070  1.0000 0.130660824
H   H26       1.0  0.00250  0.15110  0.77280  1.0000 0.1475439405
H   H27       1.0  0.89490  0.01580  0.51790  1.0000 0.1475439405
H   H28       1.0  0.82770  0.03340  0.35900  1.0000 0.130660824
H   H29       1.0  0.68410  0.19690  0.14200  1.0000 0.1475439405
H   H30       1.0  0.69760  0.31340  0.25070  1.0000 0.1576214219
H   H31       1.0  0.81200  0.71060  0.37200  1.0000 0.1227347712
H   H32       1.0  0.75040  0.48820  0.20030  1.0000 0.130660824
H   H33       1.0  0.73160  0.73850  0.08430  1.0000 0.130660824
H   H34       1.0  0.58870  0.02860  0.36650  1.0000 0.130660824
H   H35       1.0  0.51520  0.05130  0.20230  1.0000 0.1227347712
H   H36       1.0  0.48920  0.78890  0.15930  1.0000 0.130660824
H   H37       1.0  0.49750  0.65110  0.22720  1.0000 0.1475439405
H   H38       1.0  0.60510  0.51580  0.48210  1.0000 0.1475439405
H   H39       1.0  0.67230  0.53340  0.64100  1.0000 0.130660824
H   H40       1.0  0.81590  0.69690  0.85800  1.0000 0.1475439405
H   H41       1.0  0.80240  0.81340  0.74930  1.0000 0.1576214219
H   H42       1.0  0.68800  0.21060  0.62800  1.0000 0.1227347712
H   H43       1.0  0.74960  0.98820  0.79970  1.0000 0.130660824
H   H44       1.0  0.76840  0.23850  0.91570  1.0000 0.130660824
C   C1        1.0  0.06880  0.52190  0.32560  1.0000 0.0480510519
C   C2        1.0  0.02510  0.50820  0.22620  1.0000 0.0318101538
C   C3        1.0  0.00940  0.66100  0.20100  1.0000 0.0133021381
C   C4        1.0  0.05240  0.67520  0.30110  1.0000 0.1374423328
C   C5        1.0  0.06790  0.76970  0.34620  1.0000 0.1860149662
C   C6        1.0  0.03090  0.84990  0.29450  1.0000 -0.1624212627
C   C7        1.0  0.04520  0.93140  0.34590  1.0000 0.0611163164
C   C8        1.0  0.09600  0.93040  0.44630  1.0000 -0.1624212627
C   C9        1.0  0.13280  0.84810  0.49240  1.0000 0.1996924068
C   C10       1.0  0.18790  0.83870  0.59960  1.0000 0.1374423328
C   C11       1.0  0.19730  0.90880  0.66450  1.0000 0.024437477
C   C12       1.0  0.28170  0.81360  0.79170  1.0000 0.0318101538
C   C13       1.0  0.27290  0.74320  0.72610  1.0000 0.0664095963
C   C14       1.0  0.00290  0.02140  0.29350  1.0000 0.5541720996
C   C15       1.0  0.22110  0.15670  0.76240  1.0000 0.5541720996
C   C16       1.0  0.22910  0.25960  0.77080  1.0000 -0.0431460914
C   C17       1.0  0.20770  0.31550  0.68970  1.0000 -0.1369868283
C   C18       1.0  0.21560  0.41020  0.69970  1.0000 -0.0304473004
C   C19       1.0  0.24350  0.44860  0.79230  1.0000 -0.1134557509
C   C20       1.0  0.26210  0.39350  0.87350  1.0000 -0.0304473004
C   C21       1.0  0.25520  0.29890  0.86140  1.0000 -0.1241701608
C   C22       1.0  0.19240  0.47080  0.61190  1.0000 0.5541720996
C   C23       1.0  0.28140  0.43450  0.97070  1.0000 0.5541720996
C   C24       1.0  0.43120  0.02190  0.67440  1.0000 0.0480510519
C   C25       1.0  0.47490  0.00820  0.77380  1.0000 0.0318101538
C   C26       1.0  0.49060  0.16100  0.79900  1.0000 0.0133021381
C   C27       1.0  0.44760  0.17520  0.69890  1.0000 0.1374423328
C   C28       1.0  0.43210  0.26970  0.65380  1.0000 0.1860149662
C   C29       1.0  0.46910  0.34990  0.70550  1.0000 -0.1624212627
C   C30       1.0  0.45480  0.43140  0.65410  1.0000 0.0611163164
C   C31       1.0  0.40400  0.43040  0.55370  1.0000 -0.1624212627
C   C32       1.0  0.36720  0.34810  0.50760  1.0000 0.1996924068
C   C33       1.0  0.31210  0.33870  0.40040  1.0000 0.1374423328
C   C34       1.0  0.30270  0.40880  0.33550  1.0000 0.024437477
C   C35       1.0  0.21830  0.31360  0.20830  1.0000 0.0318101538
C   C36       1.0  0.22710  0.24320  0.27390  1.0000 0.0664095963
C   C37       1.0  0.49710  0.52140  0.70650  1.0000 0.5541720996
C   C38       1.0  0.27890  0.65670  0.23760  1.0000 0.5541720996
C   C39       1.0  0.27090  0.75960  0.22920  1.0000 -0.0431460914
C   C40       1.0  0.29230  0.81550  0.31030  1.0000 -0.1369868283
C   C41       1.0  0.28440  0.91020  0.30030  1.0000 -0.0304473004
C   C42       1.0  0.25650  0.94860  0.20770  1.0000 -0.1134557509
C   C43       1.0  0.23790  0.89350  0.12650  1.0000 -0.0304473004
C   C44       1.0  0.24480  0.79890  0.13860  1.0000 -0.1241701608
C   C45       1.0  0.30760  0.97080  0.38810  1.0000 0.5541720996
C   C46       1.0  0.21860  0.93450  0.02930  1.0000 0.5541720996
C   C47       1.0  0.93120  0.47810  0.67440  1.0000 0.0480510519
C   C48       1.0  0.97490  0.49180  0.77380  1.0000 0.0318101538
C   C49       1.0  0.99060  0.33900  0.79900  1.0000 0.0133021381
C   C50       1.0  0.94760  0.32480  0.69890  1.0000 0.1374423328
C   C51       1.0  0.93210  0.23030  0.65380  1.0000 0.1860149662
C   C52       1.0  0.96910  0.15010  0.70550  1.0000 -0.1624212627
C   C53       1.0  0.95480  0.06860  0.65410  1.0000 0.0611163164
C   C54       1.0  0.90400  0.06960  0.55370  1.0000 -0.1624212627
C   C55       1.0  0.86720  0.15190  0.50760  1.0000 0.1996924068
C   C56       1.0  0.81210  0.16130  0.40040  1.0000 0.1374423328
C   C57       1.0  0.80270  0.09120  0.33550  1.0000 0.024437477
C   C58       1.0  0.71830  0.18640  0.20830  1.0000 0.0318101538
C   C59       1.0  0.72710  0.25680  0.27390  1.0000 0.0664095963
C   C60       1.0  0.99710  0.97860  0.70650  1.0000 0.5541720996
C   C61       1.0  0.77890  0.84330  0.23760  1.0000 0.5541720996
C   C62       1.0  0.77090  0.74040  0.22920  1.0000 -0.0431460914
C   C63       1.0  0.79230  0.68450  0.31030  1.0000 -0.1369868283
C   C64       1.0  0.78440  0.58980  0.30030  1.0000 -0.0304473004
C   C65       1.0  0.75650  0.55140  0.20770  1.0000 -0.1134557509
C   C66       1.0  0.73790  0.60650  0.12650  1.0000 -0.0304473004
C   C67       1.0  0.74480  0.70110  0.13860  1.0000 -0.1241701608
C   C68       1.0  0.80760  0.52920  0.38810  1.0000 0.5541720996
C   C69       1.0  0.71860  0.56550  0.02930  1.0000 0.5541720996
C   C70       1.0  0.56880  0.97810  0.32560  1.0000 0.0480510519
C   C71       1.0  0.52510  0.99180  0.22620  1.0000 0.0318101538
C   C72       1.0  0.50940  0.83900  0.20100  1.0000 0.0133021381
C   C73       1.0  0.55240  0.82480  0.30110  1.0000 0.1374423328
C   C74       1.0  0.56790  0.73030  0.34620  1.0000 0.1860149662
C   C75       1.0  0.53090  0.65010  0.29450  1.0000 -0.1624212627
C   C76       1.0  0.54520  0.56860  0.34590  1.0000 0.0611163164
C   C77       1.0  0.59600  0.56960  0.44630  1.0000 -0.1624212627
C   C78       1.0  0.63280  0.65190  0.49240  1.0000 0.1996924068
C   C79       1.0  0.68790  0.66130  0.59960  1.0000 0.1374423328
C   C80       1.0  0.69730  0.59120  0.66450  1.0000 0.024437477
C   C81       1.0  0.78170  0.68640  0.79170  1.0000 0.0318101538
C   C82       1.0  0.77290  0.75680  0.72610  1.0000 0.0664095963
C   C83       1.0  0.50290  0.47860  0.29350  1.0000 0.5541720996
C   C84       1.0  0.72110  0.34330  0.76240  1.0000 0.5541720996
C   C85       1.0  0.72910  0.24040  0.77080  1.0000 -0.0431460914
C   C86       1.0  0.70770  0.18450  0.68970  1.0000 -0.1369868283
C   C87       1.0  0.71560  0.08980  0.69970  1.0000 -0.0304473004
C   C88       1.0  0.74350  0.05140  0.79230  1.0000 -0.1134557509
C   C89       1.0  0.76210  0.10650  0.87350  1.0000 -0.0304473004
C   C90       1.0  0.75520  0.20110  0.86140  1.0000 -0.1241701608
C   C91       1.0  0.69240  0.02920  0.61190  1.0000 0.5541720996
C   C92       1.0  0.78140  0.06550  0.97070  1.0000 0.5541720996
N   N1        1.0  0.08350  0.60590  0.36470  1.0000 -0.2015702416
N   N2        1.0  0.99670  0.57720  0.16390  1.0000 -0.1763402791
N   N3        1.0  0.11790  0.76990  0.44240  1.0000 -0.259307525
N   N4        1.0  0.22350  0.75460  0.63110  1.0000 -0.1886388202
N   N5        1.0  0.24190  0.89590  0.76130  1.0000 -0.1763402791
N   N6        1.0  0.41650  0.10590  0.63530  1.0000 -0.2015702416
N   N7        1.0  0.50330  0.07720  0.83610  1.0000 -0.1763402791
N   N8        1.0  0.38210  0.26990  0.55760  1.0000 -0.259307525
N   N9        1.0  0.27650  0.25460  0.36890  1.0000 -0.1886388202
N   N10       1.0  0.25810  0.39590  0.23870  1.0000 -0.1763402791
N   N11       1.0  0.91650  0.39410  0.63530  1.0000 -0.2015702416
N   N12       1.0  0.00330  0.42280  0.83610  1.0000 -0.1763402791
N   N13       1.0  0.88210  0.23010  0.55760  1.0000 -0.259307525
N   N14       1.0  0.77650  0.24540  0.36890  1.0000 -0.1886388202
N   N15       1.0  0.75810  0.10410  0.23870  1.0000 -0.1763402791
N   N16       1.0  0.58350  0.89410  0.36470  1.0000 -0.2015702416
N   N17       1.0  0.49670  0.92280  0.16390  1.0000 -0.1763402791
N   N18       1.0  0.61790  0.73010  0.44240  1.0000 -0.259307525
N   N19       1.0  0.72350  0.74540  0.63110  1.0000 -0.1886388202
N   N20       1.0  0.74190  0.60410  0.76130  1.0000 -0.1763402791
O   O1        1.0  0.94510  0.01490  0.20490  1.0000 -0.5511955684
O   O2        1.0  0.02800  0.09340  0.34150  1.0000 -0.5692415153
O   O3        1.0  0.23930  0.11470  0.84200  1.0000 -0.5444486354
O   O4        1.0  0.19630  0.11900  0.68190  1.0000 -0.5616953288
O   O5        1.0  0.15180  0.43760  0.52900  1.0000 -0.5692415153
O   O6        1.0  0.21760  0.55430  0.62820  1.0000 -0.5267112766
O   O7        1.0  0.29130  0.51870  0.98300  1.0000 -0.5189180737
O   O8        1.0  0.28360  0.38190  0.04040  1.0000 -0.5511955684
O   O9        1.0  0.55490  0.51490  0.79510  1.0000 -0.5511955684
O   O10       1.0  0.47200  0.59340  0.65850  1.0000 -0.5692415153
O   O11       1.0  0.26070  0.61470  0.15800  1.0000 -0.5444486354
O   O12       1.0  0.30370  0.61900  0.31810  1.0000 -0.5616953288
O   O13       1.0  0.34820  0.93760  0.47100  1.0000 -0.5692415153
O   O14       1.0  0.28240  0.05430  0.37180  1.0000 -0.5267112766
O   O15       1.0  0.20870  0.01870  0.01700  1.0000 -0.5189180737
O   O16       1.0  0.21640  0.88190  0.95960  1.0000 -0.5511955684
O   O17       1.0  0.05490  0.98510  0.79510  1.0000 -0.5511955684
O   O18       1.0  0.97200  0.90660  0.65850  1.0000 -0.5692415153
O   O19       1.0  0.76070  0.88530  0.15800  1.0000 -0.5444486354
O   O20       1.0  0.80370  0.88100  0.31810  1.0000 -0.5616953288
O   O21       1.0  0.84820  0.56240  0.47100  1.0000 -0.5692415153
O   O22       1.0  0.78240  0.44570  0.37180  1.0000 -0.5267112766
O   O23       1.0  0.70870  0.48130  0.01700  1.0000 -0.5189180737
O   O24       1.0  0.71640  0.61810  0.95960  1.0000 -0.5511955684
O   O25       1.0  0.44510  0.48510  0.20490  1.0000 -0.5511955684
O   O26       1.0  0.52800  0.40660  0.34150  1.0000 -0.5692415153
O   O27       1.0  0.73930  0.38530  0.84200  1.0000 -0.5444486354
O   O28       1.0  0.69630  0.38100  0.68190  1.0000 -0.5616953288
O   O29       1.0  0.65180  0.06240  0.52900  1.0000 -0.5692415153
O   O30       1.0  0.71760  0.94570  0.62820  1.0000 -0.5267112766
O   O31       1.0  0.79130  0.98130  0.98300  1.0000 -0.5189180737
O   O32       1.0  0.78360  0.11810  0.04040  1.0000 -0.5511955684
