# DDEC6 charges by PACMAN v1.1 (https://github.com/mtap-research/PACMAN-charge/)
data_0000[Co][ins]3[ASR]3
_chemical_formula_sum              "Co4 H48 C68 N12 O16"
_cell_length_a       15.0738
_cell_length_b       15.0738
_cell_length_c       10.2231
_cell_angle_alpha    81.7682
_cell_angle_beta     98.2318
_cell_angle_gamma    121.651

_symmetry_space_group_name_H-M    "P 1"
_symmetry_Int_Tables_number       1

loop_
  _symmetry_equiv_pos_as_xyz
  'x, y, z'

loop_
  _atom_site_type_symbol
  _atom_site_label
  _atom_site_symmetry_multiplicity
  _atom_site_fract_x
  _atom_site_fract_y
  _atom_site_fract_z
  _atom_site_occupancy
  _atom_site_charge
Co  Co1       1.0  0.38199  0.02423  0.52335  1.0000 0.8053069704
Co  Co2       1.0  0.02423  0.38199  0.97665  1.0000 0.8053069704
Co  Co3       1.0  0.61801  0.97577  0.47665  1.0000 0.8053069704
Co  Co4       1.0  0.97577  0.61801  0.02335  1.0000 0.8053069704
H   H1        1.0  0.35340  0.02920  0.01170  1.0000 0.1194372506
H   H2        1.0  0.02920  0.35340  0.48830  1.0000 0.1194372506
H   H3        1.0  0.64660  0.97080  0.98830  1.0000 0.1194372506
H   H4        1.0  0.97080  0.64660  0.51170  1.0000 0.1194372506
H   H5        1.0  0.39190  0.82110  0.26220  1.0000 0.1194372506
H   H6        1.0  0.82110  0.39190  0.23780  1.0000 0.1194372506
H   H7        1.0  0.60810  0.17890  0.73780  1.0000 0.1194372506
H   H8        1.0  0.17890  0.60810  0.76220  1.0000 0.1194372506
H   H9        1.0  0.38280  0.81300  0.87150  1.0000 0.1310546124
H   H10       1.0  0.81300  0.38280  0.62850  1.0000 0.1310546124
H   H11       1.0  0.61720  0.18700  0.12850  1.0000 0.1310546124
H   H12       1.0  0.18700  0.61720  0.37150  1.0000 0.1310546124
H   H13       1.0  0.42510  0.70130  0.19040  1.0000 0.1194372506
H   H14       1.0  0.70130  0.42510  0.30960  1.0000 0.1194372506
H   H15       1.0  0.57490  0.29870  0.80960  1.0000 0.1194372506
H   H16       1.0  0.29870  0.57490  0.69040  1.0000 0.1194372506
H   H17       1.0  0.48070  0.74010  0.05810  1.0000 0.1310546124
H   H18       1.0  0.74010  0.48070  0.44190  1.0000 0.1310546124
H   H19       1.0  0.51930  0.25990  0.94190  1.0000 0.1310546124
H   H20       1.0  0.25990  0.51930  0.55810  1.0000 0.1310546124
H   H21       1.0  0.41390  0.56950  0.95010  1.0000 0.1310546124
H   H22       1.0  0.56950  0.41390  0.54990  1.0000 0.1310546124
H   H23       1.0  0.58610  0.43050  0.04990  1.0000 0.1310546124
H   H24       1.0  0.43050  0.58610  0.45010  1.0000 0.1310546124
H   H25       1.0  0.24210  0.42030  0.89330  1.0000 0.1310546124
H   H26       1.0  0.42030  0.24210  0.60670  1.0000 0.1310546124
H   H27       1.0  0.75790  0.57970  0.10670  1.0000 0.1310546124
H   H28       1.0  0.57970  0.75790  0.39330  1.0000 0.1310546124
H   H29       1.0  0.20050  0.59830  0.08920  1.0000 0.1310546124
H   H30       1.0  0.59830  0.20050  0.41080  1.0000 0.1310546124
H   H31       1.0  0.79950  0.40170  0.91080  1.0000 0.1310546124
H   H32       1.0  0.40170  0.79950  0.58920  1.0000 0.1310546124
H   H33       1.0  0.16190  0.86790  0.58810  1.0000 0.1108405434
H   H34       1.0  0.86790  0.16190  0.91190  1.0000 0.1108405434
H   H35       1.0  0.83810  0.13210  0.41190  1.0000 0.1108405434
H   H36       1.0  0.13210  0.83810  0.08810  1.0000 0.1108405434
H   H37       1.0  0.00800  0.86140  0.59600  1.0000 0.1396674954
H   H38       1.0  0.86140  0.00800  0.90400  1.0000 0.1396674954
H   H39       1.0  0.99200  0.13860  0.40400  1.0000 0.1396674954
H   H40       1.0  0.13860  0.99200  0.09600  1.0000 0.1396674954
H   H41       1.0  0.12640  0.13860  0.39280  1.0000 0.1310546124
H   H42       1.0  0.13860  0.12640  0.10720  1.0000 0.1310546124
H   H43       1.0  0.87360  0.86140  0.60720  1.0000 0.1310546124
H   H44       1.0  0.86140  0.87360  0.89280  1.0000 0.1310546124
H   H45       1.0  0.27740  0.13940  0.39050  1.0000 0.1108405434
H   H46       1.0  0.13940  0.27740  0.10950  1.0000 0.1108405434
H   H47       1.0  0.72260  0.86060  0.60950  1.0000 0.1108405434
H   H48       1.0  0.86060  0.72260  0.89050  1.0000 0.1108405434
C   C1        1.0  0.36140  0.97500  0.78100  1.0000 0.5352050059
C   C2        1.0  0.97500  0.36140  0.71900  1.0000 0.5352050059
C   C3        1.0  0.63860  0.02500  0.21900  1.0000 0.5352050059
C   C4        1.0  0.02500  0.63860  0.28100  1.0000 0.5352050059
C   C5        1.0  0.36510  0.92610  0.91960  1.0000 -0.0045900364
C   C6        1.0  0.92610  0.36510  0.58040  1.0000 -0.0045900364
C   C7        1.0  0.63490  0.07390  0.08040  1.0000 -0.0045900364
C   C8        1.0  0.07390  0.63490  0.41960  1.0000 -0.0045900364
C   C9        1.0  0.36220  0.97180  0.02670  1.0000 -0.1318123552
C   C10       1.0  0.97180  0.36220  0.47330  1.0000 -0.1318123552
C   C11       1.0  0.63780  0.02820  0.97330  1.0000 -0.1318123552
C   C12       1.0  0.02820  0.63780  0.52670  1.0000 -0.1318123552
C   C13       1.0  0.37220  0.93240  0.15550  1.0000 -0.0072310299
C   C14       1.0  0.93240  0.37220  0.34450  1.0000 -0.0072310299
C   C15       1.0  0.62780  0.06760  0.84450  1.0000 -0.0072310299
C   C16       1.0  0.06760  0.62780  0.65550  1.0000 -0.0072310299
C   C17       1.0  0.37680  0.98680  0.27170  1.0000 0.5500828617
C   C18       1.0  0.98680  0.37680  0.22830  1.0000 0.5500828617
C   C19       1.0  0.62320  0.01320  0.72830  1.0000 0.5500828617
C   C20       1.0  0.01320  0.62320  0.77170  1.0000 0.5500828617
C   C21       1.0  0.38550  0.84770  0.17580  1.0000 -0.1586823222
C   C22       1.0  0.84770  0.38550  0.32420  1.0000 -0.1586823222
C   C23       1.0  0.61450  0.15230  0.82420  1.0000 -0.1586823222
C   C24       1.0  0.15230  0.61450  0.67580  1.0000 -0.1586823222
C   C25       1.0  0.38980  0.80060  0.07170  1.0000 0.0912410908
C   C26       1.0  0.80060  0.38980  0.42830  1.0000 0.0912410908
C   C27       1.0  0.61020  0.19940  0.92830  1.0000 0.0912410908
C   C28       1.0  0.19940  0.61020  0.57170  1.0000 0.0912410908
C   C29       1.0  0.37960  0.84280  0.94310  1.0000 -0.1586823222
C   C30       1.0  0.84280  0.37960  0.55690  1.0000 -0.1586823222
C   C31       1.0  0.62040  0.15720  0.05690  1.0000 -0.1586823222
C   C32       1.0  0.15720  0.62040  0.44310  1.0000 -0.1586823222
C   C33       1.0  0.41530  0.71590  0.09560  1.0000 -0.1586823222
C   C34       1.0  0.71590  0.41530  0.40440  1.0000 -0.1586823222
C   C35       1.0  0.58470  0.28410  0.90440  1.0000 -0.1586823222
C   C36       1.0  0.28410  0.58470  0.59560  1.0000 -0.1586823222
C   C37       1.0  0.35010  0.55710  0.97070  1.0000 -0.1318123552
C   C38       1.0  0.55710  0.35010  0.52930  1.0000 -0.1318123552
C   C39       1.0  0.64990  0.44290  0.02930  1.0000 -0.1318123552
C   C40       1.0  0.44290  0.64990  0.47070  1.0000 -0.1318123552
C   C41       1.0  0.25470  0.47490  0.94040  1.0000 -0.04156474
C   C42       1.0  0.47490  0.25470  0.55960  1.0000 -0.04156474
C   C43       1.0  0.74530  0.52510  0.05960  1.0000 -0.04156474
C   C44       1.0  0.52510  0.74530  0.44040  1.0000 -0.04156474
C   C45       1.0  0.23170  0.57190  0.04710  1.0000 0.1194372506
C   C46       1.0  0.57190  0.23170  0.45290  1.0000 0.1194372506
C   C47       1.0  0.76830  0.42810  0.95290  1.0000 0.1194372506
C   C48       1.0  0.42810  0.76830  0.54710  1.0000 0.1194372506
C   C49       1.0  0.15560  0.92440  0.54960  1.0000 0.1017910366
C   C50       1.0  0.92440  0.15560  0.95040  1.0000 0.1017910366
C   C51       1.0  0.84440  0.07560  0.45040  1.0000 0.1017910366
C   C52       1.0  0.07560  0.84440  0.04960  1.0000 0.1017910366
C   C53       1.0  0.06230  0.91990  0.55420  1.0000 -0.1893074147
C   C54       1.0  0.91990  0.06230  0.94580  1.0000 -0.1893074147
C   C55       1.0  0.93770  0.08010  0.44580  1.0000 -0.1893074147
C   C56       1.0  0.08010  0.93770  0.05420  1.0000 -0.1893074147
C   C57       1.0  0.04920  0.00120  0.49740  1.0000 0.1108405434
C   C58       1.0  0.00120  0.04920  0.00260  1.0000 0.1108405434
C   C59       1.0  0.95080  0.99880  0.50260  1.0000 0.1108405434
C   C60       1.0  0.99880  0.95080  0.99740  1.0000 0.1108405434
C   C61       1.0  0.13180  0.08260  0.43510  1.0000 -0.1893074147
C   C62       1.0  0.08260  0.13180  0.06490  1.0000 -0.1893074147
C   C63       1.0  0.86820  0.91740  0.56490  1.0000 -0.1893074147
C   C64       1.0  0.91740  0.86820  0.93510  1.0000 -0.1893074147
C   C65       1.0  0.22270  0.08270  0.43420  1.0000 0.080860018
C   C66       1.0  0.08270  0.22270  0.06580  1.0000 0.080860018
C   C67       1.0  0.77730  0.91730  0.56580  1.0000 0.080860018
C   C68       1.0  0.91730  0.77730  0.93420  1.0000 0.080860018
N   N1        1.0  0.23710  0.00570  0.49280  1.0000 -0.2275981314
N   N2        1.0  0.00570  0.23710  0.00720  1.0000 -0.2275981314
N   N3        1.0  0.76290  0.99430  0.50720  1.0000 -0.2275981314
N   N4        1.0  0.99430  0.76290  0.99280  1.0000 -0.2275981314
N   N5        1.0  0.33390  0.61910  0.03790  1.0000 0.0422872373
N   N6        1.0  0.61910  0.33390  0.46210  1.0000 0.0422872373
N   N7        1.0  0.66610  0.38090  0.96210  1.0000 0.0422872373
N   N8        1.0  0.38090  0.66610  0.53790  1.0000 0.0422872373
N   N9        1.0  0.17860  0.48240  0.98850  1.0000 -0.3114235035
N   N10       1.0  0.48240  0.17860  0.51150  1.0000 -0.3114235035
N   N11       1.0  0.82140  0.51760  0.01150  1.0000 -0.3114235035
N   N12       1.0  0.51760  0.82140  0.48850  1.0000 -0.3114235035
O   O1        1.0  0.37260  0.93360  0.68820  1.0000 -0.5502277396
O   O2        1.0  0.93360  0.37260  0.81180  1.0000 -0.5502277396
O   O3        1.0  0.62740  0.06640  0.31180  1.0000 -0.5502277396
O   O4        1.0  0.06640  0.62740  0.18820  1.0000 -0.5502277396
O   O5        1.0  0.35120  0.05220  0.76220  1.0000 -0.5502277396
O   O6        1.0  0.05220  0.35120  0.73780  1.0000 -0.5502277396
O   O7        1.0  0.64880  0.94780  0.23780  1.0000 -0.5502277396
O   O8        1.0  0.94780  0.64880  0.26220  1.0000 -0.5502277396
O   O9        1.0  0.39350  0.95030  0.38780  1.0000 -0.5631743676
O   O10       1.0  0.95030  0.39350  0.11220  1.0000 -0.5631743676
O   O11       1.0  0.60650  0.04970  0.61220  1.0000 -0.5631743676
O   O12       1.0  0.04970  0.60650  0.88780  1.0000 -0.5631743676
O   O13       1.0  0.36250  0.06110  0.25160  1.0000 -0.5687162287
O   O14       1.0  0.06110  0.36250  0.24840  1.0000 -0.5687162287
O   O15       1.0  0.63750  0.93890  0.74840  1.0000 -0.5687162287
O   O16       1.0  0.93890  0.63750  0.75160  1.0000 -0.5687162287
