# DDEC6 charges by PACMAN v1.1 (https://github.com/mtap-research/PACMAN-charge/)
data_0000[Zn][hcb]2[ASR]4
_chemical_formula_sum              "Zn4 H56 C84 N16 O24"
_cell_length_a       9.3077
_cell_length_b       13.5046
_cell_length_c       29.462
_cell_angle_alpha    90
_cell_angle_beta     106.459
_cell_angle_gamma    90

_symmetry_space_group_name_H-M    "P 1"
_symmetry_Int_Tables_number       1

loop_
  _symmetry_equiv_pos_as_xyz
  'x, y, z'

loop_
  _atom_site_type_symbol
  _atom_site_label
  _atom_site_symmetry_multiplicity
  _atom_site_fract_x
  _atom_site_fract_y
  _atom_site_fract_z
  _atom_site_occupancy
  _atom_site_charge
Zn  Zn1       1.0  0.81894  0.42829  0.83565  1.0000 0.8201195044
Zn  Zn2       1.0  0.18106  0.92829  0.66435  1.0000 0.8201195044
Zn  Zn3       1.0  0.18106  0.57171  0.16435  1.0000 0.8201195044
Zn  Zn4       1.0  0.81894  0.07171  0.33565  1.0000 0.8201195044
H   H1        1.0  0.23350  0.09970  0.00410  1.0000 0.3010874434
H   H2        1.0  0.07110  0.30410  0.87970  1.0000 0.1177139251
H   H3        1.0  0.16100  0.19790  0.94190  1.0000 0.1294947852
H   H4        1.0  0.80990  0.27050  0.98870  1.0000 0.143019118
H   H5        1.0  0.72820  0.37250  0.92440  1.0000 0.1294947852
H   H6        1.0  0.94370  0.02960  0.12240  1.0000 0.1294947852
H   H7        1.0  0.11820  0.91420  0.16240  1.0000 0.1091760142
H   H8        1.0  0.32730  0.87780  0.13860  1.0000 0.1294947852
H   H9        1.0  0.37080  0.95460  0.07370  1.0000 0.1294947852
H   H10       1.0  0.54050  0.13180  0.74250  1.0000 0.1468084286
H   H11       1.0  0.66920  0.05220  0.62890  1.0000 0.1294947852
H   H12       1.0  0.89550  0.25800  0.71520  1.0000 0.1294947852
H   H13       1.0  0.94420  0.23300  0.64450  1.0000 0.1468084286
H   H14       1.0  0.82380  0.17920  0.60400  1.0000 0.1468084286
H   H15       1.0  0.76650  0.59970  0.49590  1.0000 0.3010874434
H   H16       1.0  0.92890  0.80410  0.62030  1.0000 0.1177139251
H   H17       1.0  0.83900  0.69790  0.55810  1.0000 0.1294947852
H   H18       1.0  0.19010  0.77050  0.51130  1.0000 0.143019118
H   H19       1.0  0.27180  0.87250  0.57560  1.0000 0.1294947852
H   H20       1.0  0.05630  0.52960  0.37760  1.0000 0.1294947852
H   H21       1.0  0.88180  0.41420  0.33760  1.0000 0.1091760142
H   H22       1.0  0.67270  0.37780  0.36140  1.0000 0.1294947852
H   H23       1.0  0.62920  0.45460  0.42630  1.0000 0.1294947852
H   H24       1.0  0.45950  0.63180  0.75750  1.0000 0.1468084286
H   H25       1.0  0.33080  0.55220  0.87110  1.0000 0.1294947852
H   H26       1.0  0.10450  0.75800  0.78480  1.0000 0.1294947852
H   H27       1.0  0.05580  0.73300  0.85550  1.0000 0.1468084286
H   H28       1.0  0.17620  0.67920  0.89600  1.0000 0.1468084286
H   H29       1.0  0.76650  0.90030  0.99590  1.0000 0.3010874434
H   H30       1.0  0.92890  0.69590  0.12030  1.0000 0.1177139251
H   H31       1.0  0.83900  0.80210  0.05810  1.0000 0.1294947852
H   H32       1.0  0.19010  0.72950  0.01130  1.0000 0.143019118
H   H33       1.0  0.27180  0.62750  0.07560  1.0000 0.1294947852
H   H34       1.0  0.05630  0.97040  0.87760  1.0000 0.1294947852
H   H35       1.0  0.88180  0.08580  0.83760  1.0000 0.1091760142
H   H36       1.0  0.67270  0.12220  0.86140  1.0000 0.1294947852
H   H37       1.0  0.62920  0.04540  0.92630  1.0000 0.1294947852
H   H38       1.0  0.45950  0.86820  0.25750  1.0000 0.1468084286
H   H39       1.0  0.33080  0.94780  0.37110  1.0000 0.1294947852
H   H40       1.0  0.10450  0.74200  0.28480  1.0000 0.1294947852
H   H41       1.0  0.05580  0.76700  0.35550  1.0000 0.1468084286
H   H42       1.0  0.17620  0.82080  0.39600  1.0000 0.1468084286
H   H43       1.0  0.23350  0.40030  0.50410  1.0000 0.3010874434
H   H44       1.0  0.07110  0.19590  0.37970  1.0000 0.1177139251
H   H45       1.0  0.16100  0.30210  0.44190  1.0000 0.1294947852
H   H46       1.0  0.80990  0.22950  0.48870  1.0000 0.143019118
H   H47       1.0  0.72820  0.12750  0.42440  1.0000 0.1294947852
H   H48       1.0  0.94370  0.47040  0.62240  1.0000 0.1294947852
H   H49       1.0  0.11820  0.58580  0.66240  1.0000 0.1091760142
H   H50       1.0  0.32730  0.62220  0.63860  1.0000 0.1294947852
H   H51       1.0  0.37080  0.54540  0.57370  1.0000 0.1294947852
H   H52       1.0  0.54050  0.36820  0.24250  1.0000 0.1468084286
H   H53       1.0  0.66920  0.44780  0.12890  1.0000 0.1294947852
H   H54       1.0  0.89550  0.24200  0.21520  1.0000 0.1294947852
H   H55       1.0  0.94420  0.26700  0.14450  1.0000 0.1468084286
H   H56       1.0  0.82380  0.32080  0.10400  1.0000 0.1468084286
C   C1        1.0  0.01740  0.29620  0.90170  1.0000 0.0932447208
C   C2        1.0  0.07240  0.23230  0.93910  1.0000 -0.1902169952
C   C3        1.0  0.99450  0.21988  0.97240  1.0000 0.059711604
C   C4        1.0  0.86404  0.27510  0.96664  1.0000 -0.1635162638
C   C5        1.0  0.81604  0.33670  0.92804  1.0000 0.1091760142
C   C6        1.0  0.04372  0.15086  0.01202  1.0000 0.3010874434
C   C7        1.0  0.05295  0.06170  0.07335  1.0000 0.1294947852
C   C8        1.0  0.02779  0.01510  0.11249  1.0000 -0.1820969837
C   C9        1.0  0.13255  0.94650  0.13615  1.0000 -0.1029113283
C   C10       1.0  0.25940  0.92440  0.12170  1.0000 -0.0862069366
C   C11       1.0  0.28645  0.96950  0.08335  1.0000 -0.1902169952
C   C12       1.0  0.18131  0.03870  0.05941  1.0000 0.1294947852
C   C13       1.0  0.73874  0.27394  0.77764  1.0000 0.5418232126
C   C14       1.0  0.72248  0.20513  0.73598  1.0000 -0.0487751526
C   C15       1.0  0.60508  0.13825  0.72368  1.0000 -0.0693921776
C   C16       1.0  0.58360  0.08055  0.68300  1.0000 -0.0337581443
C   C17       1.0  0.68130  0.09086  0.65580  1.0000 -0.0004163356
C   C18       1.0  0.81647  0.21327  0.70737  1.0000 -0.0100453299
C   C19       1.0  0.45009  0.01268  0.66559  1.0000 0.5599870129
C   C20       1.0  0.88871  0.17174  0.63601  1.0000 -0.2696663173
C   C21       1.0  0.99962  0.08829  0.63642  1.0000 0.592414294
C   C22       1.0  0.98260  0.79620  0.59830  1.0000 0.0932447208
C   C23       1.0  0.92760  0.73230  0.56090  1.0000 -0.1902169952
C   C24       1.0  0.00550  0.71988  0.52760  1.0000 0.059711604
C   C25       1.0  0.13596  0.77510  0.53336  1.0000 -0.1635162638
C   C26       1.0  0.18396  0.83670  0.57196  1.0000 0.1091760142
C   C27       1.0  0.95628  0.65086  0.48798  1.0000 0.3010874434
C   C28       1.0  0.94705  0.56170  0.42665  1.0000 0.1294947852
C   C29       1.0  0.97221  0.51510  0.38751  1.0000 -0.1820969837
C   C30       1.0  0.86745  0.44650  0.36385  1.0000 -0.1029113283
C   C31       1.0  0.74060  0.42440  0.37830  1.0000 -0.0862069366
C   C32       1.0  0.71355  0.46950  0.41665  1.0000 -0.1902169952
C   C33       1.0  0.81869  0.53870  0.44059  1.0000 0.1294947852
C   C34       1.0  0.26126  0.77394  0.72236  1.0000 0.5418232126
C   C35       1.0  0.27752  0.70513  0.76402  1.0000 -0.0487751526
C   C36       1.0  0.39492  0.63825  0.77632  1.0000 -0.0693921776
C   C37       1.0  0.41640  0.58055  0.81700  1.0000 -0.0337581443
C   C38       1.0  0.31870  0.59086  0.84420  1.0000 0.0003612881
C   C39       1.0  0.18353  0.71327  0.79263  1.0000 -0.0100453299
C   C40       1.0  0.54991  0.51268  0.83441  1.0000 0.5599870129
C   C41       1.0  0.11129  0.67174  0.86399  1.0000 -0.2696663173
C   C42       1.0  0.00038  0.58829  0.86358  1.0000 0.592414294
C   C43       1.0  0.98260  0.70380  0.09830  1.0000 0.0932447208
C   C44       1.0  0.92760  0.76770  0.06090  1.0000 -0.1902169952
C   C45       1.0  0.00550  0.78012  0.02760  1.0000 0.059711604
C   C46       1.0  0.13596  0.72490  0.03336  1.0000 -0.1635162638
C   C47       1.0  0.18396  0.66330  0.07196  1.0000 0.1091760142
C   C48       1.0  0.95628  0.84914  0.98798  1.0000 0.2943070276
C   C49       1.0  0.94705  0.93830  0.92665  1.0000 0.1294947852
C   C50       1.0  0.97221  0.98490  0.88751  1.0000 -0.1820969837
C   C51       1.0  0.86745  0.05350  0.86385  1.0000 -0.1029113283
C   C52       1.0  0.74060  0.07560  0.87830  1.0000 -0.0862069366
C   C53       1.0  0.71355  0.03050  0.91665  1.0000 -0.1902169952
C   C54       1.0  0.81869  0.96130  0.94059  1.0000 0.1294947852
C   C55       1.0  0.26126  0.72606  0.22236  1.0000 0.5418232126
C   C56       1.0  0.27752  0.79487  0.26402  1.0000 -0.0487751526
C   C57       1.0  0.39492  0.86175  0.27632  1.0000 -0.0693921776
C   C58       1.0  0.41640  0.91945  0.31700  1.0000 -0.0337581443
C   C59       1.0  0.31870  0.90914  0.34420  1.0000 0.0003612881
C   C60       1.0  0.18353  0.78673  0.29263  1.0000 -0.0100453299
C   C61       1.0  0.54991  0.98732  0.33441  1.0000 0.5599870129
C   C62       1.0  0.11129  0.82826  0.36399  1.0000 -0.2696663173
C   C63       1.0  0.00038  0.91171  0.36358  1.0000 0.592414294
C   C64       1.0  0.01740  0.20380  0.40170  1.0000 0.0932447208
C   C65       1.0  0.07240  0.26770  0.43910  1.0000 -0.1902169952
C   C66       1.0  0.99450  0.28012  0.47240  1.0000 0.059711604
C   C67       1.0  0.86404  0.22490  0.46664  1.0000 -0.1635162638
C   C68       1.0  0.81604  0.16330  0.42804  1.0000 0.1091760142
C   C69       1.0  0.04372  0.34914  0.51202  1.0000 0.2943070276
C   C70       1.0  0.05295  0.43830  0.57335  1.0000 0.1294947852
C   C71       1.0  0.02779  0.48490  0.61249  1.0000 -0.1820969837
C   C72       1.0  0.13255  0.55350  0.63615  1.0000 -0.1029113283
C   C73       1.0  0.25940  0.57560  0.62170  1.0000 -0.0862069366
C   C74       1.0  0.28645  0.53050  0.58335  1.0000 -0.1902169952
C   C75       1.0  0.18131  0.46130  0.55941  1.0000 0.1294947852
C   C76       1.0  0.73874  0.22606  0.27764  1.0000 0.5418232126
C   C77       1.0  0.72248  0.29487  0.23598  1.0000 -0.0487751526
C   C78       1.0  0.60508  0.36175  0.22368  1.0000 -0.0693921776
C   C79       1.0  0.58360  0.41945  0.18300  1.0000 -0.0337581443
C   C80       1.0  0.68130  0.40914  0.15580  1.0000 -0.0004163356
C   C81       1.0  0.81647  0.28673  0.20737  1.0000 -0.0100453299
C   C82       1.0  0.45009  0.48732  0.16559  1.0000 0.5599870129
C   C83       1.0  0.88871  0.32826  0.13601  1.0000 -0.2696663173
C   C84       1.0  0.99962  0.41171  0.13642  1.0000 0.592414294
N   N1        1.0  0.89065  0.34725  0.89555  1.0000 -0.2127876015
N   N2        1.0  0.17230  0.09718  0.02030  1.0000 -0.2962442966
N   N3        1.0  0.96835  0.13281  0.04305  1.0000 -0.4008514019
N   N4        1.0  0.79478  0.15705  0.66818  1.0000 0.1091760142
N   N5        1.0  0.10935  0.84725  0.60445  1.0000 -0.2127876015
N   N6        1.0  0.82770  0.59718  0.47970  1.0000 -0.2962442966
N   N7        1.0  0.03165  0.63281  0.45695  1.0000 -0.4008514019
N   N8        1.0  0.20522  0.65705  0.83182  1.0000 0.103932955
N   N9        1.0  0.10935  0.65275  0.10445  1.0000 -0.2127876015
N   N10       1.0  0.82770  0.90282  0.97970  1.0000 -0.2962442966
N   N11       1.0  0.03165  0.86719  0.95695  1.0000 -0.4008514019
N   N12       1.0  0.20522  0.84295  0.33182  1.0000 0.103932955
N   N13       1.0  0.89065  0.15275  0.39555  1.0000 -0.2127876015
N   N14       1.0  0.17230  0.40282  0.52030  1.0000 -0.2962442966
N   N15       1.0  0.96835  0.36719  0.54305  1.0000 -0.4008514019
N   N16       1.0  0.79478  0.34295  0.16818  1.0000 0.1091760142
O   O1        1.0  0.84479  0.33750  0.78469  1.0000 -0.54079147
O   O2        1.0  0.65005  0.26682  0.80115  1.0000 -0.511941518
O   O3        1.0  0.35870  0.01091  0.69062  1.0000 -0.5257820891
O   O4        1.0  0.43607  0.96700  0.62887  1.0000 -0.54079147
O   O5        1.0  0.00697  0.01758  0.66465  1.0000 -0.54079147
O   O6        1.0  0.07580  0.09779  0.60830  1.0000 -0.54079147
O   O7        1.0  0.15521  0.83750  0.71531  1.0000 -0.54079147
O   O8        1.0  0.34995  0.76682  0.69885  1.0000 -0.511941518
O   O9        1.0  0.64130  0.51091  0.80938  1.0000 -0.5257820891
O   O10       1.0  0.56393  0.46700  0.87113  1.0000 -0.54079147
O   O11       1.0  0.99303  0.51758  0.83535  1.0000 -0.54079147
O   O12       1.0  0.92420  0.59779  0.89170  1.0000 -0.54079147
O   O13       1.0  0.15521  0.66250  0.21531  1.0000 -0.54079147
O   O14       1.0  0.34995  0.73318  0.19885  1.0000 -0.511941518
O   O15       1.0  0.64130  0.98909  0.30938  1.0000 -0.5257820891
O   O16       1.0  0.56393  0.03300  0.37113  1.0000 -0.54079147
O   O17       1.0  0.99303  0.98242  0.33535  1.0000 -0.54079147
O   O18       1.0  0.92420  0.90221  0.39170  1.0000 -0.54079147
O   O19       1.0  0.84479  0.16250  0.28469  1.0000 -0.54079147
O   O20       1.0  0.65005  0.23318  0.30115  1.0000 -0.511941518
O   O21       1.0  0.35870  0.48909  0.19062  1.0000 -0.5257820891
O   O22       1.0  0.43607  0.53300  0.12887  1.0000 -0.54079147
O   O23       1.0  0.00697  0.48242  0.16465  1.0000 -0.54079147
O   O24       1.0  0.07580  0.40221  0.10830  1.0000 -0.54079147
