# DDEC6 charges by PACMAN v1.1 (https://github.com/mtap-research/PACMAN-charge/)
data_0000[In][lon]3[ASR]1
_chemical_formula_sum              "In4 H68 C76 O22"
_cell_length_a       10.1861
_cell_length_b       18.5632
_cell_length_c       16.5153
_cell_angle_alpha    90
_cell_angle_beta     99.82
_cell_angle_gamma    90

_symmetry_space_group_name_H-M    "P 1"
_symmetry_Int_Tables_number       1

loop_
  _symmetry_equiv_pos_as_xyz
  'x, y, z'

loop_
  _atom_site_type_symbol
  _atom_site_label
  _atom_site_symmetry_multiplicity
  _atom_site_fract_x
  _atom_site_fract_y
  _atom_site_fract_z
  _atom_site_occupancy
  _atom_site_charge
In  In1       1.0  0.51720  0.29602  0.98921  1.0000 1.5392157742
In  In2       1.0  0.68398  0.25014  0.82275  1.0000 1.5088185975
In  In3       1.0  0.48280  0.79602  0.01079  1.0000 1.5392157742
In  In4       1.0  0.31602  0.75014  0.17725  1.0000 1.5088185975
H   H1        1.0  0.85250  0.77630  0.16750  1.0000 0.1386687615
H   H2        1.0  0.76290  0.67900  0.87730  1.0000 0.1205481701
H   H3        1.0  0.67180  0.79440  0.36510  1.0000 0.1386687615
H   H4        1.0  0.58910  0.51100  0.96990  1.0000 0.1386687615
H   H5        1.0  0.07650  0.78080  0.39580  1.0000 0.129826588
H   H6        1.0  0.82690  0.47420  0.81020  1.0000 0.1386687615
H   H7        1.0  0.83730  0.90240  0.48070  1.0000 0.1205481701
H   H8        1.0  0.98770  0.79660  0.76250  1.0000 0.3423779243
H   H9        1.0  0.72530  0.72630  0.65920  1.0000 0.1386687615
H   H10       1.0  0.67050  0.66010  0.70570  1.0000 0.1386687615
H   H11       1.0  0.72690  0.73030  0.75610  1.0000 0.1386687615
H   H12       1.0  0.19620  0.66020  0.60860  1.0000 0.3423779243
H   H13       1.0  0.05080  0.53670  0.82410  1.0000 0.1124015831
H   H14       1.0  0.93990  0.67200  0.44530  1.0000 0.129826588
H   H15       1.0  0.01280  0.64450  0.53330  1.0000 0.1205481701
H   H16       1.0  0.85390  0.64060  0.50980  1.0000 0.1488836416
H   H17       1.0  0.39240  0.61790  0.83440  1.0000 0.129826588
H   H18       1.0  0.46210  0.58940  0.76060  1.0000 0.129826588
H   H19       1.0  0.36000  0.65550  0.74600  1.0000 0.129826588
H   H20       1.0  0.18590  0.47510  0.80400  1.0000 0.1124015831
H   H21       1.0  0.33840  0.46230  0.79580  1.0000 0.129826588
H   H22       1.0  0.30160  0.51620  0.86410  1.0000 0.129826588
H   H23       1.0  0.23030  0.55810  0.62410  1.0000 0.1124015831
H   H24       1.0  0.36250  0.51480  0.66200  1.0000 0.1386687615
H   H25       1.0  0.21920  0.47940  0.66210  1.0000 0.129826588
H   H26       1.0  0.79290  0.05520  0.58740  1.0000 0.129826588
H   H27       1.0  0.73580  0.99150  0.52620  1.0000 0.1205481701
H   H28       1.0  0.88850  0.01540  0.53410  1.0000 0.1205481701
H   H29       1.0  0.05650  0.95500  0.68590  1.0000 0.1124015831
H   H30       1.0  0.00010  0.03400  0.66140  1.0000 0.1124015831
H   H31       1.0  0.96630  0.99540  0.74210  1.0000 0.1205481701
H   H32       1.0  0.77840  0.91250  0.73340  1.0000 0.1205481701
H   H33       1.0  0.74370  0.99600  0.71770  1.0000 0.1205481701
H   H34       1.0  0.66340  0.93600  0.65960  1.0000 0.1205481701
H   H35       1.0  0.14750  0.27630  0.83250  1.0000 0.1386687615
H   H36       1.0  0.23710  0.17900  0.12270  1.0000 0.1205481701
H   H37       1.0  0.32820  0.29440  0.63490  1.0000 0.1386687615
H   H38       1.0  0.41090  0.01100  0.03010  1.0000 0.1386687615
H   H39       1.0  0.92350  0.28080  0.60420  1.0000 0.129826588
H   H40       1.0  0.17310  0.97420  0.18980  1.0000 0.1386687615
H   H41       1.0  0.16270  0.40240  0.51930  1.0000 0.1205481701
H   H42       1.0  0.01230  0.29660  0.23750  1.0000 0.3423779243
H   H43       1.0  0.27470  0.22630  0.34080  1.0000 0.1386687615
H   H44       1.0  0.32950  0.16010  0.29430  1.0000 0.1386687615
H   H45       1.0  0.27310  0.23030  0.24390  1.0000 0.1386687615
H   H46       1.0  0.80380  0.16020  0.39140  1.0000 0.3423779243
H   H47       1.0  0.94920  0.03670  0.17590  1.0000 0.1124015831
H   H48       1.0  0.06010  0.17200  0.55470  1.0000 0.129826588
H   H49       1.0  0.98720  0.14450  0.46670  1.0000 0.1205481701
H   H50       1.0  0.14610  0.14060  0.49020  1.0000 0.1488836416
H   H51       1.0  0.60760  0.11790  0.16560  1.0000 0.129826588
H   H52       1.0  0.53790  0.08940  0.23940  1.0000 0.129826588
H   H53       1.0  0.64000  0.15550  0.25400  1.0000 0.129826588
H   H54       1.0  0.81410  0.97510  0.19600  1.0000 0.1124015831
H   H55       1.0  0.66160  0.96230  0.20420  1.0000 0.129826588
H   H56       1.0  0.69840  0.01620  0.13590  1.0000 0.129826588
H   H57       1.0  0.76970  0.05810  0.37590  1.0000 0.1124015831
H   H58       1.0  0.63750  0.01480  0.33800  1.0000 0.1386687615
H   H59       1.0  0.78080  0.97940  0.33790  1.0000 0.129826588
H   H60       1.0  0.20710  0.55520  0.41260  1.0000 0.129826588
H   H61       1.0  0.26420  0.49150  0.47380  1.0000 0.1205481701
H   H62       1.0  0.11150  0.51540  0.46590  1.0000 0.1205481701
H   H63       1.0  0.94350  0.45500  0.31410  1.0000 0.1124015831
H   H64       1.0  0.99990  0.53400  0.33860  1.0000 0.1124015831
H   H65       1.0  0.03370  0.49540  0.25790  1.0000 0.1205481701
H   H66       1.0  0.22160  0.41250  0.26660  1.0000 0.1205481701
H   H67       1.0  0.25630  0.49600  0.28230  1.0000 0.1205481701
H   H68       1.0  0.33660  0.43600  0.34040  1.0000 0.1205481701
C   C1        1.0  0.10400  0.76480  0.24170  1.0000 0.5228151986
C   C2        1.0  0.88790  0.79960  0.48660  1.0000 -0.0112747113
C   C3        1.0  0.87260  0.79590  0.39660  1.0000 0.0893654638
C   C4        1.0  0.70610  0.48530  0.89260  1.0000 -0.0018033829
C   C5        1.0  0.98070  0.77650  0.27530  1.0000 -0.0112747113
C   C6        1.0  0.85840  0.77950  0.22540  1.0000 -0.1104436713
C   C7        1.0  0.74590  0.62870  0.87900  1.0000 -0.1488577417
C   C8        1.0  0.75190  0.79270  0.34290  1.0000 -0.1430993072
C   C9        1.0  0.74300  0.78710  0.25930  1.0000 -0.0289954274
C   C10       1.0  0.64500  0.52950  0.93430  1.0000 -0.1104436713
C   C11       1.0  0.61250  0.78540  0.20360  1.0000 0.6029770681
C   C12       1.0  0.67460  0.40610  0.89620  1.0000 0.6223780819
C   C13       1.0  0.99180  0.78380  0.36140  1.0000 -0.1488577417
C   C14       1.0  0.81020  0.58220  0.83130  1.0000 0.0893654638
C   C15       1.0  0.66020  0.60440  0.92770  1.0000 -0.0018033829
C   C16       1.0  0.78610  0.50840  0.84080  1.0000 -0.1577796927
C   C17       1.0  0.92300  0.74250  0.53800  1.0000 0.0893654638
C   C18       1.0  0.94130  0.75180  0.62230  1.0000 -0.0713710851
C   C19       1.0  0.86720  0.86480  0.51840  1.0000 -0.1891039825
C   C20       1.0  0.97310  0.69300  0.68120  1.0000 -0.1041813782
C   C21       1.0  0.73740  0.69850  0.71030  1.0000 -0.458951698
C   C22       1.0  0.93410  0.82400  0.65720  1.0000 0.2123521276
C   C23       1.0  0.03210  0.57640  0.78770  1.0000 -0.2018896929
C   C24       1.0  0.09710  0.65670  0.69200  1.0000 0.1757678249
C   C25       1.0  0.87400  0.66600  0.72560  1.0000 0.0826612831
C   C26       1.0  0.12800  0.59740  0.74480  1.0000 -0.0185998788
C   C27       1.0  0.90490  0.61030  0.78180  1.0000 -0.0185998788
C   C28       1.0  0.58300  0.65660  0.97370  1.0000 0.5344947883
C   C29       1.0  0.26580  0.55740  0.74970  1.0000 0.2754533001
C   C30       1.0  0.88660  0.88250  0.60550  1.0000 -0.0524066641
C   C31       1.0  0.93330  0.66850  0.50360  1.0000 -0.458951698
C   C32       1.0  0.38030  0.60970  0.77490  1.0000 -0.4706484965
C   C33       1.0  0.27360  0.49790  0.80820  1.0000 -0.458951698
C   C34       1.0  0.85300  0.95380  0.63360  1.0000 0.270831258
C   C35       1.0  0.26980  0.52460  0.66730  1.0000 -0.4768967918
C   C36       1.0  0.81400  0.00900  0.56400  1.0000 -0.4706484965
C   C37       1.0  0.98100  0.98770  0.68560  1.0000 -0.4433297059
C   C38       1.0  0.75000  0.94920  0.69120  1.0000 -0.458951698
C   C39       1.0  0.89600  0.26480  0.75830  1.0000 0.5228151986
C   C40       1.0  0.11210  0.29960  0.51340  1.0000 -0.0112747113
C   C41       1.0  0.12740  0.29590  0.60340  1.0000 0.0893654638
C   C42       1.0  0.29390  0.98530  0.10740  1.0000 -0.0018033829
C   C43       1.0  0.01930  0.27650  0.72470  1.0000 -0.0112747113
C   C44       1.0  0.14160  0.27950  0.77460  1.0000 -0.1104436713
C   C45       1.0  0.25410  0.12870  0.12100  1.0000 -0.1488577417
C   C46       1.0  0.24810  0.29270  0.65710  1.0000 -0.1430993072
C   C47       1.0  0.25700  0.28710  0.74070  1.0000 -0.0289954274
C   C48       1.0  0.35500  0.02950  0.06570  1.0000 -0.1104436713
C   C49       1.0  0.38750  0.28540  0.79640  1.0000 0.6029770681
C   C50       1.0  0.32540  0.90610  0.10380  1.0000 0.6223780819
C   C51       1.0  0.00820  0.28380  0.63860  1.0000 -0.1488577417
C   C52       1.0  0.18980  0.08220  0.16870  1.0000 0.0893654638
C   C53       1.0  0.33980  0.10440  0.07230  1.0000 -0.0018033829
C   C54       1.0  0.21390  0.00840  0.15920  1.0000 -0.1577796927
C   C55       1.0  0.07700  0.24250  0.46200  1.0000 0.095423446
C   C56       1.0  0.05870  0.25180  0.37770  1.0000 -0.0713710851
C   C57       1.0  0.13280  0.36480  0.48160  1.0000 -0.1891039825
C   C58       1.0  0.02690  0.19300  0.31880  1.0000 -0.1041813782
C   C59       1.0  0.26260  0.19850  0.28970  1.0000 -0.458951698
C   C60       1.0  0.06590  0.32400  0.34280  1.0000 0.2123521276
C   C61       1.0  0.96790  0.07640  0.21230  1.0000 -0.2018896929
C   C62       1.0  0.90290  0.15670  0.30800  1.0000 0.1757678249
C   C63       1.0  0.12600  0.16600  0.27440  1.0000 0.0826612831
C   C64       1.0  0.87200  0.09740  0.25520  1.0000 -0.0185998788
C   C65       1.0  0.09510  0.11030  0.21820  1.0000 -0.0185998788
C   C66       1.0  0.41700  0.15660  0.02630  1.0000 0.5344947883
C   C67       1.0  0.73420  0.05740  0.25030  1.0000 0.2754533001
C   C68       1.0  0.11340  0.38250  0.39450  1.0000 -0.0524066641
C   C69       1.0  0.06670  0.16850  0.49640  1.0000 -0.458951698
C   C70       1.0  0.61970  0.10970  0.22510  1.0000 -0.4706484965
C   C71       1.0  0.72640  0.99790  0.19180  1.0000 -0.458951698
C   C72       1.0  0.14700  0.45380  0.36640  1.0000 0.270831258
C   C73       1.0  0.73020  0.02460  0.33270  1.0000 -0.4768967918
C   C74       1.0  0.18600  0.50900  0.43600  1.0000 -0.4706484965
C   C75       1.0  0.01900  0.48770  0.31440  1.0000 -0.4433297059
C   C76       1.0  0.25000  0.44920  0.30880  1.0000 -0.4496751022
O   O1        1.0  0.72050  0.36430  0.84930  1.0000 -0.5303717247
O   O2        1.0  0.59960  0.71850  0.96430  1.0000 -0.5170342814
O   O3        1.0  0.09500  0.74770  0.16650  1.0000 -0.5170342814
O   O4        1.0  0.21560  0.77570  0.28250  1.0000 -0.5170342814
O   O5        1.0  0.65620  0.23360  0.94450  1.0000 -1.0226136736
O   O6        1.0  0.51050  0.78080  0.23690  1.0000 -0.5620012573
O   O7        1.0  0.61450  0.78840  0.12820  1.0000 -0.5822767309
O   O8        1.0  0.60370  0.38850  0.94910  1.0000 -0.5878652028
O   O9        1.0  0.95180  0.83340  0.73890  1.0000 -0.4245467774
O   O10       1.0  0.19270  0.68500  0.65080  1.0000 -0.4496751022
O   O11       1.0  0.51180  0.63130  0.01970  1.0000 -0.4433297059
O   O12       1.0  0.27950  0.86430  0.15070  1.0000 -0.5303717247
O   O13       1.0  0.40040  0.21850  0.03570  1.0000 -0.5170342814
O   O14       1.0  0.90500  0.24770  0.83350  1.0000 -0.5170342814
O   O15       1.0  0.78440  0.27570  0.71750  1.0000 -0.5170342814
O   O16       1.0  0.34380  0.73360  0.05550  1.0000 -1.0226136736
O   O17       1.0  0.48950  0.28080  0.76310  1.0000 -0.5620012573
O   O18       1.0  0.38550  0.28840  0.87180  1.0000 -0.5822767309
O   O19       1.0  0.39630  0.88850  0.05090  1.0000 -0.5878652028
O   O20       1.0  0.04820  0.33340  0.26110  1.0000 -0.4245467774
O   O21       1.0  0.80730  0.18500  0.34920  1.0000 -0.4496751022
O   O22       1.0  0.48820  0.13130  0.98030  1.0000 -0.4433297059
