# DDEC6 charges by PACMAN v1.1 (https://github.com/mtap-research/PACMAN-charge/)
data_0000[Nd][nan]3[ASR]1
_chemical_formula_sum              "Nd4 H36 C60 O28"
_cell_length_a       13.9771
_cell_length_b       13.9771
_cell_length_c       14.975
_cell_angle_alpha    84.3747
_cell_angle_beta     95.6253
_cell_angle_gamma    125.862

_symmetry_space_group_name_H-M    "P 1"
_symmetry_Int_Tables_number       1

loop_
  _symmetry_equiv_pos_as_xyz
  'x, y, z'

loop_
  _atom_site_type_symbol
  _atom_site_label
  _atom_site_symmetry_multiplicity
  _atom_site_fract_x
  _atom_site_fract_y
  _atom_site_fract_z
  _atom_site_occupancy
  _atom_site_charge
Nd  Nd1       1.0  0.96975  0.62523  0.96741  1.0000 2.0770631955
Nd  Nd2       1.0  0.62523  0.96975  0.53259  1.0000 2.0770631955
Nd  Nd3       1.0  0.03025  0.37477  0.03259  1.0000 2.0770631955
Nd  Nd4       1.0  0.37477  0.03025  0.46741  1.0000 2.0770631955
H   H1        1.0  0.84243  0.84623  0.37832  1.0000 0.1194446125
H   H2        1.0  0.51235  0.57763  0.44117  1.0000 0.1194446125
H   H3        1.0  0.54240  0.44386  0.39623  1.0000 0.1194446125
H   H4        1.0  0.87076  0.71340  0.32816  1.0000 0.1038798821
H   H5        1.0  0.83292  0.57302  0.22859  1.0000 0.1194446125
H   H6        1.0  0.63963  0.35123  0.43308  1.0000 0.133889094
H   H7        1.0  0.81965  0.27943  0.29132  1.0000 0.133889094
H   H8        1.0  0.14324  0.88440  0.87346  1.0000 0.3550491259
H   H9        1.0  0.02877  0.81437  0.85204  1.0000 0.3038787097
H   H10       1.0  0.84623  0.84243  0.12168  1.0000 0.1194446125
H   H11       1.0  0.57763  0.51235  0.05883  1.0000 0.1194446125
H   H12       1.0  0.44386  0.54240  0.10377  1.0000 0.1194446125
H   H13       1.0  0.71340  0.87076  0.17184  1.0000 0.1038798821
H   H14       1.0  0.57302  0.83292  0.27141  1.0000 0.1194446125
H   H15       1.0  0.35123  0.63963  0.06692  1.0000 0.133889094
H   H16       1.0  0.27943  0.81965  0.20868  1.0000 0.133889094
H   H17       1.0  0.88440  0.14324  0.62654  1.0000 0.3545792625
H   H18       1.0  0.81437  0.02877  0.64796  1.0000 0.3038787097
H   H19       1.0  0.15757  0.15377  0.62168  1.0000 0.1194446125
H   H20       1.0  0.48765  0.42237  0.55883  1.0000 0.1194446125
H   H21       1.0  0.45760  0.55614  0.60377  1.0000 0.1194446125
H   H22       1.0  0.12924  0.28660  0.67184  1.0000 0.1038798821
H   H23       1.0  0.16708  0.42698  0.77141  1.0000 0.1194446125
H   H24       1.0  0.36037  0.64877  0.56692  1.0000 0.133889094
H   H25       1.0  0.18035  0.72057  0.70868  1.0000 0.133889094
H   H26       1.0  0.85676  0.11560  0.12654  1.0000 0.3545792625
H   H27       1.0  0.97123  0.18563  0.14796  1.0000 0.3038787097
H   H28       1.0  0.15377  0.15757  0.87832  1.0000 0.1194446125
H   H29       1.0  0.42237  0.48765  0.94117  1.0000 0.1194446125
H   H30       1.0  0.55614  0.45760  0.89623  1.0000 0.1194446125
H   H31       1.0  0.28660  0.12924  0.82816  1.0000 0.1038798821
H   H32       1.0  0.42698  0.16708  0.72859  1.0000 0.1194446125
H   H33       1.0  0.64877  0.36037  0.93308  1.0000 0.133889094
H   H34       1.0  0.72057  0.18035  0.79132  1.0000 0.133889094
H   H35       1.0  0.11560  0.85676  0.37346  1.0000 0.3550491259
H   H36       1.0  0.18563  0.97123  0.35204  1.0000 0.3038787097
C   C1        1.0  0.65782  0.80758  0.45960  1.0000 0.5620065853
C   C2        1.0  0.67546  0.72474  0.41850  1.0000 -0.0123882822
C   C3        1.0  0.78261  0.76559  0.38250  1.0000 -0.0967441611
C   C4        1.0  0.58536  0.60464  0.42080  1.0000 -0.0967441611
C   C5        1.0  0.60295  0.52425  0.39290  1.0000 -0.1484402641
C   C6        1.0  0.79978  0.68562  0.35290  1.0000 -0.1630455813
C   C7        1.0  0.71157  0.56383  0.35970  1.0000 0.0727652871
C   C8        1.0  0.73477  0.47823  0.33671  1.0000 0.0637914166
C   C9        1.0  0.80535  0.50445  0.26467  1.0000 -0.1484402641
C   C10       1.0  0.69092  0.37268  0.38790  1.0000 -0.1484402641
C   C11       1.0  0.72368  0.29892  0.37144  1.0000 -0.0123882822
C   C12       1.0  0.79666  0.32774  0.30135  1.0000 -0.1151432823
C   C13       1.0  0.83449  0.42831  0.24697  1.0000 -0.0167397344
C   C14       1.0  0.90917  0.45903  0.16790  1.0000 0.6446615384
C   C15       1.0  0.68513  0.19027  0.43050  1.0000 0.6214508937
C   C16       1.0  0.80758  0.65782  0.04040  1.0000 0.5620065853
C   C17       1.0  0.72474  0.67546  0.08150  1.0000 -0.0123882822
C   C18       1.0  0.76559  0.78261  0.11750  1.0000 -0.0967441611
C   C19       1.0  0.60464  0.58536  0.07920  1.0000 -0.0967441611
C   C20       1.0  0.52425  0.60295  0.10710  1.0000 -0.1484402641
C   C21       1.0  0.68562  0.79978  0.14710  1.0000 -0.1630455813
C   C22       1.0  0.56383  0.71157  0.14030  1.0000 0.0727652871
C   C23       1.0  0.47823  0.73477  0.16329  1.0000 0.0637914166
C   C24       1.0  0.50445  0.80535  0.23533  1.0000 -0.1484402641
C   C25       1.0  0.37268  0.69092  0.11210  1.0000 -0.1484402641
C   C26       1.0  0.29892  0.72368  0.12856  1.0000 -0.0123882822
C   C27       1.0  0.32774  0.79666  0.19865  1.0000 -0.1151432823
C   C28       1.0  0.42831  0.83449  0.25303  1.0000 -0.0167397344
C   C29       1.0  0.45903  0.90917  0.33210  1.0000 0.6446615384
C   C30       1.0  0.19027  0.68513  0.06950  1.0000 0.6214508937
C   C31       1.0  0.34218  0.19242  0.54040  1.0000 0.5620065853
C   C32       1.0  0.32454  0.27526  0.58150  1.0000 -0.0123882822
C   C33       1.0  0.21739  0.23441  0.61750  1.0000 -0.0967441611
C   C34       1.0  0.41464  0.39536  0.57920  1.0000 -0.0967441611
C   C35       1.0  0.39705  0.47575  0.60710  1.0000 -0.1484402641
C   C36       1.0  0.20022  0.31438  0.64710  1.0000 -0.1630455813
C   C37       1.0  0.28843  0.43617  0.64030  1.0000 0.0727652871
C   C38       1.0  0.26523  0.52177  0.66329  1.0000 0.0637914166
C   C39       1.0  0.19465  0.49555  0.73533  1.0000 -0.1484402641
C   C40       1.0  0.30908  0.62732  0.61210  1.0000 -0.1484402641
C   C41       1.0  0.27632  0.70108  0.62856  1.0000 -0.0123882822
C   C42       1.0  0.20334  0.67226  0.69865  1.0000 -0.1151432823
C   C43       1.0  0.16551  0.57169  0.75303  1.0000 -0.0167397344
C   C44       1.0  0.09083  0.54097  0.83210  1.0000 0.6446615384
C   C45       1.0  0.31487  0.80973  0.56950  1.0000 0.6214508937
C   C46       1.0  0.19242  0.34218  0.95960  1.0000 0.5620065853
C   C47       1.0  0.27526  0.32454  0.91850  1.0000 -0.0123882822
C   C48       1.0  0.23441  0.21739  0.88250  1.0000 -0.0967441611
C   C49       1.0  0.39536  0.41464  0.92080  1.0000 -0.0967441611
C   C50       1.0  0.47575  0.39705  0.89290  1.0000 -0.1484402641
C   C51       1.0  0.31438  0.20022  0.85290  1.0000 -0.1630455813
C   C52       1.0  0.43617  0.28843  0.85970  1.0000 0.0727652871
C   C53       1.0  0.52177  0.26523  0.83671  1.0000 0.0637914166
C   C54       1.0  0.49555  0.19465  0.76467  1.0000 -0.1484402641
C   C55       1.0  0.62732  0.30908  0.88790  1.0000 -0.1484402641
C   C56       1.0  0.70108  0.27632  0.87144  1.0000 -0.0123882822
C   C57       1.0  0.67226  0.20334  0.80135  1.0000 -0.1151432823
C   C58       1.0  0.57169  0.16551  0.74697  1.0000 -0.0167397344
C   C59       1.0  0.54097  0.09083  0.66790  1.0000 0.6446615384
C   C60       1.0  0.80973  0.31487  0.93050  1.0000 0.6214508937
O   O1        1.0  0.93132  0.38668  0.15247  1.0000 -0.6765006258
O   O2        1.0  0.94371  0.55409  0.12424  1.0000 -0.6412216499
O   O3        1.0  0.58603  0.13343  0.46679  1.0000 -0.7435460164
O   O4        1.0  0.75382  0.15968  0.44473  1.0000 -0.5876866057
O   O5        1.0  0.74325  0.91715  0.46130  1.0000 -0.6282543018
O   O6        1.0  0.56117  0.76683  0.49248  1.0000 -0.6282543018
O   O7        1.0  0.07977  0.82663  0.89060  1.0000 -0.6858905628
O   O8        1.0  0.38668  0.93132  0.34753  1.0000 -0.6765006258
O   O9        1.0  0.55409  0.94371  0.37576  1.0000 -0.6412216499
O   O10       1.0  0.13343  0.58603  0.03321  1.0000 -0.7435460164
O   O11       1.0  0.15968  0.75382  0.05527  1.0000 -0.5876866057
O   O12       1.0  0.91715  0.74325  0.03870  1.0000 -0.6282543018
O   O13       1.0  0.76683  0.56117  0.00752  1.0000 -0.6282543018
O   O14       1.0  0.82663  0.07977  0.60940  1.0000 -0.6858905628
O   O15       1.0  0.06868  0.61332  0.84753  1.0000 -0.6765006258
O   O16       1.0  0.05629  0.44591  0.87576  1.0000 -0.6412216499
O   O17       1.0  0.41397  0.86657  0.53321  1.0000 -0.7435460164
O   O18       1.0  0.24618  0.84032  0.55527  1.0000 -0.5876866057
O   O19       1.0  0.25675  0.08285  0.53870  1.0000 -0.6282543018
O   O20       1.0  0.43883  0.23317  0.50752  1.0000 -0.6282543018
O   O21       1.0  0.92023  0.17337  0.10940  1.0000 -0.6858905628
O   O22       1.0  0.61332  0.06868  0.65247  1.0000 -0.6765006258
O   O23       1.0  0.44591  0.05629  0.62424  1.0000 -0.6412216499
O   O24       1.0  0.86657  0.41397  0.96679  1.0000 -0.7435460164
O   O25       1.0  0.84032  0.24618  0.94473  1.0000 -0.5876866057
O   O26       1.0  0.08285  0.25675  0.96130  1.0000 -0.6282543018
O   O27       1.0  0.23317  0.43883  0.99248  1.0000 -0.6282543018
O   O28       1.0  0.17337  0.92023  0.39060  1.0000 -0.6858905628
