# DDEC6 charges by PACMAN v1.1 (https://github.com/mtap-research/PACMAN-charge/)
data_0000[Zn][hcb]2[ASR]2
_chemical_formula_sum              "Zn4 H28 C44 S4 N4 O16"
_cell_length_a       14.5983
_cell_length_b       5.9838
_cell_length_c       17.4345
_cell_angle_alpha    90
_cell_angle_beta     106.668
_cell_angle_gamma    90

_symmetry_space_group_name_H-M    "P 1"
_symmetry_Int_Tables_number       1

loop_
  _symmetry_equiv_pos_as_xyz
  'x, y, z'

loop_
  _atom_site_type_symbol
  _atom_site_label
  _atom_site_symmetry_multiplicity
  _atom_site_fract_x
  _atom_site_fract_y
  _atom_site_fract_z
  _atom_site_occupancy
  _atom_site_charge
Zn  Zn1       1.0  0.27516  0.89873  0.11501  1.0000 0.8238912149
Zn  Zn2       1.0  0.10765  0.49209  0.29300  1.0000 0.853351198
Zn  Zn3       1.0  0.72484  0.39873  0.88499  1.0000 0.8238912149
Zn  Zn4       1.0  0.89235  0.99209  0.70700  1.0000 0.853351198
H   H1        1.0  0.10150  0.94410  0.87010  1.0000 0.108264421
H   H2        1.0  0.17360  0.60590  0.89370  1.0000 0.1336882411
H   H3        1.0  0.10010  0.49420  0.81880  1.0000 0.1452343984
H   H4        1.0  0.05540  0.27300  0.65580  1.0000 0.1194261889
H   H5        1.0  0.06220  0.42860  0.53680  1.0000 0.1194261889
H   H6        1.0  0.19130  0.87890  0.48770  1.0000 0.1336882411
H   H7        1.0  0.19040  0.72890  0.61060  1.0000 0.108264421
H   H8        1.0  0.40020  0.83050  0.32470  1.0000 0.108264421
H   H9        1.0  0.46060  0.49040  0.36600  1.0000 0.143398024
H   H10       1.0  0.42210  0.38350  0.27990  1.0000 0.143398024
H   H11       1.0  0.47140  0.17260  0.14300  1.0000 0.1194261889
H   H12       1.0  0.54350  0.32810  0.05340  1.0000 0.1194261889
H   H13       1.0  0.69480  0.76820  0.05790  1.0000 0.1336882411
H   H14       1.0  0.63110  0.62080  0.15450  1.0000 0.108264421
H   H15       1.0  0.89850  0.44410  0.12990  1.0000 0.108264421
H   H16       1.0  0.82640  0.10590  0.10630  1.0000 0.1336882411
H   H17       1.0  0.89990  0.99420  0.18120  1.0000 0.1452343984
H   H18       1.0  0.94460  0.77300  0.34420  1.0000 0.1194261889
H   H19       1.0  0.93780  0.92860  0.46320  1.0000 0.1194261889
H   H20       1.0  0.80870  0.37890  0.51230  1.0000 0.1336882411
H   H21       1.0  0.80960  0.22890  0.38940  1.0000 0.108264421
H   H22       1.0  0.59980  0.33050  0.67530  1.0000 0.108264421
H   H23       1.0  0.53940  0.99040  0.63400  1.0000 0.143398024
H   H24       1.0  0.57790  0.88350  0.72010  1.0000 0.143398024
H   H25       1.0  0.52860  0.67260  0.85700  1.0000 0.1194261889
H   H26       1.0  0.45650  0.82810  0.94660  1.0000 0.1194261889
H   H27       1.0  0.30520  0.26820  0.94210  1.0000 0.1336882411
H   H28       1.0  0.36890  0.12080  0.84550  1.0000 0.108264421
C   C1        1.0  0.97810  0.76610  0.85670  1.0000 0.5584365054
C   C2        1.0  0.06730  0.82840  0.83300  1.0000 -0.0078415472
C   C3        1.0  0.13510  0.62990  0.83890  1.0000 -0.229136672
C   C4        1.0  0.11390  0.88570  0.72010  1.0000 0.1764827593
C   C5        1.0  0.11930  0.98440  0.64420  1.0000 0.0197764456
C   C6        1.0  0.08290  0.19320  0.62230  1.0000 -0.1007345469
C   C7        1.0  0.08670  0.28610  0.55090  1.0000 -0.107111592
C   C8        1.0  0.12660  0.16870  0.50030  1.0000 -0.0013064217
C   C9        1.0  0.16460  0.95880  0.52170  1.0000 -0.0909860657
C   C10       1.0  0.16270  0.86770  0.59480  1.0000 -0.13392929
C   C11       1.0  0.12640  0.26790  0.42070  1.0000 0.5357136054
C   C12       1.0  0.27970  0.66920  0.26190  1.0000 0.5911072417
C   C13       1.0  0.38480  0.72090  0.28110  1.0000 -0.0268338259
C   C14       1.0  0.44980  0.51660  0.30920  1.0000 -0.229136672
C   C15       1.0  0.49520  0.77930  0.21350  1.0000 0.1764827593
C   C16       1.0  0.54310  0.87730  0.15670  1.0000 0.0295414103
C   C17       1.0  0.51700  0.09210  0.12670  1.0000 -0.107111592
C   C18       1.0  0.55940  0.18380  0.07250  1.0000 -0.107111592
C   C19       1.0  0.62580  0.06130  0.04630  1.0000 -0.0243538322
C   C20       1.0  0.65100  0.85090  0.07580  1.0000 -0.1007345469
C   C21       1.0  0.61140  0.76060  0.13270  1.0000 -0.1377308743
C   C22       1.0  0.66860  0.16360  0.98590  1.0000 0.5306902452
C   C23       1.0  0.02190  0.26610  0.14330  1.0000 0.5584365054
C   C24       1.0  0.93270  0.32840  0.16700  1.0000 -0.0078415472
C   C25       1.0  0.86490  0.12990  0.16110  1.0000 -0.229136672
C   C26       1.0  0.88610  0.38570  0.27990  1.0000 0.1764827593
C   C27       1.0  0.88070  0.48440  0.35580  1.0000 0.0197764456
C   C28       1.0  0.91710  0.69320  0.37770  1.0000 -0.1007345469
C   C29       1.0  0.91330  0.78610  0.44910  1.0000 -0.107111592
C   C30       1.0  0.87340  0.66870  0.49970  1.0000 -0.0013064217
C   C31       1.0  0.83540  0.45880  0.47830  1.0000 -0.0909860657
C   C32       1.0  0.83730  0.36770  0.40520  1.0000 -0.13392929
C   C33       1.0  0.87360  0.76790  0.57930  1.0000 0.5357136054
C   C34       1.0  0.72030  0.16920  0.73810  1.0000 0.5911072417
C   C35       1.0  0.61520  0.22090  0.71890  1.0000 -0.0268338259
C   C36       1.0  0.55020  0.01660  0.69080  1.0000 -0.229136672
C   C37       1.0  0.50480  0.27930  0.78650  1.0000 0.1764827593
C   C38       1.0  0.45690  0.37730  0.84330  1.0000 0.0295414103
C   C39       1.0  0.48300  0.59210  0.87330  1.0000 -0.107111592
C   C40       1.0  0.44060  0.68380  0.92750  1.0000 -0.107111592
C   C41       1.0  0.37420  0.56130  0.95370  1.0000 -0.0243538322
C   C42       1.0  0.34900  0.35090  0.92420  1.0000 -0.1007345469
C   C43       1.0  0.38860  0.26060  0.86730  1.0000 -0.1377308743
C   C44       1.0  0.33140  0.66360  0.01410  1.0000 0.5306902452
S   S1        1.0  0.20866  0.71630  0.77581  1.0000 0.0134671962
S   S2        1.0  0.56026  0.59230  0.28763  1.0000 0.0197764456
S   S3        1.0  0.79134  0.21630  0.22419  1.0000 0.0134671962
S   S4        1.0  0.43974  0.09230  0.71237  1.0000 0.0197764456
N   N1        1.0  0.04550  0.91880  0.75130  1.0000 -0.3115236239
N   N2        1.0  0.40940  0.82170  0.21240  1.0000 -0.3185242341
N   N3        1.0  0.95450  0.41880  0.24870  1.0000 -0.3115236239
N   N4        1.0  0.59060  0.32170  0.78760  1.0000 -0.3185242341
O   O1        1.0  0.99190  0.66910  0.92180  1.0000 -0.4946892412
O   O2        1.0  0.89750  0.81620  0.80930  1.0000 -0.5256327764
O   O3        1.0  0.13380  0.14470  0.36550  1.0000 -0.5075615174
O   O4        1.0  0.11840  0.47270  0.41200  1.0000 -0.5003859477
O   O5        1.0  0.25270  0.55320  0.31120  1.0000 -0.4946892412
O   O6        1.0  0.22460  0.75140  0.19850  1.0000 -0.5075615174
O   O7        1.0  0.66270  0.36920  0.97450  1.0000 -0.5075615174
O   O8        1.0  0.71150  0.04270  0.94970  1.0000 -0.5003859477
O   O9        1.0  0.00810  0.16910  0.07820  1.0000 -0.4946892412
O   O10       1.0  0.10250  0.31620  0.19070  1.0000 -0.5256327764
O   O11       1.0  0.86620  0.64470  0.63450  1.0000 -0.5075615174
O   O12       1.0  0.88160  0.97270  0.58800  1.0000 -0.5003859477
O   O13       1.0  0.74730  0.05320  0.68880  1.0000 -0.4946892412
O   O14       1.0  0.77540  0.25140  0.80150  1.0000 -0.5075615174
O   O15       1.0  0.33730  0.86920  0.02550  1.0000 -0.5075615174
O   O16       1.0  0.28850  0.54270  0.05030  1.0000 -0.5003859477
