# DDEC6 charges by PACMAN v1.1 (https://github.com/mtap-research/PACMAN-charge/)
data_0000[Eu][flu]3[ASR]1
_chemical_formula_sum              "Eu2 H14 C26 N4 O12"
_cell_length_a       9.0968
_cell_length_b       9.6763
_cell_length_c       11.5065
_cell_angle_alpha    106.914
_cell_angle_beta     93.967
_cell_angle_gamma    108.27

_symmetry_space_group_name_H-M    "P 1"
_symmetry_Int_Tables_number       1

loop_
  _symmetry_equiv_pos_as_xyz
  'x, y, z'

loop_
  _atom_site_type_symbol
  _atom_site_label
  _atom_site_symmetry_multiplicity
  _atom_site_fract_x
  _atom_site_fract_y
  _atom_site_fract_z
  _atom_site_occupancy
  _atom_site_charge
Eu  Eu1       1.0  0.27846  0.02824  0.99159  1.0000 2.0880256651
Eu  Eu2       1.0  0.72154  0.97176  0.00841  1.0000 2.0880256651
H   H1        1.0  0.18700  0.55600  0.38300  1.0000 0.1190157492
H   H2        1.0  0.81300  0.44400  0.61700  1.0000 0.1190157492
H   H3        1.0  0.25800  0.64800  0.57500  1.0000 0.1190157492
H   H4        1.0  0.74200  0.35200  0.42500  1.0000 0.1190157492
H   H5        1.0  0.92500  0.86500  0.58300  1.0000 0.1190157492
H   H6        1.0  0.07500  0.13500  0.41700  1.0000 0.1190157492
H   H7        1.0  0.89800  0.78400  0.35800  1.0000 0.1280590354
H   H8        1.0  0.10200  0.21600  0.64200  1.0000 0.1280590354
H   H9        1.0  0.87200  0.46200  0.19400  1.0000 0.1435155331
H   H10       1.0  0.12800  0.53800  0.80600  1.0000 0.1435155331
H   H11       1.0  0.89000  0.62200  0.18000  1.0000 0.10934395
H   H12       1.0  0.11000  0.37800  0.82000  1.0000 0.10934395
H   H13       1.0  0.35200  0.44500  0.03400  1.0000 0.165969765
H   H14       1.0  0.64800  0.55500  0.96600  1.0000 0.165969765
C   C1        1.0  0.01240  0.83600  0.53400  1.0000 -0.0890466513
C   C2        1.0  0.98760  0.16400  0.46600  1.0000 -0.0890466513
C   C3        1.0  0.18190  0.69230  0.53810  1.0000 -0.0991998555
C   C4        1.0  0.81810  0.30770  0.46190  1.0000 -0.0991998555
C   C5        1.0  0.12600  0.60940  0.41360  1.0000 -0.151196258
C   C6        1.0  0.87400  0.39060  0.58640  1.0000 -0.151196258
C   C7        1.0  0.28670  0.50040  0.06860  1.0000 -0.2369051815
C   C8        1.0  0.71330  0.49960  0.93140  1.0000 -0.2369051815
C   C9        1.0  0.12350  0.80670  0.59880  1.0000 -0.0331151735
C   C10       1.0  0.87650  0.19330  0.40120  1.0000 -0.0331151735
C   C11       1.0  0.05790  0.26970  0.07570  1.0000 0.644014871
C   C12       1.0  0.94210  0.73030  0.92430  1.0000 0.644014871
C   C13       1.0  0.14400  0.43620  0.09870  1.0000 -0.0063495878
C   C14       1.0  0.85600  0.56380  0.90130  1.0000 -0.0063495878
C   C15       1.0  0.31040  0.65500  0.09810  1.0000 0.0612194
C   C16       1.0  0.68960  0.34500  0.90190  1.0000 0.0612194
C   C17       1.0  0.01550  0.64320  0.34620  1.0000 0.10934395
C   C18       1.0  0.98450  0.35680  0.65380  1.0000 0.10934395
C   C19       1.0  0.95870  0.55850  0.21100  1.0000 -0.1611244174
C   C20       1.0  0.04130  0.44150  0.78900  1.0000 -0.1611244174
C   C21       1.0  0.18790  0.90000  0.73150  1.0000 0.579192376
C   C22       1.0  0.81210  0.10000  0.26850  1.0000 0.579192376
C   C23       1.0  0.95880  0.75660  0.40820  1.0000 -0.151196258
C   C24       1.0  0.04120  0.24340  0.59180  1.0000 -0.151196258
C   C25       1.0  0.44230  0.77480  0.07370  1.0000 0.6217102765
C   C26       1.0  0.55770  0.22520  0.92630  1.0000 0.6217102765
N   N1        1.0  0.08810  0.55240  0.14490  1.0000 0.165969765
N   N2        1.0  0.91190  0.44760  0.85510  1.0000 0.165969765
N   N3        1.0  0.18970  0.68910  0.14460  1.0000 -0.2621586414
N   N4        1.0  0.81030  0.31090  0.85540  1.0000 -0.2621586414
O   O1        1.0  0.41900  0.88720  0.04720  1.0000 -0.7615500928
O   O2        1.0  0.58100  0.11280  0.95280  1.0000 -0.7615500928
O   O3        1.0  0.91280  0.22790  0.07930  1.0000 -0.6504115106
O   O4        1.0  0.08720  0.77210  0.92070  1.0000 -0.6504115106
O   O5        1.0  0.12090  0.98890  0.79140  1.0000 -0.6356227638
O   O6        1.0  0.87910  0.01110  0.20860  1.0000 -0.6349919082
O   O7        1.0  0.13440  0.18100  0.04570  1.0000 -0.7178342582
O   O8        1.0  0.86560  0.81900  0.95430  1.0000 -0.7178342582
O   O9        1.0  0.57320  0.76030  0.07710  1.0000 -0.5966084243
O   O10       1.0  0.42680  0.23970  0.92290  1.0000 -0.5966084243
O   O11       1.0  0.30410  0.88420  0.78600  1.0000 -0.6214081885
O   O12       1.0  0.69590  0.11580  0.21400  1.0000 -0.6214081885
