# DDEC6 charges by PACMAN v1.1 (https://github.com/mtap-research/PACMAN-charge/)
data_0000[Ce][nan]3[ASR]2
_chemical_formula_sum              "Ce8 C40 O48"
_cell_length_a       6.673
_cell_length_b       14.044
_cell_length_c       23.825
_cell_angle_alpha    90
_cell_angle_beta     90
_cell_angle_gamma    90

_symmetry_space_group_name_H-M    "P 1"
_symmetry_Int_Tables_number       1

loop_
  _symmetry_equiv_pos_as_xyz
  'x, y, z'

loop_
  _atom_site_type_symbol
  _atom_site_label
  _atom_site_symmetry_multiplicity
  _atom_site_fract_x
  _atom_site_fract_y
  _atom_site_fract_z
  _atom_site_occupancy
  _atom_site_charge
Ce  Ce1       1.0  0.11856  0.29434  0.36608  1.0000 1.7888086008
Ce  Ce2       1.0  0.61856  0.20566  0.13392  1.0000 1.7888086008
Ce  Ce3       1.0  0.88144  0.20566  0.86608  1.0000 1.7888086008
Ce  Ce4       1.0  0.38144  0.29434  0.63392  1.0000 1.7888086008
Ce  Ce5       1.0  0.88144  0.70566  0.63392  1.0000 1.7888086008
Ce  Ce6       1.0  0.38144  0.79434  0.86608  1.0000 1.7888086008
Ce  Ce7       1.0  0.11856  0.79434  0.13392  1.0000 1.7888086008
Ce  Ce8       1.0  0.61856  0.70566  0.36608  1.0000 1.7888086008
C   C1        1.0  0.97780  0.10940  0.26770  1.0000 0.1762650459
C   C2        1.0  0.47780  0.39060  0.23230  1.0000 0.1762650459
C   C3        1.0  0.02220  0.39060  0.76770  1.0000 0.1762650459
C   C4        1.0  0.52220  0.10940  0.73230  1.0000 0.1762650459
C   C5        1.0  0.02220  0.89060  0.73230  1.0000 0.1762650459
C   C6        1.0  0.52220  0.60940  0.76770  1.0000 0.1762650459
C   C7        1.0  0.97780  0.60940  0.23230  1.0000 0.1762650459
C   C8        1.0  0.47780  0.89060  0.26770  1.0000 0.1762650459
C   C9        1.0  0.94410  0.06720  0.21220  1.0000 0.1645801457
C   C10       1.0  0.44410  0.43280  0.28780  1.0000 0.1645801457
C   C11       1.0  0.05590  0.43280  0.71220  1.0000 0.1645801457
C   C12       1.0  0.55590  0.06720  0.78780  1.0000 0.1645801457
C   C13       1.0  0.05590  0.93280  0.78780  1.0000 0.1645801457
C   C14       1.0  0.55590  0.56720  0.71220  1.0000 0.1645801457
C   C15       1.0  0.94410  0.56720  0.28780  1.0000 0.1645801457
C   C16       1.0  0.44410  0.93280  0.21220  1.0000 0.1645801457
C   C17       1.0  0.98690  0.97280  0.23390  1.0000 0.1535526382
C   C18       1.0  0.48690  0.52720  0.26610  1.0000 0.1535526382
C   C19       1.0  0.01310  0.52720  0.73390  1.0000 0.1535526382
C   C20       1.0  0.51310  0.97280  0.76610  1.0000 0.1535526382
C   C21       1.0  0.01310  0.02720  0.76610  1.0000 0.1535526382
C   C22       1.0  0.51310  0.47280  0.73390  1.0000 0.1535526382
C   C23       1.0  0.98690  0.47280  0.26610  1.0000 0.1535526382
C   C24       1.0  0.48690  0.02720  0.23390  1.0000 0.1535526382
C   C25       1.0  0.01190  0.01280  0.29060  1.0000 0.1379310059
C   C26       1.0  0.51190  0.48720  0.20940  1.0000 0.1379310059
C   C27       1.0  0.98810  0.48720  0.79060  1.0000 0.1379310059
C   C28       1.0  0.48810  0.01280  0.70940  1.0000 0.1379310059
C   C29       1.0  0.98810  0.98720  0.70940  1.0000 0.1379310059
C   C30       1.0  0.48810  0.51280  0.79060  1.0000 0.1379310059
C   C31       1.0  0.01190  0.51280  0.20940  1.0000 0.1379310059
C   C32       1.0  0.51190  0.98720  0.29060  1.0000 0.1379310059
C   C33       1.0  0.13830  0.29610  0.50890  1.0000 0.5524614023
C   C34       1.0  0.63830  0.20390  0.99110  1.0000 0.5524614023
C   C35       1.0  0.86170  0.20390  0.00890  1.0000 0.5524614023
C   C36       1.0  0.36170  0.29610  0.49110  1.0000 0.5524614023
C   C37       1.0  0.86170  0.70390  0.49110  1.0000 0.5524614023
C   C38       1.0  0.36170  0.79610  0.00890  1.0000 0.5524614023
C   C39       1.0  0.13830  0.79610  0.99110  1.0000 0.5524614023
C   C40       1.0  0.63830  0.70390  0.50890  1.0000 0.5524614023
O   O1        1.0  0.97560  0.19180  0.28690  1.0000 -0.4890169931
O   O2        1.0  0.47560  0.30820  0.21310  1.0000 -0.4890169931
O   O3        1.0  0.02440  0.30820  0.78690  1.0000 -0.4890169931
O   O4        1.0  0.52440  0.19180  0.71310  1.0000 -0.4890169931
O   O5        1.0  0.02440  0.80820  0.71310  1.0000 -0.4890169931
O   O6        1.0  0.52440  0.69180  0.78690  1.0000 -0.4890169931
O   O7        1.0  0.97560  0.69180  0.21310  1.0000 -0.4890169931
O   O8        1.0  0.47560  0.80820  0.28690  1.0000 -0.4890169931
O   O9        1.0  0.89420  0.09620  0.16440  1.0000 -0.4775239771
O   O10       1.0  0.39420  0.40380  0.33560  1.0000 -0.4775239771
O   O11       1.0  0.10580  0.40380  0.66440  1.0000 -0.4775239771
O   O12       1.0  0.60580  0.09620  0.83560  1.0000 -0.4775239771
O   O13       1.0  0.10580  0.90380  0.83560  1.0000 -0.4775239771
O   O14       1.0  0.60580  0.59620  0.66440  1.0000 -0.4775239771
O   O15       1.0  0.89420  0.59620  0.33560  1.0000 -0.4775239771
O   O16       1.0  0.39420  0.90380  0.16440  1.0000 -0.4775239771
O   O17       1.0  0.99550  0.89010  0.21410  1.0000 -0.4775239771
O   O18       1.0  0.49550  0.60990  0.28590  1.0000 -0.4775239771
O   O19       1.0  0.00450  0.60990  0.71410  1.0000 -0.4775239771
O   O20       1.0  0.50450  0.89010  0.78590  1.0000 -0.4775239771
O   O21       1.0  0.00450  0.10990  0.78590  1.0000 -0.4775239771
O   O22       1.0  0.50450  0.39010  0.71410  1.0000 -0.4775239771
O   O23       1.0  0.99550  0.39010  0.28590  1.0000 -0.4775239771
O   O24       1.0  0.49550  0.10990  0.21410  1.0000 -0.4775239771
O   O25       1.0  0.04420  0.97920  0.33780  1.0000 -0.2984320244
O   O26       1.0  0.54420  0.52080  0.16220  1.0000 -0.2984320244
O   O27       1.0  0.95580  0.52080  0.83780  1.0000 -0.2984320244
O   O28       1.0  0.45580  0.97920  0.66220  1.0000 -0.2984320244
O   O29       1.0  0.95580  0.02080  0.66220  1.0000 -0.2984320244
O   O30       1.0  0.45580  0.47920  0.83780  1.0000 -0.2984320244
O   O31       1.0  0.04420  0.47920  0.16220  1.0000 -0.2984320244
O   O32       1.0  0.54420  0.02080  0.33780  1.0000 -0.2984320244
O   O33       1.0  0.01210  0.29340  0.47080  1.0000 -0.6082309021
O   O34       1.0  0.51210  0.20660  0.02920  1.0000 -0.6082309021
O   O35       1.0  0.98790  0.20660  0.97080  1.0000 -0.6082309021
O   O36       1.0  0.48790  0.29340  0.52920  1.0000 -0.6082309021
O   O37       1.0  0.98790  0.70660  0.52920  1.0000 -0.6082309021
O   O38       1.0  0.48790  0.79340  0.97080  1.0000 -0.6082309021
O   O39       1.0  0.01210  0.79340  0.02920  1.0000 -0.6082309021
O   O40       1.0  0.51210  0.70660  0.47080  1.0000 -0.6082309021
O   O41       1.0  0.10470  0.30010  0.56070  1.0000 -0.6228709651
O   O42       1.0  0.60470  0.19990  0.93930  1.0000 -0.6228709651
O   O43       1.0  0.89530  0.19990  0.06070  1.0000 -0.6228709651
O   O44       1.0  0.39530  0.30010  0.43930  1.0000 -0.6228709651
O   O45       1.0  0.89530  0.69990  0.43930  1.0000 -0.6228709651
O   O46       1.0  0.39530  0.80010  0.06070  1.0000 -0.6228709651
O   O47       1.0  0.10470  0.80010  0.93930  1.0000 -0.6228709651
O   O48       1.0  0.60470  0.69990  0.56070  1.0000 -0.6228709651
