# DDEC6 charges by PACMAN v1.1 (https://github.com/mtap-research/PACMAN-charge/)
data_0000[Cu][ths]3[ASR]3
_chemical_formula_sum              "Cu8 H96 C120 N24"
_cell_length_a       19.028
_cell_length_b       17.5355
_cell_length_c       14.8831
_cell_angle_alpha    71.3481
_cell_angle_beta     60.8279
_cell_angle_gamma    47.824

_symmetry_space_group_name_H-M    "P 1"
_symmetry_Int_Tables_number       1

loop_
  _symmetry_equiv_pos_as_xyz
  'x, y, z'

loop_
  _atom_site_type_symbol
  _atom_site_label
  _atom_site_symmetry_multiplicity
  _atom_site_fract_x
  _atom_site_fract_y
  _atom_site_fract_z
  _atom_site_occupancy
  _atom_site_charge
Cu  Cu1       1.0  0.14760  0.84040  0.38820  1.0000 0.1616925978
Cu  Cu2       1.0  0.62380  0.38820  0.84040  1.0000 0.1616925978
Cu  Cu3       1.0  0.40960  0.10240  0.62620  1.0000 0.1616925978
Cu  Cu4       1.0  0.86180  0.62620  0.10240  1.0000 0.1616925978
Cu  Cu5       1.0  0.84040  0.14760  0.62380  1.0000 0.1616925978
Cu  Cu6       1.0  0.38820  0.62380  0.14760  1.0000 0.1616925978
Cu  Cu7       1.0  0.10240  0.40960  0.86180  1.0000 0.1616925978
Cu  Cu8       1.0  0.62620  0.86180  0.40960  1.0000 0.1616925978
H   H1        1.0  0.15560  0.71300  0.57200  1.0000 0.0833066799
H   H2        1.0  0.55940  0.57200  0.71300  1.0000 0.0833066799
H   H3        1.0  0.53700  0.09440  0.69060  1.0000 0.0833066799
H   H4        1.0  0.67800  0.69060  0.09440  1.0000 0.0833066799
H   H5        1.0  0.26490  0.60390  0.65810  1.0000 0.1195505474
H   H6        1.0  0.47310  0.65810  0.60390  1.0000 0.1195505474
H   H7        1.0  0.64610  0.98510  0.77690  1.0000 0.1195505474
H   H8        1.0  0.59190  0.77690  0.98510  1.0000 0.1195505474
H   H9        1.0  0.45400  0.67100  0.45320  1.0000 0.1195505474
H   H10       1.0  0.42180  0.45320  0.67100  1.0000 0.1195505474
H   H11       1.0  0.57900  0.79600  0.82820  1.0000 0.1195505474
H   H12       1.0  0.79680  0.82820  0.79600  1.0000 0.1195505474
H   H13       1.0  0.34700  0.76800  0.36440  1.0000 0.0891203296
H   H14       1.0  0.52060  0.36440  0.76800  1.0000 0.0891203296
H   H15       1.0  0.48200  0.90300  0.72940  1.0000 0.0891203296
H   H16       1.0  0.88560  0.72940  0.90300  1.0000 0.0891203296
H   H17       1.0  0.79130  0.23710  0.91410  1.0000 0.0891203296
H   H18       1.0  0.05750  0.91410  0.23710  1.0000 0.0891203296
H   H19       1.0  0.01290  0.45870  0.19250  1.0000 0.0891203296
H   H20       1.0  0.33590  0.19250  0.45870  1.0000 0.0891203296
H   H21       1.0  0.95730  0.16990  0.87250  1.0000 0.1195505474
H   H22       1.0  0.00030  0.87250  0.16990  1.0000 0.1195505474
H   H23       1.0  0.08010  0.29270  0.24970  1.0000 0.1195505474
H   H24       1.0  0.37750  0.24970  0.29270  1.0000 0.1195505474
H   H25       1.0  0.93140  0.37160  0.63680  1.0000 0.1195505474
H   H26       1.0  0.06020  0.63680  0.37160  1.0000 0.1195505474
H   H27       1.0  0.87840  0.31860  0.18980  1.0000 0.1195505474
H   H28       1.0  0.61320  0.18980  0.31860  1.0000 0.1195505474
H   H29       1.0  0.77160  0.41960  0.67800  1.0000 0.0833066799
H   H30       1.0  0.13080  0.67800  0.41960  1.0000 0.0833066799
H   H31       1.0  0.83040  0.47840  0.11920  1.0000 0.0833066799
H   H32       1.0  0.57200  0.11920  0.47840  1.0000 0.0833066799
H   H33       1.0  0.29210  0.02150  0.72610  1.0000 0.0891203296
H   H34       1.0  0.96030  0.72610  0.02150  1.0000 0.0891203296
H   H35       1.0  0.22850  0.95790  0.28970  1.0000 0.0891203296
H   H36       1.0  0.52390  0.28970  0.95790  1.0000 0.0891203296
H   H37       1.0  0.12750  0.07890  0.77830  1.0000 0.1195505474
H   H38       1.0  0.01530  0.77830  0.07890  1.0000 0.1195505474
H   H39       1.0  0.17110  0.12250  0.23470  1.0000 0.1195505474
H   H40       1.0  0.47170  0.23470  0.12250  1.0000 0.1195505474
H   H41       1.0  0.04920  0.35760  0.66080  1.0000 0.1195505474
H   H42       1.0  0.93240  0.66080  0.35760  1.0000 0.1195505474
H   H43       1.0  0.89240  0.20080  0.31760  1.0000 0.1195505474
H   H44       1.0  0.58920  0.31760  0.20080  1.0000 0.1195505474
H   H45       1.0  0.21380  0.29360  0.62620  1.0000 0.0891203296
H   H46       1.0  0.86640  0.62620  0.29360  1.0000 0.0891203296
H   H47       1.0  0.95640  0.03620  0.38360  1.0000 0.0891203296
H   H48       1.0  0.62380  0.38360  0.03620  1.0000 0.0891203296
H   H49       1.0  0.71300  0.15560  0.55940  1.0000 0.0833066799
H   H50       1.0  0.57200  0.55940  0.15560  1.0000 0.0833066799
H   H51       1.0  0.09440  0.53700  0.67800  1.0000 0.0833066799
H   H52       1.0  0.69060  0.67800  0.53700  1.0000 0.0833066799
H   H53       1.0  0.60390  0.26490  0.47310  1.0000 0.1195505474
H   H54       1.0  0.65810  0.47310  0.26490  1.0000 0.1195505474
H   H55       1.0  0.98510  0.64610  0.59190  1.0000 0.1195505474
H   H56       1.0  0.77690  0.59190  0.64610  1.0000 0.1195505474
H   H57       1.0  0.67100  0.45400  0.42180  1.0000 0.1195505474
H   H58       1.0  0.45320  0.42180  0.45400  1.0000 0.1195505474
H   H59       1.0  0.79600  0.57900  0.79680  1.0000 0.1195505474
H   H60       1.0  0.82820  0.79680  0.57900  1.0000 0.1195505474
H   H61       1.0  0.76800  0.34700  0.52060  1.0000 0.0891203296
H   H62       1.0  0.36440  0.52060  0.34700  1.0000 0.0891203296
H   H63       1.0  0.90300  0.48200  0.88560  1.0000 0.0891203296
H   H64       1.0  0.72940  0.88560  0.48200  1.0000 0.0891203296
H   H65       1.0  0.23710  0.79130  0.05750  1.0000 0.0891203296
H   H66       1.0  0.91410  0.05750  0.79130  1.0000 0.0891203296
H   H67       1.0  0.45870  0.01290  0.33590  1.0000 0.0891203296
H   H68       1.0  0.19250  0.33590  0.01290  1.0000 0.0891203296
H   H69       1.0  0.16990  0.95730  0.00030  1.0000 0.1195505474
H   H70       1.0  0.87250  0.00030  0.95730  1.0000 0.1195505474
H   H71       1.0  0.29270  0.08010  0.37750  1.0000 0.1195505474
H   H72       1.0  0.24970  0.37750  0.08010  1.0000 0.1195505474
H   H73       1.0  0.37160  0.93140  0.06020  1.0000 0.1195505474
H   H74       1.0  0.63680  0.06020  0.93140  1.0000 0.1195505474
H   H75       1.0  0.31860  0.87840  0.61320  1.0000 0.1195505474
H   H76       1.0  0.18980  0.61320  0.87840  1.0000 0.1195505474
H   H77       1.0  0.41960  0.77160  0.13080  1.0000 0.0833066799
H   H78       1.0  0.67800  0.13080  0.77160  1.0000 0.0833066799
H   H79       1.0  0.47840  0.83040  0.57200  1.0000 0.0833066799
H   H80       1.0  0.11920  0.57200  0.83040  1.0000 0.0833066799
H   H81       1.0  0.02150  0.29210  0.96030  1.0000 0.0891203296
H   H82       1.0  0.72610  0.96030  0.29210  1.0000 0.0891203296
H   H83       1.0  0.95790  0.22850  0.52390  1.0000 0.0891203296
H   H84       1.0  0.28970  0.52390  0.22850  1.0000 0.0891203296
H   H85       1.0  0.07890  0.12750  0.01530  1.0000 0.1195505474
H   H86       1.0  0.77830  0.01530  0.12750  1.0000 0.1195505474
H   H87       1.0  0.12250  0.17110  0.47170  1.0000 0.1195505474
H   H88       1.0  0.23470  0.47170  0.17110  1.0000 0.1195505474
H   H89       1.0  0.35760  0.04920  0.93240  1.0000 0.1195505474
H   H90       1.0  0.66080  0.93240  0.04920  1.0000 0.1195505474
H   H91       1.0  0.20080  0.89240  0.58920  1.0000 0.1195505474
H   H92       1.0  0.31760  0.58920  0.89240  1.0000 0.1195505474
H   H93       1.0  0.29360  0.21380  0.86640  1.0000 0.0891203296
H   H94       1.0  0.62620  0.86640  0.21380  1.0000 0.0891203296
H   H95       1.0  0.03620  0.95640  0.62380  1.0000 0.0891203296
H   H96       1.0  0.38360  0.62380  0.95640  1.0000 0.0891203296
C   C1        1.0  0.21930  0.70170  0.54430  1.0000 0.0222123199
C   C2        1.0  0.53470  0.54430  0.70170  1.0000 0.0222123199
C   C3        1.0  0.54830  0.03070  0.71530  1.0000 0.0222123199
C   C4        1.0  0.70570  0.71530  0.03070  1.0000 0.0222123199
C   C5        1.0  0.27910  0.64310  0.60070  1.0000 -0.2098765064
C   C6        1.0  0.47710  0.60070  0.64310  1.0000 -0.2098765064
C   C7        1.0  0.60690  0.97090  0.77290  1.0000 -0.2098765064
C   C8        1.0  0.64930  0.77290  0.97090  1.0000 -0.2098765064
C   C9        1.0  0.36710  0.63110  0.56990  1.0000 0.0891203296
C   C10       1.0  0.43190  0.56990  0.63110  1.0000 0.0891203296
C   C11       1.0  0.61890  0.88290  0.81810  1.0000 0.0891203296
C   C12       1.0  0.68010  0.81810  0.88290  1.0000 0.0891203296
C   C13       1.0  0.39210  0.67890  0.48030  1.0000 -0.2098765064
C   C14       1.0  0.44870  0.48030  0.67890  1.0000 -0.2098765064
C   C15       1.0  0.57110  0.85790  0.80130  1.0000 -0.2098765064
C   C16       1.0  0.76970  0.80130  0.85790  1.0000 -0.2098765064
C   C17       1.0  0.32890  0.73550  0.42690  1.0000 0.0338231121
C   C18       1.0  0.50870  0.42690  0.73550  1.0000 0.0338231121
C   C19       1.0  0.51450  0.92110  0.74130  1.0000 0.0338231121
C   C20       1.0  0.82310  0.74130  0.92110  1.0000 0.0338231121
C   C21       1.0  0.82270  0.26270  0.85510  1.0000 0.0376195199
C   C22       1.0  0.05950  0.85510  0.26270  1.0000 0.0376195199
C   C23       1.0  0.98730  0.42730  0.19050  1.0000 0.0376195199
C   C24       1.0  0.39490  0.19050  0.42730  1.0000 0.0376195199
C   C25       1.0  0.91980  0.22540  0.83260  1.0000 -0.2098765064
C   C26       1.0  0.02220  0.83260  0.22540  1.0000 -0.2098765064
C   C27       1.0  0.02460  0.33020  0.22780  1.0000 -0.2098765064
C   C28       1.0  0.41740  0.22780  0.33020  1.0000 -0.2098765064
C   C29       1.0  0.96420  0.26360  0.74980  1.0000 0.095652162
C   C30       1.0  0.02240  0.74980  0.26360  1.0000 0.095652162
C   C31       1.0  0.98640  0.28580  0.22760  1.0000 0.095652162
C   C32       1.0  0.50020  0.22760  0.28580  1.0000 0.095652162
C   C33       1.0  0.90570  0.33990  0.69330  1.0000 -0.2161839056
C   C34       1.0  0.06110  0.69330  0.33990  1.0000 -0.2161839056
C   C35       1.0  0.91010  0.34430  0.18890  1.0000 -0.2161839056
C   C36       1.0  0.55670  0.18890  0.34430  1.0000 -0.2161839056
C   C37       1.0  0.80920  0.37200  0.72100  1.0000 0.0222123199
C   C38       1.0  0.09780  0.72100  0.37200  1.0000 0.0222123199
C   C39       1.0  0.87800  0.44080  0.15220  1.0000 0.0222123199
C   C40       1.0  0.52900  0.15220  0.44080  1.0000 0.0222123199
C   C41       1.0  0.23900  0.09280  0.71820  1.0000 0.0450812456
C   C42       1.0  0.95000  0.71820  0.09280  1.0000 0.0450812456
C   C43       1.0  0.15720  0.01100  0.30000  1.0000 0.0450812456
C   C44       1.0  0.53180  0.30000  0.01100  1.0000 0.0450812456
C   C45       1.0  0.14360  0.12480  0.74280  1.0000 -0.2098765064
C   C46       1.0  0.98880  0.74280  0.12480  1.0000 -0.2098765064
C   C47       1.0  0.12520  0.10640  0.26120  1.0000 -0.2098765064
C   C48       1.0  0.50720  0.26120  0.10640  1.0000 -0.2098765064
C   C49       1.0  0.06810  0.22530  0.72290  1.0000 0.095652162
C   C50       1.0  0.98370  0.72290  0.22530  1.0000 0.095652162
C   C51       1.0  0.02470  0.18190  0.26630  1.0000 0.095652162
C   C52       1.0  0.52710  0.26630  0.18190  1.0000 0.095652162
C   C53       1.0  0.09760  0.28760  0.67700  1.0000 -0.2098765064
C   C54       1.0  0.93780  0.67700  0.28760  1.0000 -0.2098765064
C   C55       1.0  0.96240  0.15240  0.31220  1.0000 -0.2098765064
C   C56       1.0  0.57300  0.31220  0.15240  1.0000 -0.2098765064
C   C57       1.0  0.19550  0.24890  0.65550  1.0000 0.0338231121
C   C58       1.0  0.90010  0.65550  0.24890  1.0000 0.0338231121
C   C59       1.0  0.00110  0.05450  0.34990  1.0000 0.0338231121
C   C60       1.0  0.59450  0.34990  0.05450  1.0000 0.0338231121
C   C61       1.0  0.70170  0.21930  0.53470  1.0000 0.0222123199
C   C62       1.0  0.54430  0.53470  0.21930  1.0000 0.0222123199
C   C63       1.0  0.03070  0.54830  0.70570  1.0000 0.0222123199
C   C64       1.0  0.71530  0.70570  0.54830  1.0000 0.0222123199
C   C65       1.0  0.64310  0.27910  0.47710  1.0000 -0.2098765064
C   C66       1.0  0.60070  0.47710  0.27910  1.0000 -0.2098765064
C   C67       1.0  0.97090  0.60690  0.64930  1.0000 -0.2098765064
C   C68       1.0  0.77290  0.64930  0.60690  1.0000 -0.2098765064
C   C69       1.0  0.63110  0.36710  0.43190  1.0000 0.0891203296
C   C70       1.0  0.56990  0.43190  0.36710  1.0000 0.0891203296
C   C71       1.0  0.88290  0.61890  0.68010  1.0000 0.0891203296
C   C72       1.0  0.81810  0.68010  0.61890  1.0000 0.0891203296
C   C73       1.0  0.67890  0.39210  0.44870  1.0000 -0.2098765064
C   C74       1.0  0.48030  0.44870  0.39210  1.0000 -0.2098765064
C   C75       1.0  0.85790  0.57110  0.76970  1.0000 -0.2098765064
C   C76       1.0  0.80130  0.76970  0.57110  1.0000 -0.2098765064
C   C77       1.0  0.73550  0.32890  0.50870  1.0000 0.0338231121
C   C78       1.0  0.42690  0.50870  0.32890  1.0000 0.0338231121
C   C79       1.0  0.92110  0.51450  0.82310  1.0000 0.0338231121
C   C80       1.0  0.74130  0.82310  0.51450  1.0000 0.0338231121
C   C81       1.0  0.26270  0.82270  0.05950  1.0000 0.0376195199
C   C82       1.0  0.85510  0.05950  0.82270  1.0000 0.0376195199
C   C83       1.0  0.42730  0.98730  0.39490  1.0000 0.0376195199
C   C84       1.0  0.19050  0.39490  0.98730  1.0000 0.0376195199
C   C85       1.0  0.22540  0.91980  0.02220  1.0000 -0.2098765064
C   C86       1.0  0.83260  0.02220  0.91980  1.0000 -0.2098765064
C   C87       1.0  0.33020  0.02460  0.41740  1.0000 -0.2098765064
C   C88       1.0  0.22780  0.41740  0.02460  1.0000 -0.2098765064
C   C89       1.0  0.26360  0.96420  0.02240  1.0000 0.095652162
C   C90       1.0  0.74980  0.02240  0.96420  1.0000 0.095652162
C   C91       1.0  0.28580  0.98640  0.50020  1.0000 0.095652162
C   C92       1.0  0.22760  0.50020  0.98640  1.0000 0.095652162
C   C93       1.0  0.33990  0.90570  0.06110  1.0000 -0.2161839056
C   C94       1.0  0.69330  0.06110  0.90570  1.0000 -0.2161839056
C   C95       1.0  0.34430  0.91010  0.55670  1.0000 -0.2161839056
C   C96       1.0  0.18890  0.55670  0.91010  1.0000 -0.2161839056
C   C97       1.0  0.37200  0.80920  0.09780  1.0000 0.0222123199
C   C98       1.0  0.72100  0.09780  0.80920  1.0000 0.0222123199
C   C99       1.0  0.44080  0.87800  0.52900  1.0000 0.0222123199
C   C100      1.0  0.15220  0.52900  0.87800  1.0000 0.0222123199
C   C101      1.0  0.09280  0.23900  0.95000  1.0000 0.0450812456
C   C102      1.0  0.71820  0.95000  0.23900  1.0000 0.0450812456
C   C103      1.0  0.01100  0.15720  0.53180  1.0000 0.0450812456
C   C104      1.0  0.30000  0.53180  0.15720  1.0000 0.0450812456
C   C105      1.0  0.12480  0.14360  0.98880  1.0000 -0.2098765064
C   C106      1.0  0.74280  0.98880  0.14360  1.0000 -0.2098765064
C   C107      1.0  0.10640  0.12520  0.50720  1.0000 -0.2098765064
C   C108      1.0  0.26120  0.50720  0.12520  1.0000 -0.2098765064
C   C109      1.0  0.22530  0.06810  0.98370  1.0000 0.095652162
C   C110      1.0  0.72290  0.98370  0.06810  1.0000 0.095652162
C   C111      1.0  0.18190  0.02470  0.52710  1.0000 0.095652162
C   C112      1.0  0.26630  0.52710  0.02470  1.0000 0.095652162
C   C113      1.0  0.28760  0.09760  0.93780  1.0000 -0.2098765064
C   C114      1.0  0.67700  0.93780  0.09760  1.0000 -0.2098765064
C   C115      1.0  0.15240  0.96240  0.57300  1.0000 -0.2098765064
C   C116      1.0  0.31220  0.57300  0.96240  1.0000 -0.2098765064
C   C117      1.0  0.24890  0.19550  0.90010  1.0000 0.0338231121
C   C118      1.0  0.65550  0.90010  0.19550  1.0000 0.0338231121
C   C119      1.0  0.05450  0.00110  0.59450  1.0000 0.0338231121
C   C120      1.0  0.34990  0.59450  0.00110  1.0000 0.0338231121
N   N1        1.0  0.24190  0.74930  0.45810  1.0000 -0.2098765064
N   N2        1.0  0.55070  0.45810  0.74930  1.0000 -0.2098765064
N   N3        1.0  0.50070  0.00810  0.69930  1.0000 -0.2098765064
N   N4        1.0  0.79190  0.69930  0.00810  1.0000 -0.2098765064
N   N5        1.0  0.76670  0.33470  0.80090  1.0000 -0.20092195
N   N6        1.0  0.09770  0.80090  0.33470  1.0000 -0.20092195
N   N7        1.0  0.91530  0.48330  0.15230  1.0000 -0.20092195
N   N8        1.0  0.44910  0.15230  0.48330  1.0000 -0.20092195
N   N9        1.0  0.26690  0.15230  0.67410  1.0000 -0.20092195
N   N10       1.0  0.90670  0.67410  0.15230  1.0000 -0.20092195
N   N11       1.0  0.09770  0.98310  0.34330  1.0000 -0.20092195
N   N12       1.0  0.57590  0.34330  0.98310  1.0000 -0.20092195
N   N13       1.0  0.74930  0.24190  0.55070  1.0000 -0.2098765064
N   N14       1.0  0.45810  0.55070  0.24190  1.0000 -0.2098765064
N   N15       1.0  0.00810  0.50070  0.79190  1.0000 -0.2098765064
N   N16       1.0  0.69930  0.79190  0.50070  1.0000 -0.2098765064
N   N17       1.0  0.33470  0.76670  0.09770  1.0000 -0.20092195
N   N18       1.0  0.80090  0.09770  0.76670  1.0000 -0.20092195
N   N19       1.0  0.48330  0.91530  0.44910  1.0000 -0.20092195
N   N20       1.0  0.15230  0.44910  0.91530  1.0000 -0.20092195
N   N21       1.0  0.15230  0.26690  0.90670  1.0000 -0.20092195
N   N22       1.0  0.67410  0.90670  0.26690  1.0000 -0.20092195
N   N23       1.0  0.98310  0.09770  0.57590  1.0000 -0.20092195
N   N24       1.0  0.34330  0.57590  0.09770  1.0000 -0.20092195
