# DDEC6 charges by PACMAN v1.1 (https://github.com/mtap-research/PACMAN-charge/)
data_1998[V][nan]3[ASR]2
_chemical_formula_sum              "V8 P8 H24 C12 O28"
_cell_length_a       8.79238
_cell_length_b       8.79238
_cell_length_c       18.9901
_cell_angle_alpha    84.5926
_cell_angle_beta     95.4074
_cell_angle_gamma    108.74

_symmetry_space_group_name_H-M    "P 1"
_symmetry_Int_Tables_number       1

loop_
  _symmetry_equiv_pos_as_xyz
  'x, y, z'

loop_
  _atom_site_type_symbol
  _atom_site_label
  _atom_site_symmetry_multiplicity
  _atom_site_fract_x
  _atom_site_fract_y
  _atom_site_fract_z
  _atom_site_occupancy
  _atom_site_charge
V   V1        1.0  0.22990  0.54070  0.91060  1.0000 1.7931394963
V   V2        1.0  0.54070  0.22990  0.58940  1.0000 1.7931394963
V   V3        1.0  0.77010  0.45930  0.08940  1.0000 1.7931394963
V   V4        1.0  0.45930  0.77010  0.41060  1.0000 1.7931394963
V   V5        1.0  0.21630  0.67150  0.71920  1.0000 1.8192320256
V   V6        1.0  0.67150  0.21630  0.78080  1.0000 1.8192320256
V   V7        1.0  0.78370  0.32850  0.28080  1.0000 1.8192320256
V   V8        1.0  0.32850  0.78370  0.21920  1.0000 1.8192320256
P   P1        1.0  0.84000  0.41020  0.92510  1.0000 1.4189986377
P   P2        1.0  0.41020  0.84000  0.57490  1.0000 1.4189986377
P   P3        1.0  0.16000  0.58980  0.07490  1.0000 1.4189986377
P   P4        1.0  0.58980  0.16000  0.42510  1.0000 1.4189986377
P   P5        1.0  0.50130  0.83370  0.83060  1.0000 1.3968046098
P   P6        1.0  0.83370  0.50130  0.66940  1.0000 1.3968046098
P   P7        1.0  0.49870  0.16630  0.16940  1.0000 1.3968046098
P   P8        1.0  0.16630  0.49870  0.33060  1.0000 1.3968046098
H   H1        1.0  0.91270  0.68550  0.93170  1.0000 0.1479290812
H   H2        1.0  0.68550  0.91270  0.56830  1.0000 0.1479290812
H   H3        1.0  0.08730  0.31450  0.06830  1.0000 0.1479290812
H   H4        1.0  0.31450  0.08730  0.43170  1.0000 0.1479290812
H   H5        1.0  0.91280  0.64500  0.85300  1.0000 0.1580264471
H   H6        1.0  0.64500  0.91280  0.64700  1.0000 0.1580264471
H   H7        1.0  0.08720  0.35500  0.14700  1.0000 0.1580264471
H   H8        1.0  0.35500  0.08720  0.35300  1.0000 0.1580264471
H   H9        1.0  0.76410  0.85010  0.81740  1.0000 0.1426579445
H   H10       1.0  0.85010  0.76410  0.68260  1.0000 0.1426579445
H   H11       1.0  0.23590  0.14990  0.18260  1.0000 0.1426579445
H   H12       1.0  0.14990  0.23590  0.31740  1.0000 0.1426579445
H   H13       1.0  0.74440  0.87800  0.89590  1.0000 0.1479290812
H   H14       1.0  0.87800  0.74440  0.60410  1.0000 0.1479290812
H   H15       1.0  0.25560  0.12200  0.10410  1.0000 0.1479290812
H   H16       1.0  0.12200  0.25560  0.39590  1.0000 0.1479290812
H   H17       1.0  0.62730  0.60190  0.92090  1.0000 0.0747747361
H   H18       1.0  0.60190  0.62730  0.57910  1.0000 0.0747747361
H   H19       1.0  0.37270  0.39810  0.07910  1.0000 0.0747747361
H   H20       1.0  0.39810  0.37270  0.42090  1.0000 0.0747747361
H   H21       1.0  0.63100  0.56920  0.84150  1.0000 0.1034627924
H   H22       1.0  0.56920  0.63100  0.65850  1.0000 0.1034627924
H   H23       1.0  0.36900  0.43080  0.15850  1.0000 0.1034627924
H   H24       1.0  0.43080  0.36900  0.34150  1.0000 0.1034627924
C   C1        1.0  0.85330  0.61450  0.89540  1.0000 -0.519667408
C   C2        1.0  0.61450  0.85330  0.60460  1.0000 -0.519667408
C   C3        1.0  0.14670  0.38550  0.10460  1.0000 -0.519667408
C   C4        1.0  0.38550  0.14670  0.39540  1.0000 -0.519667408
C   C5        1.0  0.69560  0.81140  0.85670  1.0000 -0.519667408
C   C6        1.0  0.81140  0.69560  0.64330  1.0000 -0.519667408
C   C7        1.0  0.30440  0.18860  0.14330  1.0000 -0.519667408
C   C8        1.0  0.18860  0.30440  0.35670  1.0000 -0.519667408
C   C9        1.0  0.68830  0.63730  0.87910  1.0000 -0.0765524344
C   C10       1.0  0.63730  0.68830  0.62090  1.0000 -0.0765524344
C   C11       1.0  0.31170  0.36270  0.12090  1.0000 -0.0765524344
C   C12       1.0  0.36270  0.31170  0.37910  1.0000 -0.0765524344
O   O1        1.0  0.77820  0.37100  0.99940  1.0000 -0.8287526578
O   O2        1.0  0.37100  0.77820  0.50060  1.0000 -0.8287526578
O   O3        1.0  0.22180  0.62900  0.00060  1.0000 -0.8287526578
O   O4        1.0  0.62900  0.22180  0.49940  1.0000 -0.8287526578
O   O5        1.0  0.00750  0.39190  0.92410  1.0000 -0.8287526578
O   O6        1.0  0.39190  0.00750  0.57590  1.0000 -0.8287526578
O   O7        1.0  0.99250  0.60810  0.07590  1.0000 -0.8287526578
O   O8        1.0  0.60810  0.99250  0.42410  1.0000 -0.8287526578
O   O9        1.0  0.44180  0.75280  0.76120  1.0000 -0.8476996185
O   O10       1.0  0.75280  0.44180  0.73880  1.0000 -0.8476996185
O   O11       1.0  0.55820  0.24720  0.23880  1.0000 -0.8476996185
O   O12       1.0  0.24720  0.55820  0.26120  1.0000 -0.8476996185
O   O13       1.0  0.38830  0.75410  0.89020  1.0000 -0.8287526578
O   O14       1.0  0.75410  0.38830  0.60980  1.0000 -0.8287526578
O   O15       1.0  0.61170  0.24590  0.10980  1.0000 -0.8287526578
O   O16       1.0  0.24590  0.61170  0.39020  1.0000 -0.8287526578
O   O17       1.0  0.71750  0.29530  0.87680  1.0000 -0.8159965784
O   O18       1.0  0.29530  0.71750  0.62320  1.0000 -0.8159965784
O   O19       1.0  0.28250  0.70470  0.12320  1.0000 -0.8159965784
O   O20       1.0  0.70470  0.28250  0.37680  1.0000 -0.8159965784
O   O21       1.0  0.51940  0.01360  0.82410  1.0000 -0.8038019599
O   O22       1.0  0.01360  0.51940  0.67590  1.0000 -0.8038019599
O   O23       1.0  0.48060  0.98640  0.17590  1.0000 -0.8038019599
O   O24       1.0  0.98640  0.48060  0.32410  1.0000 -0.8038019599
O   O25       1.0  0.15780  0.53960  0.80950  1.0000 -1.1333114714
O   O26       1.0  0.53960  0.15780  0.69050  1.0000 -1.1333114714
O   O27       1.0  0.84220  0.46040  0.19050  1.0000 -1.1333114714
O   O28       1.0  0.46040  0.84220  0.30950  1.0000 -1.1333114714
