# DDEC6 charges by PACMAN v1.1 (https://github.com/mtap-research/PACMAN-charge/)
data_1998[La][nan]3[ASR]1
_chemical_formula_sum              "La2 H24 C18 O12"
_cell_length_a       9.239
_cell_length_b       9.79
_cell_length_c       10.709
_cell_angle_alpha    111.96
_cell_angle_beta     84.49
_cell_angle_gamma    117.99

_symmetry_space_group_name_H-M    "P 1"
_symmetry_Int_Tables_number       1

loop_
  _symmetry_equiv_pos_as_xyz
  'x, y, z'

loop_
  _atom_site_type_symbol
  _atom_site_label
  _atom_site_symmetry_multiplicity
  _atom_site_fract_x
  _atom_site_fract_y
  _atom_site_fract_z
  _atom_site_occupancy
  _atom_site_charge
La  La1       1.0  0.77530  0.54380  0.01590  1.0000 1.8696620398
La  La2       1.0  0.22470  0.45620  0.98410  1.0000 1.8696620398
H   H1        1.0  0.11300  0.73200  0.43600  1.0000 0.1391653402
H   H2        1.0  0.88700  0.26800  0.56400  1.0000 0.1391653402
H   H3        1.0  0.17000  0.59800  0.34800  1.0000 0.1391653402
H   H4        1.0  0.83000  0.40200  0.65200  1.0000 0.1391653402
H   H5        1.0  0.86700  0.51700  0.46800  1.0000 0.0998471002
H   H6        1.0  0.13300  0.48300  0.53200  1.0000 0.0998471002
H   H7        1.0  0.91500  0.38100  0.37100  1.0000 0.0998471002
H   H8        1.0  0.08500  0.61900  0.62900  1.0000 0.0998471002
H   H9        1.0  0.36100  0.38100  0.37400  1.0000 0.1314632826
H   H10       1.0  0.63900  0.61900  0.62600  1.0000 0.1314632826
H   H11       1.0  0.53800  0.52700  0.37400  1.0000 0.1391653402
H   H12       1.0  0.46200  0.47300  0.62600  1.0000 0.1391653402
H   H13       1.0  0.63400  0.33900  0.24800  1.0000 0.0936177381
H   H14       1.0  0.36600  0.66100  0.75200  1.0000 0.0936177381
H   H15       1.0  0.57700  0.31300  0.38600  1.0000 0.0721462266
H   H16       1.0  0.42300  0.68700  0.61400  1.0000 0.0721462266
H   H17       1.0  0.38100  0.10200  0.12800  1.0000 0.0998471002
H   H18       1.0  0.61900  0.89800  0.87200  1.0000 0.0998471002
H   H19       1.0  0.32500  0.07600  0.26300  1.0000 0.0936177381
H   H20       1.0  0.67500  0.92400  0.73700  1.0000 0.0936177381
H   H21       1.0  0.56700  0.04200  0.27600  1.0000 0.1247576409
H   H22       1.0  0.43300  0.95800  0.72400  1.0000 0.1247576409
H   H23       1.0  0.59800  0.04300  0.12500  1.0000 0.1314632826
H   H24       1.0  0.40200  0.95700  0.87500  1.0000 0.1314632826
C   C1        1.0  0.98670  0.59470  0.25200  1.0000 0.6529259615
C   C2        1.0  0.01330  0.40530  0.74800  1.0000 0.6529259615
C   C3        1.0  0.07460  0.61630  0.37480  1.0000 -0.3333031602
C   C4        1.0  0.92540  0.38370  0.62520  1.0000 -0.3333031602
C   C5        1.0  0.95760  0.49480  0.43980  1.0000 -0.1390845916
C   C6        1.0  0.04240  0.50520  0.56020  1.0000 -0.1390845916
C   C7        1.0  0.40020  0.41200  0.19480  1.0000 0.6631722682
C   C8        1.0  0.59980  0.58800  0.80520  1.0000 0.6631722682
C   C9        1.0  0.45640  0.41140  0.32190  1.0000 -0.3409144051
C   C10       1.0  0.54360  0.58860  0.67810  1.0000 -0.3409144051
C   C11       1.0  0.53700  0.29940  0.29500  1.0000 -0.1390845916
C   C12       1.0  0.46300  0.70060  0.70500  1.0000 -0.1390845916
C   C13       1.0  0.42280  0.11610  0.21520  1.0000 -0.1349716253
C   C14       1.0  0.57720  0.88390  0.78480  1.0000 -0.1349716253
C   C15       1.0  0.51460  0.01480  0.19050  1.0000 -0.321335382
C   C16       1.0  0.48540  0.98520  0.80950  1.0000 -0.321335382
C   C17       1.0  0.40740  0.82880  0.12500  1.0000 0.6180232697
C   C18       1.0  0.59260  0.17120  0.87500  1.0000 0.6180232697
O   O1        1.0  0.02200  0.53180  0.13460  1.0000 -0.6447761125
O   O2        1.0  0.97800  0.46820  0.86540  1.0000 -0.6487193174
O   O3        1.0  0.87250  0.63420  0.26630  1.0000 -0.6095983303
O   O4        1.0  0.12750  0.36580  0.73370  1.0000 -0.6095983303
O   O5        1.0  0.50100  0.44900  0.11020  1.0000 -0.6487193174
O   O6        1.0  0.49900  0.55100  0.88980  1.0000 -0.6487193174
O   O7        1.0  0.42200  0.73440  0.17300  1.0000 -0.6222646601
O   O8        1.0  0.57800  0.26560  0.82700  1.0000 -0.6222646601
O   O9        1.0  0.25240  0.37800  0.17680  1.0000 -0.6222646601
O   O10       1.0  0.74760  0.62200  0.82320  1.0000 -0.6222646601
O   O11       1.0  0.30850  0.76710  0.02270  1.0000 -0.6095983303
O   O12       1.0  0.69150  0.23290  0.97730  1.0000 -0.6095983303
