# DDEC6 charges by PACMAN v1.1 (https://github.com/mtap-research/PACMAN-charge/)
data_1998[CuMo][nan]3[ASR]1
_chemical_formula_sum              "Cu8 Mo8 H36 C40 N12 O28"
_cell_length_a       7.5233
_cell_length_b       27.4599
_cell_length_c       9.2537
_cell_angle_alpha    90
_cell_angle_beta     108.27
_cell_angle_gamma    90

_symmetry_space_group_name_H-M    "P 1"
_symmetry_Int_Tables_number       1

loop_
  _symmetry_equiv_pos_as_xyz
  'x, y, z'

loop_
  _atom_site_type_symbol
  _atom_site_label
  _atom_site_symmetry_multiplicity
  _atom_site_fract_x
  _atom_site_fract_y
  _atom_site_fract_z
  _atom_site_occupancy
  _atom_site_charge
Cu  Cu1       1.0  0.36871  0.45256  0.51015  1.0000 0.983000746
Cu  Cu2       1.0  0.36871  0.04744  0.01015  1.0000 0.983000746
Cu  Cu3       1.0  0.63129  0.54744  0.48985  1.0000 0.983000746
Cu  Cu4       1.0  0.63129  0.95256  0.98985  1.0000 0.983000746
Cu  Cu5       1.0  0.81050  0.53141  0.20209  1.0000 1.037332913
Cu  Cu6       1.0  0.81050  0.96859  0.70209  1.0000 1.037332913
Cu  Cu7       1.0  0.18950  0.46859  0.79791  1.0000 1.037332913
Cu  Cu8       1.0  0.18950  0.03141  0.29791  1.0000 1.037332913
Mo  Mo1       1.0  0.70970  0.49294  0.80915  1.0000 2.0424368587
Mo  Mo2       1.0  0.70970  0.00706  0.30915  1.0000 2.0424368587
Mo  Mo3       1.0  0.29030  0.50706  0.19085  1.0000 2.0424368587
Mo  Mo4       1.0  0.29030  0.99294  0.69085  1.0000 2.0424368587
Mo  Mo5       1.0  0.85176  0.44330  0.45169  1.0000 1.9614265171
Mo  Mo6       1.0  0.85176  0.05670  0.95169  1.0000 1.9525276628
Mo  Mo7       1.0  0.14824  0.55670  0.54831  1.0000 1.9525276628
Mo  Mo8       1.0  0.14824  0.94330  0.04831  1.0000 1.9614265171
H   H1        1.0  0.22510  0.36390  0.32760  1.0000 0.1086736387
H   H2        1.0  0.22510  0.13610  0.82760  1.0000 0.1086736387
H   H3        1.0  0.77490  0.63610  0.67240  1.0000 0.1086736387
H   H4        1.0  0.77490  0.86390  0.17240  1.0000 0.1086736387
H   H5        1.0  0.25030  0.28110  0.34990  1.0000 0.120688906
H   H6        1.0  0.25030  0.21890  0.84990  1.0000 0.120688906
H   H7        1.0  0.74970  0.71890  0.65010  1.0000 0.120688906
H   H8        1.0  0.74970  0.78110  0.15010  1.0000 0.120688906
H   H9        1.0  0.62440  0.29930  0.76340  1.0000 0.120688906
H   H10       1.0  0.62440  0.20070  0.26340  1.0000 0.120688906
H   H11       1.0  0.37560  0.70070  0.23660  1.0000 0.120688906
H   H12       1.0  0.37560  0.79930  0.73660  1.0000 0.120688906
H   H13       1.0  0.59970  0.38140  0.72590  1.0000 0.0988803115
H   H14       1.0  0.59970  0.11860  0.22590  1.0000 0.0988803115
H   H15       1.0  0.40030  0.61860  0.27410  1.0000 0.0988803115
H   H16       1.0  0.40030  0.88140  0.77410  1.0000 0.0988803115
H   H17       1.0  0.06300  0.13790  0.24210  1.0000 0.0898031209
H   H18       1.0  0.06300  0.36210  0.74210  1.0000 0.0898031209
H   H19       1.0  0.93700  0.86210  0.75790  1.0000 0.0898031209
H   H20       1.0  0.93700  0.63790  0.25790  1.0000 0.0898031209
H   H21       1.0  0.14960  0.21240  0.35370  1.0000 0.120688906
H   H22       1.0  0.14960  0.28760  0.85370  1.0000 0.120688906
H   H23       1.0  0.85040  0.78760  0.64630  1.0000 0.120688906
H   H24       1.0  0.85040  0.71240  0.14630  1.0000 0.120688906
H   H25       1.0  0.54300  0.22370  0.66800  1.0000 0.257576095
H   H26       1.0  0.54300  0.27630  0.16800  1.0000 0.257576095
H   H27       1.0  0.45700  0.77630  0.33200  1.0000 0.257576095
H   H28       1.0  0.45700  0.72370  0.83200  1.0000 0.257576095
H   H29       1.0  0.59860  0.14740  0.64770  1.0000 0.1256011036
H   H30       1.0  0.59860  0.35260  0.14770  1.0000 0.1256011036
H   H31       1.0  0.40140  0.85260  0.35230  1.0000 0.1256011036
H   H32       1.0  0.40140  0.64740  0.85230  1.0000 0.1256011036
H   H33       1.0  0.49920  0.07500  0.52770  1.0000 0.1086736387
H   H34       1.0  0.49920  0.42500  0.02770  1.0000 0.1086736387
H   H35       1.0  0.50080  0.92500  0.47230  1.0000 0.1086736387
H   H36       1.0  0.50080  0.57500  0.97230  1.0000 0.1086736387
C   C1        1.0  0.30610  0.35070  0.41640  1.0000 0.0704762769
C   C2        1.0  0.30610  0.14930  0.91640  1.0000 0.0704762769
C   C3        1.0  0.69390  0.64930  0.58360  1.0000 0.0704762769
C   C4        1.0  0.69390  0.85070  0.08360  1.0000 0.0704762769
C   C5        1.0  0.31900  0.30080  0.42980  1.0000 -0.2835102993
C   C6        1.0  0.31900  0.19920  0.92980  1.0000 -0.2835102993
C   C7        1.0  0.68100  0.69920  0.57020  1.0000 -0.2835102993
C   C8        1.0  0.68100  0.80080  0.07020  1.0000 -0.2835102993
C   C9        1.0  0.43470  0.27990  0.56250  1.0000 0.257576095
C   C10       1.0  0.43470  0.22010  0.06250  1.0000 0.257576095
C   C11       1.0  0.56530  0.72010  0.43750  1.0000 0.257576095
C   C12       1.0  0.56530  0.77990  0.93750  1.0000 0.257576095
C   C13       1.0  0.54170  0.31160  0.67380  1.0000 -0.2835102993
C   C14       1.0  0.54170  0.18840  0.17380  1.0000 -0.2835102993
C   C15       1.0  0.45830  0.68840  0.32620  1.0000 -0.2835102993
C   C16       1.0  0.45830  0.81160  0.82620  1.0000 -0.2835102993
C   C17       1.0  0.52490  0.36100  0.65120  1.0000 0.0786648673
C   C18       1.0  0.52490  0.13900  0.15120  1.0000 0.0786648673
C   C19       1.0  0.47510  0.63900  0.34880  1.0000 0.0786648673
C   C20       1.0  0.47510  0.86100  0.84880  1.0000 0.0786648673
C   C21       1.0  0.17120  0.13980  0.32530  1.0000 0.0898031209
C   C22       1.0  0.17120  0.36020  0.82530  1.0000 0.0898031209
C   C23       1.0  0.82880  0.86020  0.67470  1.0000 0.0898031209
C   C24       1.0  0.82880  0.63980  0.17470  1.0000 0.0898031209
C   C25       1.0  0.22300  0.18510  0.39090  1.0000 -0.2835102993
C   C26       1.0  0.22300  0.31490  0.89090  1.0000 -0.2835102993
C   C27       1.0  0.77700  0.81490  0.60910  1.0000 -0.2835102993
C   C28       1.0  0.77700  0.68510  0.10910  1.0000 -0.2835102993
C   C29       1.0  0.38580  0.18910  0.51280  1.0000 0.2471499052
C   C30       1.0  0.38580  0.31090  0.01280  1.0000 0.2471499052
C   C31       1.0  0.61420  0.81090  0.48720  1.0000 0.2471499052
C   C32       1.0  0.61420  0.68910  0.98720  1.0000 0.2471499052
C   C33       1.0  0.48950  0.14630  0.56520  1.0000 -0.2699828737
C   C34       1.0  0.48950  0.35370  0.06520  1.0000 -0.2699828737
C   C35       1.0  0.51050  0.85370  0.43480  1.0000 -0.2699828737
C   C36       1.0  0.51050  0.64630  0.93480  1.0000 -0.2699828737
C   C37       1.0  0.42780  0.10280  0.49330  1.0000 0.0786648673
C   C38       1.0  0.42780  0.39720  0.99330  1.0000 0.0898031209
C   C39       1.0  0.57220  0.89720  0.50670  1.0000 0.0898031209
C   C40       1.0  0.57220  0.60280  0.00670  1.0000 0.0786648673
N   N1        1.0  0.40520  0.38130  0.52600  1.0000 -0.2699828737
N   N2        1.0  0.40520  0.11870  0.02600  1.0000 -0.2699828737
N   N3        1.0  0.59480  0.61870  0.47400  1.0000 -0.2699828737
N   N4        1.0  0.59480  0.88130  0.97400  1.0000 -0.2699828737
N   N5        1.0  0.46060  0.23100  0.59480  1.0000 -0.374420518
N   N6        1.0  0.46060  0.26900  0.09480  1.0000 -0.374420518
N   N7        1.0  0.53940  0.76900  0.40520  1.0000 -0.374420518
N   N8        1.0  0.53940  0.73100  0.90520  1.0000 -0.374420518
N   N9        1.0  0.26700  0.09840  0.37400  1.0000 -0.2699828737
N   N10       1.0  0.26700  0.40160  0.87400  1.0000 -0.2699828737
N   N11       1.0  0.73300  0.90160  0.62600  1.0000 -0.2699828737
N   N12       1.0  0.73300  0.59840  0.12600  1.0000 -0.2699828737
O   O1        1.0  0.48810  0.46360  0.73050  1.0000 -0.8724540416
O   O2        1.0  0.48810  0.03640  0.23050  1.0000 -0.8724540416
O   O3        1.0  0.51190  0.53640  0.26950  1.0000 -0.8724540416
O   O4        1.0  0.51190  0.96360  0.76950  1.0000 -0.8724540416
O   O5        1.0  0.72030  0.50750  0.99490  1.0000 -0.780063467
O   O6        1.0  0.72030  0.99250  0.49490  1.0000 -0.780063467
O   O7        1.0  0.27970  0.49250  0.00510  1.0000 -0.780063467
O   O8        1.0  0.27970  0.00750  0.50510  1.0000 -0.780063467
O   O9        1.0  0.89370  0.45290  0.81970  1.0000 -0.8230469021
O   O10       1.0  0.89370  0.04710  0.31970  1.0000 -0.8230469021
O   O11       1.0  0.10630  0.54710  0.18030  1.0000 -0.8230469021
O   O12       1.0  0.10630  0.95290  0.68030  1.0000 -0.8230469021
O   O13       1.0  0.72650  0.54790  0.71250  1.0000 -0.8230469021
O   O14       1.0  0.72650  0.95210  0.21250  1.0000 -0.8230469021
O   O15       1.0  0.27350  0.45210  0.28750  1.0000 -0.8230469021
O   O16       1.0  0.27350  0.04790  0.78750  1.0000 -0.8230469021
O   O17       1.0  0.67830  0.47510  0.51220  1.0000 -0.936084548
O   O18       1.0  0.67830  0.02490  0.01220  1.0000 -0.936084548
O   O19       1.0  0.32170  0.52490  0.48780  1.0000 -0.936084548
O   O20       1.0  0.32170  0.97510  0.98780  1.0000 -0.9342708978
O   O21       1.0  0.83840  0.46080  0.26580  1.0000 -0.780063467
O   O22       1.0  0.83840  0.03920  0.76580  1.0000 -0.780063467
O   O23       1.0  0.16160  0.53920  0.73420  1.0000 -0.780063467
O   O24       1.0  0.16160  0.96080  0.23420  1.0000 -0.780063467
O   O25       1.0  0.08570  0.45270  0.57750  1.0000 -0.9497205409
O   O26       1.0  0.08570  0.04730  0.07750  1.0000 -0.9497205409
O   O27       1.0  0.91430  0.54730  0.42250  1.0000 -0.9497205409
O   O28       1.0  0.91430  0.95270  0.92250  1.0000 -0.9497205409
