# DDEC6 charges by PACMAN v1.1 (https://github.com/mtap-research/PACMAN-charge/)
data_1999[Ag][ths]3[ASR]1
_chemical_formula_sum              "Ag4 H52 C88 N12 O4"
_cell_length_a       10.23
_cell_length_b       11.839
_cell_length_c       27.9082
_cell_angle_alpha    90
_cell_angle_beta     110.913
_cell_angle_gamma    90

_symmetry_space_group_name_H-M    "P 1"
_symmetry_Int_Tables_number       1

loop_
  _symmetry_equiv_pos_as_xyz
  'x, y, z'

loop_
  _atom_site_type_symbol
  _atom_site_label
  _atom_site_symmetry_multiplicity
  _atom_site_fract_x
  _atom_site_fract_y
  _atom_site_fract_z
  _atom_site_occupancy
  _atom_site_charge
Ag  Ag1       1.0  0.11381  0.53042  0.45522  1.0000 0.4317088132
Ag  Ag2       1.0  0.11381  0.96958  0.95522  1.0000 0.4317088132
Ag  Ag3       1.0  0.88619  0.03042  0.04478  1.0000 0.4317088132
Ag  Ag4       1.0  0.88619  0.46958  0.54478  1.0000 0.4317088132
H   H1        1.0  0.76110  0.27800  0.81750  1.0000 0.3444211041
H   H2        1.0  0.76110  0.22200  0.31750  1.0000 0.3444211041
H   H3        1.0  0.52080  0.54540  0.83110  1.0000 0.1167599063
H   H4        1.0  0.52080  0.95460  0.33110  1.0000 0.1167599063
H   H5        1.0  0.63610  0.70620  0.87130  1.0000 0.1167599063
H   H6        1.0  0.63610  0.79380  0.37130  1.0000 0.1167599063
H   H7        1.0  0.97680  0.60570  0.84460  1.0000 0.1261049105
H   H8        1.0  0.97680  0.89430  0.34460  1.0000 0.1261049105
H   H9        1.0  0.86300  0.44610  0.80410  1.0000 0.1261049105
H   H10       1.0  0.86300  0.05390  0.30410  1.0000 0.1261049105
H   H11       1.0  0.39110  0.22860  0.75110  1.0000 0.1139509385
H   H12       1.0  0.39110  0.27140  0.25110  1.0000 0.1139509385
H   H13       1.0  0.27040  0.12030  0.78950  1.0000 0.1167599063
H   H14       1.0  0.27040  0.37970  0.28950  1.0000 0.1167599063
H   H15       1.0  0.49240  0.26390  0.92540  1.0000 0.1261049105
H   H16       1.0  0.49240  0.23610  0.42540  1.0000 0.1261049105
H   H17       1.0  0.61350  0.37030  0.88520  1.0000 0.1167599063
H   H18       1.0  0.61350  0.12970  0.38520  1.0000 0.1167599063
H   H19       1.0  0.66800  0.33160  0.70400  1.0000 0.1261049105
H   H20       1.0  0.66800  0.16840  0.20400  1.0000 0.1261049105
H   H21       1.0  0.55480  0.38660  0.62030  1.0000 0.1167599063
H   H22       1.0  0.55480  0.11340  0.12030  1.0000 0.1167599063
H   H23       1.0  0.25260  0.53260  0.65890  1.0000 0.1167599063
H   H24       1.0  0.25260  0.96740  0.15890  1.0000 0.1167599063
H   H25       1.0  0.36690  0.47490  0.74360  1.0000 0.1139509385
H   H26       1.0  0.36690  0.02510  0.24360  1.0000 0.1139509385
H   H27       1.0  0.23890  0.77800  0.68250  1.0000 0.3444211041
H   H28       1.0  0.23890  0.72200  0.18250  1.0000 0.3444211041
H   H29       1.0  0.47920  0.04540  0.66890  1.0000 0.1167599063
H   H30       1.0  0.47920  0.45460  0.16890  1.0000 0.1167599063
H   H31       1.0  0.36390  0.20620  0.62870  1.0000 0.1167599063
H   H32       1.0  0.36390  0.29380  0.12870  1.0000 0.1167599063
H   H33       1.0  0.02320  0.10570  0.65540  1.0000 0.1261049105
H   H34       1.0  0.02320  0.39430  0.15540  1.0000 0.1261049105
H   H35       1.0  0.13700  0.94610  0.69590  1.0000 0.1261049105
H   H36       1.0  0.13700  0.55390  0.19590  1.0000 0.1261049105
H   H37       1.0  0.60890  0.72860  0.74890  1.0000 0.1139509385
H   H38       1.0  0.60890  0.77140  0.24890  1.0000 0.1167599063
H   H39       1.0  0.72960  0.62030  0.71050  1.0000 0.1167599063
H   H40       1.0  0.72960  0.87970  0.21050  1.0000 0.1167599063
H   H41       1.0  0.50760  0.76390  0.57460  1.0000 0.1261049105
H   H42       1.0  0.50760  0.73610  0.07460  1.0000 0.1261049105
H   H43       1.0  0.38650  0.87030  0.61480  1.0000 0.1167599063
H   H44       1.0  0.38650  0.62970  0.11480  1.0000 0.1167599063
H   H45       1.0  0.33200  0.83160  0.79600  1.0000 0.1261049105
H   H46       1.0  0.33200  0.66840  0.29600  1.0000 0.1261049105
H   H47       1.0  0.44520  0.88660  0.87970  1.0000 0.1167599063
H   H48       1.0  0.44520  0.61340  0.37970  1.0000 0.1167599063
H   H49       1.0  0.74740  0.03260  0.84110  1.0000 0.1167599063
H   H50       1.0  0.74740  0.46740  0.34110  1.0000 0.1167599063
H   H51       1.0  0.63310  0.97490  0.75640  1.0000 0.1139509385
H   H52       1.0  0.63310  0.52510  0.25640  1.0000 0.1139509385
C   C1        1.0  0.60770  0.36680  0.78910  1.0000 0.1701955465
C   C2        1.0  0.60770  0.13320  0.28910  1.0000 0.1701955465
C   C3        1.0  0.67860  0.47310  0.81420  1.0000 0.0017770222
C   C4        1.0  0.67860  0.02690  0.31420  1.0000 0.0017770222
C   C5        1.0  0.61340  0.55620  0.83410  1.0000 -0.137993745
C   C6        1.0  0.61340  0.94380  0.33410  1.0000 -0.1462200776
C   C7        1.0  0.68190  0.65370  0.85810  1.0000 -0.1284408577
C   C8        1.0  0.68190  0.84630  0.35810  1.0000 -0.1284408577
C   C9        1.0  0.81920  0.67140  0.86190  1.0000 0.0097047158
C   C10       1.0  0.81920  0.82860  0.36190  1.0000 0.0097047158
C   C11       1.0  0.88460  0.59340  0.84190  1.0000 -0.1284408577
C   C12       1.0  0.88460  0.90660  0.34190  1.0000 -0.1284408577
C   C13       1.0  0.81660  0.49660  0.81800  1.0000 -0.1579423467
C   C14       1.0  0.81660  0.00340  0.31800  1.0000 -0.1579423467
C   C15       1.0  0.89850  0.76740  0.88790  1.0000 0.2907341985
C   C16       1.0  0.89850  0.73260  0.38790  1.0000 0.2907341985
C   C17       1.0  0.51330  0.30970  0.81430  1.0000 0.0216930076
C   C18       1.0  0.51330  0.19030  0.31430  1.0000 0.0216930076
C   C19       1.0  0.41130  0.23500  0.78620  1.0000 -0.137993745
C   C20       1.0  0.41130  0.26500  0.28620  1.0000 -0.137993745
C   C21       1.0  0.33910  0.17000  0.80900  1.0000 -0.122382089
C   C22       1.0  0.33910  0.33000  0.30900  1.0000 -0.122382089
C   C23       1.0  0.37010  0.17920  0.86290  1.0000 0.0097047158
C   C24       1.0  0.37010  0.32080  0.36290  1.0000 0.0097047158
C   C25       1.0  0.47200  0.25560  0.89030  1.0000 -0.1129438201
C   C26       1.0  0.47200  0.24440  0.39030  1.0000 -0.1129438201
C   C27       1.0  0.54440  0.32020  0.86620  1.0000 -0.1579423467
C   C28       1.0  0.54440  0.17980  0.36620  1.0000 -0.1579423467
C   C29       1.0  0.30060  0.11020  0.88870  1.0000 0.2685677042
C   C30       1.0  0.30060  0.38980  0.38870  1.0000 0.2685677042
C   C31       1.0  0.52730  0.39730  0.73240  1.0000 0.0330657517
C   C32       1.0  0.52730  0.10270  0.23240  1.0000 0.0330657517
C   C33       1.0  0.58430  0.37150  0.69500  1.0000 -0.137993745
C   C34       1.0  0.58430  0.12850  0.19500  1.0000 -0.137993745
C   C35       1.0  0.51730  0.40480  0.64520  1.0000 -0.137993745
C   C36       1.0  0.51730  0.09520  0.14520  1.0000 -0.137993745
C   C37       1.0  0.39440  0.46520  0.63180  1.0000 0.0216930076
C   C38       1.0  0.39440  0.03480  0.13180  1.0000 0.0216930076
C   C39       1.0  0.33590  0.49220  0.66800  1.0000 -0.1284408577
C   C40       1.0  0.33590  0.00780  0.16800  1.0000 -0.1284408577
C   C41       1.0  0.40480  0.45720  0.71880  1.0000 -0.1462200776
C   C42       1.0  0.40480  0.04280  0.21880  1.0000 -0.1462200776
C   C43       1.0  0.32240  0.49980  0.57870  1.0000 0.2907341985
C   C44       1.0  0.32240  0.00020  0.07870  1.0000 0.2907341985
C   C45       1.0  0.39230  0.86680  0.71090  1.0000 0.1701955465
C   C46       1.0  0.39230  0.63320  0.21090  1.0000 0.1701955465
C   C47       1.0  0.32140  0.97310  0.68580  1.0000 0.0017770222
C   C48       1.0  0.32140  0.52690  0.18580  1.0000 0.0017770222
C   C49       1.0  0.38660  0.05620  0.66590  1.0000 -0.137993745
C   C50       1.0  0.38660  0.44380  0.16590  1.0000 -0.1462200776
C   C51       1.0  0.31810  0.15370  0.64190  1.0000 -0.1284408577
C   C52       1.0  0.31810  0.34630  0.14190  1.0000 -0.1284408577
C   C53       1.0  0.18080  0.17140  0.63810  1.0000 0.0097047158
C   C54       1.0  0.18080  0.32860  0.13810  1.0000 0.0097047158
C   C55       1.0  0.11540  0.09340  0.65810  1.0000 -0.1284408577
C   C56       1.0  0.11540  0.40660  0.15810  1.0000 -0.1284408577
C   C57       1.0  0.18340  0.99660  0.68200  1.0000 -0.1579423467
C   C58       1.0  0.18340  0.50340  0.18200  1.0000 -0.1579423467
C   C59       1.0  0.10150  0.26740  0.61210  1.0000 0.2907341985
C   C60       1.0  0.10150  0.23260  0.11210  1.0000 0.2907341985
C   C61       1.0  0.48670  0.80970  0.68570  1.0000 0.0216930076
C   C62       1.0  0.48670  0.69030  0.18570  1.0000 0.0216930076
C   C63       1.0  0.58870  0.73500  0.71380  1.0000 -0.137993745
C   C64       1.0  0.58870  0.76500  0.21380  1.0000 -0.137993745
C   C65       1.0  0.66090  0.67000  0.69100  1.0000 -0.122382089
C   C66       1.0  0.66090  0.83000  0.19100  1.0000 -0.122382089
C   C67       1.0  0.62990  0.67920  0.63710  1.0000 0.0097047158
C   C68       1.0  0.62990  0.82080  0.13710  1.0000 0.0097047158
C   C69       1.0  0.52800  0.75560  0.60970  1.0000 -0.1129438201
C   C70       1.0  0.52800  0.74440  0.10970  1.0000 -0.1129438201
C   C71       1.0  0.45560  0.82020  0.63380  1.0000 -0.1579423467
C   C72       1.0  0.45560  0.67980  0.13380  1.0000 -0.1579423467
C   C73       1.0  0.69940  0.61020  0.61130  1.0000 0.2685677042
C   C74       1.0  0.69940  0.88980  0.11130  1.0000 0.2685677042
C   C75       1.0  0.47270  0.89730  0.76760  1.0000 0.0330657517
C   C76       1.0  0.47270  0.60270  0.26760  1.0000 0.0330657517
C   C77       1.0  0.41570  0.87150  0.80500  1.0000 -0.137993745
C   C78       1.0  0.41570  0.62850  0.30500  1.0000 -0.137993745
C   C79       1.0  0.48270  0.90480  0.85480  1.0000 -0.137993745
C   C80       1.0  0.48270  0.59520  0.35480  1.0000 -0.137993745
C   C81       1.0  0.60560  0.96520  0.86820  1.0000 0.0216930076
C   C82       1.0  0.60560  0.53480  0.36820  1.0000 0.0216930076
C   C83       1.0  0.66410  0.99220  0.83200  1.0000 -0.1284408577
C   C84       1.0  0.66410  0.50780  0.33200  1.0000 -0.1284408577
C   C85       1.0  0.59520  0.95720  0.78120  1.0000 -0.1462200776
C   C86       1.0  0.59520  0.54280  0.28120  1.0000 -0.1462200776
C   C87       1.0  0.67760  0.99980  0.92130  1.0000 0.2907341985
C   C88       1.0  0.67760  0.50020  0.42130  1.0000 0.2907341985
N   N1        1.0  0.26449  0.52520  0.53679  1.0000 -0.3985532815
N   N2        1.0  0.26449  0.97480  0.03679  1.0000 -0.3985532815
N   N3        1.0  0.25160  0.04580  0.90770  1.0000 -0.4130755435
N   N4        1.0  0.25160  0.45420  0.40770  1.0000 -0.4130755435
N   N5        1.0  0.96290  0.84320  0.90900  1.0000 -0.3936547483
N   N6        1.0  0.96290  0.65680  0.40900  1.0000 -0.3936547483
N   N7        1.0  0.73551  0.02520  0.96321  1.0000 -0.3985532815
N   N8        1.0  0.73551  0.47480  0.46321  1.0000 -0.3985532815
N   N9        1.0  0.74840  0.54580  0.59230  1.0000 -0.4130755435
N   N10       1.0  0.74840  0.95420  0.09230  1.0000 -0.4130755435
N   N11       1.0  0.03710  0.34320  0.59100  1.0000 -0.3936547483
N   N12       1.0  0.03710  0.15680  0.09100  1.0000 -0.3936547483
O   O1        1.0  0.70910  0.28480  0.78780  1.0000 -0.4834580119
O   O2        1.0  0.70910  0.21520  0.28780  1.0000 -0.4834580119
O   O3        1.0  0.29090  0.78480  0.71220  1.0000 -0.4834580119
O   O4        1.0  0.29090  0.71520  0.21220  1.0000 -0.4834580119
