# DDEC6 charges by PACMAN v1.1 (https://github.com/mtap-research/PACMAN-charge/)
data_1999[Cu][pts]3[ASR]1
_chemical_formula_sum              "Cu2 H4 C20 N8"
_cell_length_a       10.1706
_cell_length_b       10.1706
_cell_length_c       11.613
_cell_angle_alpha    90
_cell_angle_beta     90
_cell_angle_gamma    132.717

_symmetry_space_group_name_H-M    "P 1"
_symmetry_Int_Tables_number       1

loop_
  _symmetry_equiv_pos_as_xyz
  'x, y, z'

loop_
  _atom_site_type_symbol
  _atom_site_label
  _atom_site_symmetry_multiplicity
  _atom_site_fract_x
  _atom_site_fract_y
  _atom_site_fract_z
  _atom_site_occupancy
  _atom_site_charge
Cu  Cu1       1.0  0.50000  0.50000  0.75000  1.0000 0.6252368998
Cu  Cu2       1.0  0.50000  0.50000  0.25000  1.0000 0.6242792916
H   H1        1.0  0.50000  0.00000  0.20170  1.0000 0.1336539175
H   H2        1.0  0.00000  0.50000  0.29830  1.0000 0.1336539175
H   H3        1.0  0.50000  0.00000  0.79830  1.0000 0.1336539175
H   H4        1.0  0.00000  0.50000  0.70170  1.0000 0.1336539175
C   C1        1.0  0.45590  0.20890  0.11940  1.0000 0.2816448372
C   C2        1.0  0.54410  0.79110  0.11940  1.0000 0.2816448372
C   C3        1.0  0.20890  0.45590  0.38060  1.0000 0.2816448372
C   C4        1.0  0.79110  0.54410  0.38060  1.0000 0.2816448372
C   C5        1.0  0.54410  0.79110  0.88060  1.0000 0.2816448372
C   C6        1.0  0.45590  0.20890  0.88060  1.0000 0.2816448372
C   C7        1.0  0.79110  0.54410  0.61940  1.0000 0.2816448372
C   C8        1.0  0.20890  0.45590  0.61940  1.0000 0.2816448372
C   C9        1.0  0.47590  0.09950  0.05970  1.0000 -0.0013519727
C   C10       1.0  0.52410  0.90050  0.05970  1.0000 0.0004649052
C   C11       1.0  0.09950  0.47590  0.44030  1.0000 -0.0013519727
C   C12       1.0  0.90050  0.52410  0.44030  1.0000 0.0004649052
C   C13       1.0  0.52410  0.90050  0.94030  1.0000 -0.0013519727
C   C14       1.0  0.47590  0.09950  0.94030  1.0000 -0.0013519727
C   C15       1.0  0.90050  0.52410  0.55970  1.0000 0.0004649052
C   C16       1.0  0.09950  0.47590  0.55970  1.0000 -0.0013519727
C   C17       1.0  0.50000  0.00000  0.12160  1.0000 -0.1708161335
C   C18       1.0  0.00000  0.50000  0.37840  1.0000 -0.1708161335
C   C19       1.0  0.50000  0.00000  0.87840  1.0000 -0.1708161335
C   C20       1.0  0.00000  0.50000  0.62160  1.0000 -0.1708161335
N   N1        1.0  0.44480  0.30240  0.16160  1.0000 -0.4185826097
N   N2        1.0  0.55520  0.69760  0.16160  1.0000 -0.4185826097
N   N3        1.0  0.30240  0.44480  0.33840  1.0000 -0.4185826097
N   N4        1.0  0.69760  0.55520  0.33840  1.0000 -0.4185826097
N   N5        1.0  0.55520  0.69760  0.83840  1.0000 -0.4185826097
N   N6        1.0  0.44480  0.30240  0.83840  1.0000 -0.4185826097
N   N7        1.0  0.69760  0.55520  0.66160  1.0000 -0.4185826097
N   N8        1.0  0.30240  0.44480  0.66160  1.0000 -0.4185826097
