# DDEC6 charges by PACMAN v1.1 (https://github.com/mtap-research/PACMAN-charge/)
data_2001[Co][nan]3[ASR]1
_chemical_formula_sum              "Co3 H18 C8 O14"
_cell_length_a       9.93914
_cell_length_b       9.93914
_cell_length_c       6.468
_cell_angle_alpha    74.6243
_cell_angle_beta     105.376
_cell_angle_gamma    119.448

_symmetry_space_group_name_H-M    "P 1"
_symmetry_Int_Tables_number       1

loop_
  _symmetry_equiv_pos_as_xyz
  'x, y, z'

loop_
  _atom_site_type_symbol
  _atom_site_label
  _atom_site_symmetry_multiplicity
  _atom_site_fract_x
  _atom_site_fract_y
  _atom_site_fract_z
  _atom_site_occupancy
  _atom_site_charge
Co  Co1       1.0  0.00000  0.00000  0.50000  1.0000 1.0530044984
Co  Co2       1.0  0.15226  0.15226  0.00000  1.0000 0.9089287173
Co  Co3       1.0  0.84774  0.84774  0.00000  1.0000 0.9089287173
H   H1        1.0  0.42220  0.93760  0.68820  1.0000 0.1376912545
H   H2        1.0  0.93760  0.42220  0.31180  1.0000 0.1376912545
H   H3        1.0  0.57780  0.06240  0.31180  1.0000 0.1376912545
H   H4        1.0  0.06240  0.57780  0.68820  1.0000 0.1376912545
H   H5        1.0  0.54430  0.11610  0.61550  1.0000 0.1376912545
H   H6        1.0  0.11610  0.54430  0.38450  1.0000 0.1376912545
H   H7        1.0  0.45570  0.88390  0.38450  1.0000 0.1376912545
H   H8        1.0  0.88390  0.45570  0.61550  1.0000 0.1376912545
H   H9        1.0  0.91790  0.08210  0.15730  1.0000 0.3711019855
H   H10       1.0  0.08210  0.91790  0.84270  1.0000 0.3711019855
H   H11       1.0  0.32310  0.20470  0.72250  1.0000 0.351434673
H   H12       1.0  0.20470  0.32310  0.27750  1.0000 0.351434673
H   H13       1.0  0.67690  0.79530  0.27750  1.0000 0.351434673
H   H14       1.0  0.79530  0.67690  0.72250  1.0000 0.351434673
H   H15       1.0  0.32650  0.19670  0.94160  1.0000 0.3093656178
H   H16       1.0  0.19670  0.32650  0.05840  1.0000 0.3093656178
H   H17       1.0  0.67350  0.80330  0.05840  1.0000 0.3093656178
H   H18       1.0  0.80330  0.67350  0.94160  1.0000 0.3093656178
C   C1        1.0  0.31809  0.04211  0.42800  1.0000 0.6438057374
C   C2        1.0  0.04211  0.31809  0.57200  1.0000 0.6438057374
C   C3        1.0  0.68191  0.95789  0.57200  1.0000 0.6438057374
C   C4        1.0  0.95789  0.68191  0.42800  1.0000 0.6438057374
C   C5        1.0  0.45456  0.01304  0.56100  1.0000 -0.2794632885
C   C6        1.0  0.01304  0.45456  0.43900  1.0000 -0.2794632885
C   C7        1.0  0.54544  0.98696  0.43900  1.0000 -0.2794632885
C   C8        1.0  0.98696  0.54544  0.56100  1.0000 -0.2794632885
O   O1        1.0  0.28963  0.04697  0.22550  1.0000 -0.5570333648
O   O2        1.0  0.04697  0.28963  0.77450  1.0000 -0.5570333648
O   O3        1.0  0.71037  0.95303  0.77450  1.0000 -0.5570333648
O   O4        1.0  0.95303  0.71037  0.22550  1.0000 -0.5570333648
O   O5        1.0  0.24116  0.06226  0.53290  1.0000 -0.5850656081
O   O6        1.0  0.06226  0.24116  0.46710  1.0000 -0.5850656081
O   O7        1.0  0.75884  0.93774  0.46710  1.0000 -0.5850656081
O   O8        1.0  0.93774  0.75884  0.53290  1.0000 -0.5850656081
O   O9        1.0  0.96542  0.03458  0.16830  1.0000 -0.8356926489
O   O10       1.0  0.03458  0.96542  0.83170  1.0000 -0.8356926489
O   O11       1.0  0.34211  0.26029  0.82150  1.0000 -0.6438464273
O   O12       1.0  0.26029  0.34211  0.17850  1.0000 -0.6438464273
O   O13       1.0  0.65789  0.73971  0.17850  1.0000 -0.6438464273
O   O14       1.0  0.73971  0.65789  0.82150  1.0000 -0.6438464273
