# DDEC6 charges by PACMAN v1.1 (https://github.com/mtap-research/PACMAN-charge/)
data_2001[Cu][sod]3[ASR]1
_chemical_formula_sum              "Cu6 H36 C36 N24"
_cell_length_a       5.387
_cell_length_b       16.0121
_cell_length_c       16.0121
_cell_angle_alpha    61.2404
_cell_angle_beta     83.5611
_cell_angle_gamma    96.4389

_symmetry_space_group_name_H-M    "P 1"
_symmetry_Int_Tables_number       1

loop_
  _symmetry_equiv_pos_as_xyz
  'x, y, z'

loop_
  _atom_site_type_symbol
  _atom_site_label
  _atom_site_symmetry_multiplicity
  _atom_site_fract_x
  _atom_site_fract_y
  _atom_site_fract_z
  _atom_site_occupancy
  _atom_site_charge
Cu  Cu1       1.0  0.81654  0.21408  0.57226  1.0000 0.4009385664
Cu  Cu2       1.0  0.38880  0.57226  0.21366  1.0000 0.4009385664
Cu  Cu3       1.0  0.60246  0.21366  0.21408  1.0000 0.4009385664
Cu  Cu4       1.0  0.18346  0.78592  0.42774  1.0000 0.4009385664
Cu  Cu5       1.0  0.61120  0.42774  0.78634  1.0000 0.4009385664
Cu  Cu6       1.0  0.39754  0.78634  0.78592  1.0000 0.4009385664
H   H1        1.0  0.59193  0.02357  0.57856  1.0000 0.0691230011
H   H2        1.0  0.97010  0.05874  0.78986  1.0000 0.0856055328
H   H3        1.0  0.77230  0.88241  0.87278  1.0000 0.0831933236
H   H4        1.0  0.51697  0.25558  0.40116  1.0000 0.0691230011
H   H5        1.0  0.10906  0.08344  0.49146  1.0000 0.0831933236
H   H6        1.0  0.00708  0.07634  0.34617  1.0000 0.0856055328
H   H7        1.0  0.17048  0.57856  0.39787  1.0000 0.0691230011
H   H8        1.0  0.75996  0.78986  0.15140  1.0000 0.0856055328
H   H9        1.0  0.64508  0.87278  0.24480  1.0000 0.0831933236
H   H10       1.0  0.91813  0.40116  0.34325  1.0000 0.0691230011
H   H11       1.0  0.60053  0.49146  0.42509  1.0000 0.0831933236
H   H12       1.0  0.35326  0.34617  0.57749  1.0000 0.0831933236
H   H13       1.0  0.56835  0.39787  0.02357  1.0000 0.0691230011
H   H14       1.0  0.91136  0.15140  0.05874  1.0000 0.0856055328
H   H15       1.0  0.88988  0.24480  0.88241  1.0000 0.0831933236
H   H16       1.0  0.26139  0.34325  0.25558  1.0000 0.0691230011
H   H17       1.0  0.02562  0.42509  0.08344  1.0000 0.0831933236
H   H18       1.0  0.93074  0.57749  0.07634  1.0000 0.0831933236
H   H19       1.0  0.40807  0.97643  0.42144  1.0000 0.0691230011
H   H20       1.0  0.02990  0.94126  0.21014  1.0000 0.0856055328
H   H21       1.0  0.22770  0.11759  0.12722  1.0000 0.0831933236
H   H22       1.0  0.48303  0.74442  0.59884  1.0000 0.0691230011
H   H23       1.0  0.89094  0.91656  0.50854  1.0000 0.0831933236
H   H24       1.0  0.99292  0.92366  0.65383  1.0000 0.0831933236
H   H25       1.0  0.82952  0.42144  0.60213  1.0000 0.0691230011
H   H26       1.0  0.24004  0.21014  0.84860  1.0000 0.0856055328
H   H27       1.0  0.35492  0.12722  0.75520  1.0000 0.0831933236
H   H28       1.0  0.08187  0.59884  0.65675  1.0000 0.0691230011
H   H29       1.0  0.39947  0.50854  0.57491  1.0000 0.0831933236
H   H30       1.0  0.64674  0.65383  0.42251  1.0000 0.0831933236
H   H31       1.0  0.43165  0.60213  0.97643  1.0000 0.0691230011
H   H32       1.0  0.08864  0.84860  0.94126  1.0000 0.0856055328
H   H33       1.0  0.11012  0.75520  0.11759  1.0000 0.0831933236
H   H34       1.0  0.73861  0.65675  0.74442  1.0000 0.0691230011
H   H35       1.0  0.97438  0.57491  0.91656  1.0000 0.0831933236
H   H36       1.0  0.06926  0.42251  0.92366  1.0000 0.0831933236
C   C1        1.0  0.64726  0.00493  0.65135  1.0000 0.1490247258
C   C2        1.0  0.85377  0.02959  0.75098  1.0000 -0.0130880876
C   C3        1.0  0.73590  0.93476  0.79796  1.0000 -0.0213556986
C   C4        1.0  0.66559  0.21096  0.39889  1.0000 0.1490247258
C   C5        1.0  0.96020  0.12392  0.45192  1.0000 -0.0213556986
C   C6        1.0  0.90937  0.12200  0.37149  1.0000 -0.0213556986
C   C7        1.0  0.29861  0.65135  0.34372  1.0000 0.1490247258
C   C8        1.0  0.60475  0.75098  0.21943  1.0000 -0.0130880876
C   C9        1.0  0.53386  0.79796  0.26728  1.0000 -0.0213556986
C   C10       1.0  0.06448  0.39889  0.39015  1.0000 0.1490247258
C   C11       1.0  0.41212  0.45192  0.42416  1.0000 -0.0213556986
C   C12       1.0  0.28086  0.37149  0.50651  1.0000 -0.0213556986
C   C13       1.0  0.64233  0.34372  0.00493  1.0000 0.1490247258
C   C14       1.0  0.82418  0.21943  0.02959  1.0000 -0.0130880876
C   C15       1.0  0.80114  0.26728  0.93476  1.0000 -0.0213556986
C   C16       1.0  0.45463  0.39015  0.21096  1.0000 0.1490247258
C   C17       1.0  0.83628  0.42416  0.12392  1.0000 -0.0213556986
C   C18       1.0  0.78737  0.50651  0.12200  1.0000 -0.0213556986
C   C19       1.0  0.35274  0.99507  0.34865  1.0000 0.1490247258
C   C20       1.0  0.14623  0.97041  0.24902  1.0000 -0.0130880876
C   C21       1.0  0.26410  0.06524  0.20204  1.0000 -0.0213556986
C   C22       1.0  0.33441  0.78904  0.60111  1.0000 0.1490247258
C   C23       1.0  0.03980  0.87608  0.54808  1.0000 -0.0213556986
C   C24       1.0  0.09063  0.87800  0.62851  1.0000 -0.0213556986
C   C25       1.0  0.70139  0.34865  0.65628  1.0000 0.1490247258
C   C26       1.0  0.39525  0.24902  0.78057  1.0000 -0.0130880876
C   C27       1.0  0.46614  0.20204  0.73272  1.0000 -0.0213556986
C   C28       1.0  0.93552  0.60111  0.60985  1.0000 0.1490247258
C   C29       1.0  0.58788  0.54808  0.57584  1.0000 -0.0213556986
C   C30       1.0  0.71914  0.62851  0.49349  1.0000 -0.0213556986
C   C31       1.0  0.35767  0.65628  0.99507  1.0000 0.1490247258
C   C32       1.0  0.17582  0.78057  0.97041  1.0000 -0.0130880876
C   C33       1.0  0.19886  0.73272  0.06524  1.0000 -0.0213556986
C   C34       1.0  0.54537  0.60985  0.78904  1.0000 0.1490247258
C   C35       1.0  0.16372  0.57584  0.87608  1.0000 -0.0213556986
C   C36       1.0  0.21263  0.49349  0.87800  1.0000 -0.0213556986
N   N1        1.0  0.80223  0.07263  0.65974  1.0000 -0.2718726372
N   N2        1.0  0.58732  0.92252  0.73976  1.0000 -0.2718726372
N   N3        1.0  0.80871  0.17861  0.46908  1.0000 -0.2800484639
N   N4        1.0  0.73778  0.18018  0.33574  1.0000 -0.2718726372
N   N5        1.0  0.46197  0.65974  0.26763  1.0000 -0.2718726372
N   N6        1.0  0.32708  0.73976  0.33772  1.0000 -0.2718726372
N   N7        1.0  0.27779  0.46908  0.35231  1.0000 -0.2800484639
N   N8        1.0  0.07352  0.33574  0.48408  1.0000 -0.2718726372
N   N9        1.0  0.72960  0.26763  0.07263  1.0000 -0.2718726372
N   N10       1.0  0.66480  0.33772  0.92252  1.0000 -0.2718726372
N   N11       1.0  0.63010  0.35231  0.17861  1.0000 -0.2800484639
N   N12       1.0  0.55760  0.48408  0.18018  1.0000 -0.2718726372
N   N13       1.0  0.19777  0.92737  0.34026  1.0000 -0.2718726372
N   N14       1.0  0.41268  0.07748  0.26024  1.0000 -0.2718726372
N   N15       1.0  0.19129  0.82139  0.53092  1.0000 -0.2800484639
N   N16       1.0  0.26222  0.81982  0.66426  1.0000 -0.2718726372
N   N17       1.0  0.53803  0.34026  0.73237  1.0000 -0.2718726372
N   N18       1.0  0.67292  0.26024  0.66228  1.0000 -0.2718726372
N   N19       1.0  0.72221  0.53092  0.64769  1.0000 -0.2800484639
N   N20       1.0  0.92648  0.66426  0.51592  1.0000 -0.2718726372
N   N21       1.0  0.27040  0.73237  0.92737  1.0000 -0.2718726372
N   N22       1.0  0.33520  0.66228  0.07748  1.0000 -0.2718726372
N   N23       1.0  0.36990  0.64769  0.82139  1.0000 -0.2800484639
N   N24       1.0  0.44240  0.51592  0.81982  1.0000 -0.2718726372
