# DDEC6 charges by PACMAN v1.1 (https://github.com/mtap-research/PACMAN-charge/)
data_2001[Ni][sra]3[ASR]1
_chemical_formula_sum              "Ni8 H56 C56 O36"
_cell_length_a       10.0656
_cell_length_b       11.1625
_cell_length_c       19.2011
_cell_angle_alpha    90
_cell_angle_beta     90
_cell_angle_gamma    90

_symmetry_space_group_name_H-M    "P 1"
_symmetry_Int_Tables_number       1

loop_
  _symmetry_equiv_pos_as_xyz
  'x, y, z'

loop_
  _atom_site_type_symbol
  _atom_site_label
  _atom_site_symmetry_multiplicity
  _atom_site_fract_x
  _atom_site_fract_y
  _atom_site_fract_z
  _atom_site_occupancy
  _atom_site_charge
Ni  Ni1       1.0  0.03679  0.87029  0.47894  1.0000 0.7234012668
Ni  Ni2       1.0  0.46321  0.12971  0.97894  1.0000 0.727068065
Ni  Ni3       1.0  0.53679  0.62971  0.52106  1.0000 0.7234012668
Ni  Ni4       1.0  0.96321  0.37029  0.02106  1.0000 0.7234012668
Ni  Ni5       1.0  0.24838  0.98498  0.60180  1.0000 0.9268939181
Ni  Ni6       1.0  0.25162  0.01502  0.10180  1.0000 0.9268939181
Ni  Ni7       1.0  0.74838  0.51502  0.39820  1.0000 0.9268939181
Ni  Ni8       1.0  0.75162  0.48498  0.89820  1.0000 0.9268939181
H   H1        1.0  0.33620  0.29270  0.47300  1.0000 0.126627143
H   H2        1.0  0.16380  0.70730  0.97300  1.0000 0.126627143
H   H3        1.0  0.83620  0.20730  0.52700  1.0000 0.126627143
H   H4        1.0  0.66380  0.79270  0.02700  1.0000 0.126627143
H   H5        1.0  0.42660  0.22330  0.42150  1.0000 0.122037699
H   H6        1.0  0.07340  0.77670  0.92150  1.0000 0.122037699
H   H7        1.0  0.92660  0.27670  0.57850  1.0000 0.122037699
H   H8        1.0  0.57340  0.72330  0.07850  1.0000 0.122037699
H   H9        1.0  0.20840  0.47140  0.43140  1.0000 0.122037699
H   H10       1.0  0.29160  0.52860  0.93140  1.0000 0.122037699
H   H11       1.0  0.70840  0.02860  0.56860  1.0000 0.122037699
H   H12       1.0  0.79160  0.97140  0.06860  1.0000 0.122037699
H   H13       1.0  0.22280  0.51520  0.35520  1.0000 0.122037699
H   H14       1.0  0.27720  0.48480  0.85520  1.0000 0.122037699
H   H15       1.0  0.72280  0.98480  0.64480  1.0000 0.122037699
H   H16       1.0  0.77720  0.01520  0.14480  1.0000 0.122037699
H   H17       1.0  0.02540  0.20830  0.39920  1.0000 0.126627143
H   H18       1.0  0.47460  0.79170  0.89920  1.0000 0.126627143
H   H19       1.0  0.52540  0.29170  0.60080  1.0000 0.126627143
H   H20       1.0  0.97460  0.70830  0.10080  1.0000 0.126627143
H   H21       1.0  0.08640  0.28450  0.45870  1.0000 0.126627143
H   H22       1.0  0.41360  0.71550  0.95870  1.0000 0.126627143
H   H23       1.0  0.58640  0.21550  0.54130  1.0000 0.126627143
H   H24       1.0  0.91360  0.78450  0.04130  1.0000 0.126627143
H   H25       1.0  0.32590  0.10090  0.32540  1.0000 0.126627143
H   H26       1.0  0.17410  0.89910  0.82540  1.0000 0.126627143
H   H27       1.0  0.82590  0.39910  0.67460  1.0000 0.126627143
H   H28       1.0  0.67410  0.60090  0.17460  1.0000 0.126627143
H   H29       1.0  0.17280  0.09830  0.31620  1.0000 0.126627143
H   H30       1.0  0.32720  0.90170  0.81620  1.0000 0.126627143
H   H31       1.0  0.67280  0.40170  0.68380  1.0000 0.126627143
H   H32       1.0  0.82720  0.59830  0.18380  1.0000 0.126627143
H   H33       1.0  0.37160  0.40460  0.27230  1.0000 0.122037699
H   H34       1.0  0.12840  0.59540  0.77230  1.0000 0.122037699
H   H35       1.0  0.87160  0.09540  0.72770  1.0000 0.122037699
H   H36       1.0  0.62840  0.90460  0.22770  1.0000 0.122037699
H   H37       1.0  0.45110  0.29410  0.29790  1.0000 0.126627143
H   H38       1.0  0.04890  0.70590  0.79790  1.0000 0.126627143
H   H39       1.0  0.95110  0.20590  0.70210  1.0000 0.126627143
H   H40       1.0  0.54890  0.79410  0.20210  1.0000 0.126627143
H   H41       1.0  0.05170  0.27660  0.27420  1.0000 0.126627143
H   H42       1.0  0.44830  0.72340  0.77420  1.0000 0.126627143
H   H43       1.0  0.55170  0.22340  0.72580  1.0000 0.126627143
H   H44       1.0  0.94830  0.77660  0.22580  1.0000 0.126627143
H   H45       1.0  0.12760  0.39430  0.25800  1.0000 0.122037699
H   H46       1.0  0.37240  0.60570  0.75800  1.0000 0.122037699
H   H47       1.0  0.62760  0.10570  0.74200  1.0000 0.122037699
H   H48       1.0  0.87240  0.89430  0.24200  1.0000 0.122037699
H   H49       1.0  0.24950  0.79830  0.51600  1.0000 0.3897799238
H   H50       1.0  0.25050  0.20170  0.01600  1.0000 0.3897799238
H   H51       1.0  0.74950  0.70170  0.48400  1.0000 0.3897799238
H   H52       1.0  0.75050  0.29830  0.98400  1.0000 0.3897799238
H   H53       1.0  0.17140  0.78500  0.57710  1.0000 0.3835133
H   H54       1.0  0.32860  0.21500  0.07710  1.0000 0.3835133
H   H55       1.0  0.67140  0.71500  0.42290  1.0000 0.3835133
H   H56       1.0  0.82860  0.28500  0.92290  1.0000 0.3835133
C   C1        1.0  0.21330  0.07940  0.45610  1.0000 0.5667176628
C   C2        1.0  0.28670  0.92060  0.95610  1.0000 0.56406015
C   C3        1.0  0.71330  0.42060  0.54390  1.0000 0.5667176628
C   C4        1.0  0.78670  0.57940  0.04390  1.0000 0.56406015
C   C5        1.0  0.22890  0.18700  0.40600  1.0000 0.0771286807
C   C6        1.0  0.27110  0.81300  0.90600  1.0000 0.0771286807
C   C7        1.0  0.72890  0.31300  0.59400  1.0000 0.0771286807
C   C8        1.0  0.77110  0.68700  0.09400  1.0000 0.0771286807
C   C9        1.0  0.34630  0.26730  0.42610  1.0000 -0.2413245147
C   C10       1.0  0.15370  0.73270  0.92610  1.0000 -0.2413245147
C   C11       1.0  0.84630  0.23270  0.57390  1.0000 -0.2413245147
C   C12       1.0  0.65370  0.76730  0.07390  1.0000 -0.2413245147
C   C13       1.0  0.35160  0.37830  0.37810  1.0000 0.0716077958
C   C14       1.0  0.14840  0.62170  0.87810  1.0000 0.0716077958
C   C15       1.0  0.85160  0.12170  0.62190  1.0000 0.0716077958
C   C16       1.0  0.64840  0.87830  0.12190  1.0000 0.0716077958
C   C17       1.0  0.21980  0.44680  0.38450  1.0000 -0.2413245147
C   C18       1.0  0.28020  0.55320  0.88450  1.0000 -0.2413245147
C   C19       1.0  0.71980  0.05320  0.61550  1.0000 -0.2451876418
C   C20       1.0  0.78020  0.94680  0.11550  1.0000 -0.2413245147
C   C21       1.0  0.10200  0.36840  0.36320  1.0000 0.0771286807
C   C22       1.0  0.39800  0.63160  0.86320  1.0000 0.0771286807
C   C23       1.0  0.60200  0.13160  0.63680  1.0000 0.0771286807
C   C24       1.0  0.89800  0.86840  0.13680  1.0000 0.0771286807
C   C25       1.0  0.09780  0.25830  0.41200  1.0000 -0.2319230975
C   C26       1.0  0.40220  0.74170  0.91200  1.0000 -0.2319230975
C   C27       1.0  0.59780  0.24170  0.58800  1.0000 -0.2319230975
C   C28       1.0  0.90220  0.75830  0.08800  1.0000 -0.2319230975
C   C29       1.0  0.24650  0.14630  0.32950  1.0000 -0.2413245147
C   C30       1.0  0.25350  0.85370  0.82950  1.0000 -0.2413245147
C   C31       1.0  0.74650  0.35370  0.67050  1.0000 -0.2451876418
C   C32       1.0  0.75350  0.64630  0.17050  1.0000 -0.2413245147
C   C33       1.0  0.25470  0.25530  0.28160  1.0000 0.0716077958
C   C34       1.0  0.24530  0.74470  0.78160  1.0000 0.0716077958
C   C35       1.0  0.75470  0.24470  0.71840  1.0000 0.0716077958
C   C36       1.0  0.74530  0.75530  0.21840  1.0000 0.0716077958
C   C37       1.0  0.36990  0.33670  0.30210  1.0000 -0.2570820467
C   C38       1.0  0.13010  0.66330  0.80210  1.0000 -0.2570820467
C   C39       1.0  0.86990  0.16330  0.69790  1.0000 -0.2570820467
C   C40       1.0  0.63010  0.83670  0.19790  1.0000 -0.2570820467
C   C41       1.0  0.12370  0.32640  0.28780  1.0000 -0.2413245147
C   C42       1.0  0.37630  0.67360  0.78780  1.0000 -0.2413245147
C   C43       1.0  0.62370  0.17360  0.71220  1.0000 -0.2413245147
C   C44       1.0  0.87630  0.82640  0.21220  1.0000 -0.2413245147
C   C45       1.0  0.46760  0.45640  0.40330  1.0000 0.5667176628
C   C46       1.0  0.03240  0.54360  0.90330  1.0000 0.5667176628
C   C47       1.0  0.96760  0.04360  0.59670  1.0000 0.5667176628
C   C48       1.0  0.53240  0.95640  0.09670  1.0000 0.5667176628
C   C49       1.0  0.96870  0.42990  0.37260  1.0000 0.5316142871
C   C50       1.0  0.53130  0.57010  0.87260  1.0000 0.5316142871
C   C51       1.0  0.46870  0.07010  0.62740  1.0000 0.5316142871
C   C52       1.0  0.03130  0.92990  0.12740  1.0000 0.5316142871
C   C53       1.0  0.26790  0.21240  0.20570  1.0000 0.5462929293
C   C54       1.0  0.23210  0.78760  0.70570  1.0000 0.5462929293
C   C55       1.0  0.76790  0.28760  0.79430  1.0000 0.5462929293
C   C56       1.0  0.73210  0.71240  0.29430  1.0000 0.5462929293
O   O1        1.0  0.16470  0.98440  0.43033  1.0000 -0.5611588151
O   O2        1.0  0.33530  0.01560  0.93033  1.0000 -0.5611588151
O   O3        1.0  0.66470  0.51560  0.56967  1.0000 -0.5611588151
O   O4        1.0  0.83530  0.48440  0.06967  1.0000 -0.5611588151
O   O5        1.0  0.24320  0.09610  0.51842  1.0000 -0.5335699187
O   O6        1.0  0.25680  0.90390  0.01842  1.0000 -0.5335699187
O   O7        1.0  0.74320  0.40390  0.48158  1.0000 -0.5335699187
O   O8        1.0  0.75680  0.59610  0.98158  1.0000 -0.5335699187
O   O9        1.0  0.56950  0.46210  0.36753  1.0000 -0.5032760218
O   O10       1.0  0.93050  0.53790  0.86753  1.0000 -0.5032760218
O   O11       1.0  0.06950  0.03790  0.63247  1.0000 -0.5032760218
O   O12       1.0  0.43050  0.96210  0.13247  1.0000 -0.5032760218
O   O13       1.0  0.45020  0.50520  0.46209  1.0000 -0.5611588151
O   O14       1.0  0.04980  0.49480  0.96209  1.0000 -0.5611588151
O   O15       1.0  0.95020  0.99480  0.53791  1.0000 -0.5611588151
O   O16       1.0  0.54980  0.00520  0.03791  1.0000 -0.5611588151
O   O17       1.0  0.95800  0.52420  0.40880  1.0000 -0.5462850497
O   O18       1.0  0.54200  0.47580  0.90880  1.0000 -0.5462850497
O   O19       1.0  0.45800  0.97580  0.59120  1.0000 -0.5462850497
O   O20       1.0  0.04200  0.02420  0.09120  1.0000 -0.5462850497
O   O21       1.0  0.86530  0.38290  0.34721  1.0000 -0.5100907326
O   O22       1.0  0.63470  0.61710  0.84721  1.0000 -0.5100907326
O   O23       1.0  0.36530  0.11710  0.65279  1.0000 -0.5100907326
O   O24       1.0  0.13470  0.88290  0.15279  1.0000 -0.5100907326
O   O25       1.0  0.31280  0.28760  0.16081  1.0000 -0.5729678587
O   O26       1.0  0.18720  0.71240  0.66081  1.0000 -0.5729678587
O   O27       1.0  0.81280  0.21240  0.83919  1.0000 -0.5729678587
O   O28       1.0  0.68720  0.78760  0.33919  1.0000 -0.5729678587
O   O29       1.0  0.23310  0.11060  0.19137  1.0000 -0.5100907326
O   O30       1.0  0.26690  0.88940  0.69137  1.0000 -0.5100907326
O   O31       1.0  0.73310  0.38940  0.80863  1.0000 -0.5100907326
O   O32       1.0  0.76690  0.61060  0.30863  1.0000 -0.5100907326
O   O33       1.0  0.19340  0.83120  0.54721  1.0000 -0.6737376318
O   O34       1.0  0.30660  0.16880  0.04721  1.0000 -0.6737376318
O   O35       1.0  0.69340  0.66880  0.45279  1.0000 -0.6737376318
O   O36       1.0  0.80660  0.33120  0.95279  1.0000 -0.6737376318
