# DDEC6 charges by PACMAN v1.1 (https://github.com/mtap-research/PACMAN-charge/)
data_2001[Co][dia]3[ASR]1
_chemical_formula_sum              "Co4 H36 C48 N8 O18"
_cell_length_a       10.5407
_cell_length_b       11.8266
_cell_length_c       14.1379
_cell_angle_alpha    106.224
_cell_angle_beta     103.362
_cell_angle_gamma    111.011

_symmetry_space_group_name_H-M    "P 1"
_symmetry_Int_Tables_number       1

loop_
  _symmetry_equiv_pos_as_xyz
  'x, y, z'

loop_
  _atom_site_type_symbol
  _atom_site_label
  _atom_site_symmetry_multiplicity
  _atom_site_fract_x
  _atom_site_fract_y
  _atom_site_fract_z
  _atom_site_occupancy
  _atom_site_charge
Co  Co1       1.0  0.01937  0.72126  0.21267  1.0000 0.8647355962
Co  Co2       1.0  0.98063  0.27874  0.78733  1.0000 0.8711366781
Co  Co3       1.0  0.23887  0.45925  0.69007  1.0000 0.8711366781
Co  Co4       1.0  0.76113  0.54075  0.30993  1.0000 0.8711366781
H   H1        1.0  0.49230  0.43640  0.61430  1.0000 0.1003144809
H   H2        1.0  0.50770  0.56360  0.38570  1.0000 0.1003144809
H   H3        1.0  0.73510  0.48670  0.68050  1.0000 0.1285585926
H   H4        1.0  0.26490  0.51330  0.31950  1.0000 0.1285585926
H   H5        1.0  0.86480  0.59160  0.86230  1.0000 0.1285585926
H   H6        1.0  0.13520  0.40840  0.13770  1.0000 0.1285585926
H   H7        1.0  0.49260  0.56650  0.89920  1.0000 0.109916937
H   H8        1.0  0.50740  0.43350  0.10080  1.0000 0.109916937
H   H9        1.0  0.48250  0.74390  0.74990  1.0000 0.1003144809
H   H10       1.0  0.51750  0.25610  0.25010  1.0000 0.1003144809
H   H11       1.0  0.53330  0.90730  0.68690  1.0000 0.1285585926
H   H12       1.0  0.46670  0.09270  0.31310  1.0000 0.1285585926
H   H13       1.0  0.36670  0.87950  0.53320  1.0000 0.1285585926
H   H14       1.0  0.63330  0.12050  0.46680  1.0000 0.1285585926
H   H15       1.0  0.12070  0.51730  0.50530  1.0000 0.109916937
H   H16       1.0  0.87930  0.48270  0.49470  1.0000 0.109916937
H   H17       1.0  0.11200  0.94580  0.13580  1.0000 0.109916937
H   H18       1.0  0.88800  0.05420  0.86420  1.0000 0.109916937
H   H19       1.0  0.19350  0.17010  0.19250  1.0000 0.1285585926
H   H20       1.0  0.80650  0.82990  0.80750  1.0000 0.1285585926
H   H21       1.0  0.22370  0.29140  0.36350  1.0000 0.1179906245
H   H22       1.0  0.77630  0.70860  0.63650  1.0000 0.1179906245
H   H23       1.0  0.10650  0.95940  0.41310  1.0000 0.1179906245
H   H24       1.0  0.89350  0.04060  0.58690  1.0000 0.1179906245
H   H25       1.0  0.36550  0.83330  0.29100  1.0000 0.1003144809
H   H26       1.0  0.63450  0.16670  0.70900  1.0000 0.1003144809
H   H27       1.0  0.53990  0.82770  0.22230  1.0000 0.137441181
H   H28       1.0  0.46010  0.17230  0.77770  1.0000 0.137441181
H   H29       1.0  0.47280  0.71990  0.04010  1.0000 0.1285585926
H   H30       1.0  0.52720  0.28010  0.95990  1.0000 0.1285585926
H   H31       1.0  0.05750  0.61610  0.01210  1.0000 0.109916937
H   H32       1.0  0.94250  0.38390  0.98790  1.0000 0.109916937
H   H33       1.0  0.79300  0.69300  0.21160  1.0000 0.2852129269
H   H34       1.0  0.20700  0.30700  0.78840  1.0000 0.2846701074
H   H35       1.0  0.83650  0.75830  0.31000  1.0000 0.2971610356
H   H36       1.0  0.16350  0.24170  0.69000  1.0000 0.2971610356
C   C1        1.0  0.54200  0.47480  0.68740  1.0000 0.0669698694
C   C2        1.0  0.45800  0.52520  0.31260  1.0000 0.0669698694
C   C3        1.0  0.68860  0.50630  0.72660  1.0000 -0.1530827832
C   C4        1.0  0.31140  0.49370  0.27340  1.0000 -0.1530827832
C   C5        1.0  0.76530  0.56710  0.83450  1.0000 -0.0595653021
C   C6        1.0  0.23470  0.43290  0.16550  1.0000 -0.0595653021
C   C7        1.0  0.69120  0.59100  0.90060  1.0000 -0.0706035218
C   C8        1.0  0.30880  0.40900  0.09940  1.0000 -0.0706035218
C   C9        1.0  0.54300  0.55270  0.85460  1.0000 0.0633647147
C   C10       1.0  0.45700  0.44730  0.14540  1.0000 0.0633647147
C   C11       1.0  0.76200  0.65370  0.01990  1.0000 0.5599239398
C   C12       1.0  0.23800  0.34630  0.98010  1.0000 0.5599239398
C   C13       1.0  0.41700  0.72970  0.68600  1.0000 0.0813081436
C   C14       1.0  0.58300  0.27030  0.31400  1.0000 0.0813081436
C   C15       1.0  0.44680  0.82910  0.64950  1.0000 -0.1530827832
C   C16       1.0  0.55320  0.17090  0.35050  1.0000 -0.1530827832
C   C17       1.0  0.34860  0.81240  0.55790  1.0000 -0.0595653021
C   C18       1.0  0.65140  0.18760  0.44210  1.0000 -0.0595653021
C   C19       1.0  0.22270  0.69470  0.50320  1.0000 -0.0706035218
C   C20       1.0  0.77730  0.30530  0.49680  1.0000 -0.0706035218
C   C21       1.0  0.20390  0.59820  0.54330  1.0000 0.0633647147
C   C22       1.0  0.79610  0.40180  0.45670  1.0000 0.0633647147
C   C23       1.0  0.10480  0.67170  0.40590  1.0000 0.5825615305
C   C24       1.0  0.89520  0.32830  0.59410  1.0000 0.5825615305
C   C25       1.0  0.12670  0.99420  0.20510  1.0000 0.0813081436
C   C26       1.0  0.87330  0.00580  0.79490  1.0000 0.0813081436
C   C27       1.0  0.17450  0.12880  0.23830  1.0000 -0.1551482301
C   C28       1.0  0.82550  0.87120  0.76170  1.0000 -0.1530827832
C   C29       1.0  0.19380  0.20100  0.34000  1.0000 -0.0595653021
C   C30       1.0  0.80620  0.79900  0.66000  1.0000 -0.0595653021
C   C31       1.0  0.16790  0.13660  0.40650  1.0000 -0.0595653021
C   C32       1.0  0.83210  0.86340  0.59350  1.0000 -0.0595653021
C   C33       1.0  0.12270  0.00230  0.36790  1.0000 0.0669698694
C   C34       1.0  0.87730  0.99770  0.63210  1.0000 0.0669698694
C   C35       1.0  0.18550  0.20950  0.51910  1.0000 0.5599239398
C   C36       1.0  0.81450  0.79050  0.48090  1.0000 0.5599239398
C   C37       1.0  0.33700  0.78810  0.21840  1.0000 0.0537558202
C   C38       1.0  0.66300  0.21190  0.78160  1.0000 0.0537558202
C   C39       1.0  0.44210  0.78560  0.17760  1.0000 -0.1427669894
C   C40       1.0  0.55790  0.21440  0.82240  1.0000 -0.1427669894
C   C41       1.0  0.40220  0.72010  0.06920  1.0000 -0.0415444967
C   C42       1.0  0.59780  0.27990  0.93080  1.0000 -0.0415444967
C   C43       1.0  0.25520  0.65520  0.00570  1.0000 -0.0706035218
C   C44       1.0  0.74480  0.34480  0.99430  1.0000 -0.0706035218
C   C45       1.0  0.15650  0.66140  0.05430  1.0000 0.0669698694
C   C46       1.0  0.84350  0.33860  0.94570  1.0000 0.0669698694
C   C47       1.0  0.19560  0.57090  0.88910  1.0000 0.5825615305
C   C48       1.0  0.80440  0.42910  0.11090  1.0000 0.5825615305
N   N1        1.0  0.46853  0.49703  0.74993  1.0000 -0.256081022
N   N2        1.0  0.53147  0.50297  0.25007  1.0000 -0.256081022
N   N3        1.0  0.29793  0.61433  0.63313  1.0000 -0.2235948366
N   N4        1.0  0.70207  0.38567  0.36687  1.0000 -0.2235948366
N   N5        1.0  0.10080  0.93070  0.26830  1.0000 -0.2488551286
N   N6        1.0  0.89920  0.06930  0.73170  1.0000 -0.2488551286
N   N7        1.0  0.19410  0.72780  0.15750  1.0000 -0.2441422712
N   N8        1.0  0.80590  0.27220  0.84250  1.0000 -0.2441422712
O   O1        1.0  0.89726  0.69556  0.06026  1.0000 -0.5657718253
O   O2        1.0  0.10274  0.30444  0.93974  1.0000 -0.5657718253
O   O3        1.0  0.67973  0.65683  0.07013  1.0000 -0.5221310478
O   O4        1.0  0.32027  0.34317  0.92987  1.0000 -0.5221310478
O   O5        1.0  0.14197  0.74687  0.35927  1.0000 -0.5528354815
O   O6        1.0  0.85803  0.25313  0.64073  1.0000 -0.5528354815
O   O7        1.0  0.98062  0.58052  0.38042  1.0000 -0.5409904789
O   O8        1.0  0.01938  0.41948  0.61958  1.0000 -0.5409904789
O   O9        1.0  0.21165  0.32825  0.54515  1.0000 -0.5657718253
O   O10       1.0  0.78835  0.67175  0.45485  1.0000 -0.5657718253
O   O11       1.0  0.17250  0.14670  0.57650  1.0000 -0.5221310478
O   O12       1.0  0.82750  0.85330  0.42350  1.0000 -0.5221310478
O   O13       1.0  0.06518  0.48528  0.85038  1.0000 -0.5528354815
O   O14       1.0  0.93482  0.51472  0.14962  1.0000 -0.5528354815
O   O15       1.0  0.28107  0.59127  0.83967  1.0000 -0.5528354815
O   O16       1.0  0.71893  0.40873  0.16033  1.0000 -0.5528354815
O   O17       1.0  0.83148  0.69888  0.25748  1.0000 -0.5929023695
O   O18       1.0  0.16852  0.30112  0.74252  1.0000 -0.5929023695
