# DDEC6 charges by PACMAN v1.1 (https://github.com/mtap-research/PACMAN-charge/)
data_2002[Cu][dia]3[ASR]1
_chemical_formula_sum              "Cu4 H64 C96 N32 O8"
_cell_length_a       24.9732
_cell_length_b       24.9732
_cell_length_c       24.9732
_cell_angle_alpha    148.692
_cell_angle_beta     148.692
_cell_angle_gamma    44.8651

_symmetry_space_group_name_H-M    "P 1"
_symmetry_Int_Tables_number       1

loop_
  _symmetry_equiv_pos_as_xyz
  'x, y, z'

loop_
  _atom_site_type_symbol
  _atom_site_label
  _atom_site_symmetry_multiplicity
  _atom_site_fract_x
  _atom_site_fract_y
  _atom_site_fract_z
  _atom_site_occupancy
  _atom_site_charge
Cu  Cu1       1.0  0.52548  0.02548  0.50000  1.0000 0.2141763796
Cu  Cu2       1.0  0.77548  0.77548  0.00000  1.0000 0.2141763796
Cu  Cu3       1.0  0.22452  0.22452  0.00000  1.0000 0.2141763796
Cu  Cu4       1.0  0.97452  0.47452  0.50000  1.0000 0.2150944104
H   H1        1.0  0.62420  0.20600  0.68260  1.0000 0.1007917405
H   H2        1.0  0.95600  0.77340  0.08180  1.0000 0.1007917405
H   H3        1.0  0.69160  0.87420  0.91820  1.0000 0.1007917405
H   H4        1.0  0.52340  0.94160  0.31740  1.0000 0.1007917405
H   H5        1.0  0.59900  0.30640  0.67400  1.0000 0.140775878
H   H6        1.0  0.05640  0.88240  0.20740  1.0000 0.140775878
H   H7        1.0  0.67500  0.84900  0.79260  1.0000 0.140775878
H   H8        1.0  0.63240  0.92500  0.32600  1.0000 0.140775878
H   H9        1.0  0.30800  0.18550  0.31310  1.0000 0.140775878
H   H10       1.0  0.93550  0.12240  0.37750  1.0000 0.140775878
H   H11       1.0  0.74490  0.55800  0.62250  1.0000 0.140775878
H   H12       1.0  0.87240  0.99490  0.68690  1.0000 0.140775878
H   H13       1.0  0.34020  0.08400  0.32580  1.0000 0.1007917405
H   H14       1.0  0.83400  0.00820  0.24380  1.0000 0.1007917405
H   H15       1.0  0.76440  0.59020  0.75620  1.0000 0.1007917405
H   H16       1.0  0.75820  0.01440  0.67420  1.0000 0.1007917405
H   H17       1.0  0.67300  0.49210  0.79530  1.0000 0.140775878
H   H18       1.0  0.24210  0.94680  0.31910  1.0000 0.140775878
H   H19       1.0  0.62770  0.92300  0.68090  1.0000 0.140775878
H   H20       1.0  0.69680  0.87770  0.20470  1.0000 0.140775878
H   H21       1.0  0.78220  0.61250  0.94790  1.0000 0.1007917405
H   H22       1.0  0.36250  0.91460  0.33030  1.0000 0.1007917405
H   H23       1.0  0.58430  0.03220  0.66970  1.0000 0.1007917405
H   H24       1.0  0.66460  0.83430  0.05210  1.0000 0.1007917405
H   H25       1.0  0.55650  0.68170  0.72120  1.0000 0.1007917405
H   H26       1.0  0.43170  0.21050  0.62520  1.0000 0.1007917405
H   H27       1.0  0.58530  0.80650  0.37480  1.0000 0.1007917405
H   H28       1.0  0.96050  0.83530  0.27880  1.0000 0.1007917405
H   H29       1.0  0.44430  0.56580  0.56850  1.0000 0.140775878
H   H30       1.0  0.31580  0.24730  0.62150  1.0000 0.140775878
H   H31       1.0  0.62580  0.69430  0.37850  1.0000 0.140775878
H   H32       1.0  0.99730  0.87580  0.43150  1.0000 0.140775878
H   H33       1.0  0.12580  0.04400  0.81740  1.0000 0.1007917405
H   H34       1.0  0.79400  0.47660  0.41820  1.0000 0.1007917405
H   H35       1.0  0.05840  0.37580  0.58180  1.0000 0.1007917405
H   H36       1.0  0.22660  0.30840  0.18260  1.0000 0.1007917405
H   H37       1.0  0.15100  0.94360  0.82600  1.0000 0.140775878
H   H38       1.0  0.69360  0.36760  0.29260  1.0000 0.140775878
H   H39       1.0  0.07500  0.40100  0.70740  1.0000 0.140775878
H   H40       1.0  0.11760  0.32500  0.17400  1.0000 0.140775878
H   H41       1.0  0.44200  0.06450  0.18690  1.0000 0.140775878
H   H42       1.0  0.81450  0.12760  0.12250  1.0000 0.140775878
H   H43       1.0  0.00510  0.69200  0.87750  1.0000 0.140775878
H   H44       1.0  0.87760  0.25510  0.81310  1.0000 0.140775878
H   H45       1.0  0.40980  0.16600  0.17420  1.0000 0.1007917405
H   H46       1.0  0.91600  0.24180  0.25620  1.0000 0.1007917405
H   H47       1.0  0.98560  0.65980  0.74380  1.0000 0.1007917405
H   H48       1.0  0.99180  0.23560  0.82580  1.0000 0.1007917405
H   H49       1.0  0.07700  0.75790  0.70470  1.0000 0.140775878
H   H50       1.0  0.50790  0.30320  0.18090  1.0000 0.140775878
H   H51       1.0  0.12230  0.32700  0.81910  1.0000 0.140775878
H   H52       1.0  0.05320  0.37230  0.29530  1.0000 0.140775878
H   H53       1.0  0.96780  0.63750  0.55210  1.0000 0.1007917405
H   H54       1.0  0.38750  0.33540  0.16970  1.0000 0.1007917405
H   H55       1.0  0.16570  0.21780  0.83030  1.0000 0.1007917405
H   H56       1.0  0.08540  0.41570  0.44790  1.0000 0.1007917405
H   H57       1.0  0.19350  0.56830  0.77880  1.0000 0.1007917405
H   H58       1.0  0.31830  0.03950  0.87480  1.0000 0.1007917405
H   H59       1.0  0.16470  0.44350  0.12520  1.0000 0.1007917405
H   H60       1.0  0.78950  0.41470  0.22120  1.0000 0.1007917405
H   H61       1.0  0.30570  0.68420  0.93150  1.0000 0.140775878
H   H62       1.0  0.43420  0.00270  0.87850  1.0000 0.140775878
H   H63       1.0  0.12420  0.55570  0.12150  1.0000 0.140775878
H   H64       1.0  0.75270  0.37420  0.06850  1.0000 0.140775878
C   C1        1.0  0.56039  0.19989  0.60570  1.0000 0.0492358347
C   C2        1.0  0.94989  0.84419  0.13950  1.0000 0.0492358347
C   C3        1.0  0.70469  0.81039  0.86050  1.0000 0.0492358347
C   C4        1.0  0.59419  0.95469  0.39430  1.0000 0.0492358347
C   C5        1.0  0.54513  0.26093  0.60140  1.0000 -0.1722879342
C   C6        1.0  0.01093  0.90953  0.21580  1.0000 -0.1722879342
C   C7        1.0  0.69373  0.79513  0.78420  1.0000 -0.1722879342
C   C8        1.0  0.65953  0.94373  0.39860  1.0000 -0.1722879342
C   C9        1.0  0.45313  0.25643  0.49350  1.0000 0.0492358347
C   C10       1.0  0.00643  0.01293  0.30330  1.0000 0.0492358347
C   C11       1.0  0.70963  0.70313  0.69670  1.0000 0.0400248411
C   C12       1.0  0.76293  0.95963  0.50650  1.0000 0.0400248411
C   C13       1.0  0.37323  0.18933  0.38770  1.0000 -0.188611793
C   C14       1.0  0.93933  0.05163  0.31610  1.0000 -0.188611793
C   C15       1.0  0.73553  0.62323  0.68390  1.0000 -0.188611793
C   C16       1.0  0.80163  0.98553  0.61230  1.0000 -0.188611793
C   C17       1.0  0.39350  0.12910  0.39680  1.0000 0.0492358347
C   C18       1.0  0.87910  0.98230  0.23560  1.0000 0.0492358347
C   C19       1.0  0.74670  0.64350  0.76440  1.0000 0.0492358347
C   C20       1.0  0.73230  0.99670  0.60320  1.0000 0.0492358347
C   C21       1.0  0.43888  0.31988  0.48940  1.0000 0.2704872494
C   C22       1.0  0.06988  0.08048  0.38100  1.0000 0.2704872494
C   C23       1.0  0.69948  0.68888  0.61900  1.0000 0.2704872494
C   C24       1.0  0.83048  0.94948  0.51060  1.0000 0.2704872494
C   C25       1.0  0.47916  0.43436  0.56320  1.0000 0.2636534316
C   C26       1.0  0.18436  0.12116  0.45520  1.0000 0.2636534316
C   C27       1.0  0.66596  0.72916  0.54480  1.0000 0.2636534316
C   C28       1.0  0.87116  0.91596  0.43680  1.0000 0.2636534316
C   C29       1.0  0.54858  0.51278  0.66320  1.0000 0.0400248411
C   C30       1.0  0.26278  0.09958  0.46420  1.0000 0.0400248411
C   C31       1.0  0.63538  0.79858  0.53580  1.0000 0.0400248411
C   C32       1.0  0.84958  0.88538  0.33680  1.0000 0.0400248411
C   C33       1.0  0.64799  0.53009  0.77830  1.0000 -0.1807733226
C   C34       1.0  0.28009  0.00179  0.38210  1.0000 -0.1722879342
C   C35       1.0  0.61969  0.89799  0.61790  1.0000 -0.1807733226
C   C36       1.0  0.75179  0.86969  0.22170  1.0000 -0.1807733226
C   C37       1.0  0.71308  0.60368  0.87120  1.0000 0.0400248411
C   C38       1.0  0.35368  0.98248  0.39060  1.0000 0.0400248411
C   C39       1.0  0.59188  0.96308  0.60940  1.0000 0.0400248411
C   C40       1.0  0.73248  0.84188  0.12880  1.0000 0.0400248411
C   C41       1.0  0.58031  0.64421  0.73810  1.0000 0.0345077626
C   C42       1.0  0.39421  0.15611  0.56390  1.0000 0.0345077626
C   C43       1.0  0.59221  0.83031  0.43610  1.0000 0.0345077626
C   C44       1.0  0.90611  0.84221  0.26190  1.0000 0.0400248411
C   C45       1.0  0.51323  0.57343  0.64440  1.0000 -0.188611793
C   C46       1.0  0.32343  0.17903  0.56020  1.0000 -0.188611793
C   C47       1.0  0.61883  0.76323  0.43980  1.0000 -0.188611793
C   C48       1.0  0.92903  0.86883  0.35560  1.0000 -0.1807733226
C   C49       1.0  0.18961  0.05011  0.89430  1.0000 0.0492358347
C   C50       1.0  0.80011  0.40581  0.36050  1.0000 0.0492358347
C   C51       1.0  0.04531  0.43961  0.63950  1.0000 0.0492358347
C   C52       1.0  0.15581  0.29531  0.10570  1.0000 0.0492358347
C   C53       1.0  0.20487  0.98907  0.89860  1.0000 -0.1722879342
C   C54       1.0  0.73907  0.34047  0.28420  1.0000 -0.1722879342
C   C55       1.0  0.05627  0.45487  0.71580  1.0000 -0.1722879342
C   C56       1.0  0.09047  0.30627  0.10140  1.0000 -0.1722879342
C   C57       1.0  0.29687  0.99357  0.00650  1.0000 0.0492358347
C   C58       1.0  0.74357  0.23707  0.19670  1.0000 0.0400248411
C   C59       1.0  0.04037  0.54687  0.80330  1.0000 0.0492358347
C   C60       1.0  0.98707  0.29037  0.99350  1.0000 0.0492358347
C   C61       1.0  0.37677  0.06067  0.11230  1.0000 -0.188611793
C   C62       1.0  0.81067  0.19837  0.18390  1.0000 -0.188611793
C   C63       1.0  0.01447  0.62677  0.81610  1.0000 -0.188611793
C   C64       1.0  0.94837  0.26447  0.88770  1.0000 -0.188611793
C   C65       1.0  0.35650  0.12090  0.10320  1.0000 0.0492358347
C   C66       1.0  0.87090  0.26770  0.26440  1.0000 0.0492358347
C   C67       1.0  0.00330  0.60650  0.73560  1.0000 0.0492358347
C   C68       1.0  0.01770  0.25330  0.89680  1.0000 0.0492358347
C   C69       1.0  0.31112  0.93012  0.01060  1.0000 0.2704872494
C   C70       1.0  0.68012  0.16952  0.11900  1.0000 0.2704872494
C   C71       1.0  0.05052  0.56112  0.88100  1.0000 0.2704872494
C   C72       1.0  0.91952  0.30052  0.98940  1.0000 0.2704872494
C   C73       1.0  0.27084  0.81564  0.93680  1.0000 0.2636534316
C   C74       1.0  0.56564  0.12884  0.04480  1.0000 0.2636534316
C   C75       1.0  0.08404  0.52084  0.95520  1.0000 0.2636534316
C   C76       1.0  0.87884  0.33404  0.06320  1.0000 0.2636534316
C   C77       1.0  0.20142  0.73722  0.83680  1.0000 0.0400248411
C   C78       1.0  0.48722  0.15042  0.03580  1.0000 0.0400248411
C   C79       1.0  0.11462  0.45142  0.96420  1.0000 0.0400248411
C   C80       1.0  0.90042  0.36462  0.16320  1.0000 0.0400248411
C   C81       1.0  0.10201  0.71991  0.72170  1.0000 -0.1722879342
C   C82       1.0  0.46991  0.24821  0.11790  1.0000 -0.1722879342
C   C83       1.0  0.13031  0.35201  0.88210  1.0000 -0.1722879342
C   C84       1.0  0.99821  0.38031  0.27830  1.0000 -0.1722879342
C   C85       1.0  0.03692  0.64632  0.62880  1.0000 0.0400248411
C   C86       1.0  0.39632  0.26752  0.10940  1.0000 0.0400248411
C   C87       1.0  0.15812  0.28692  0.89060  1.0000 0.0400248411
C   C88       1.0  0.01752  0.40812  0.37120  1.0000 0.0400248411
C   C89       1.0  0.16969  0.60579  0.76190  1.0000 0.0345077626
C   C90       1.0  0.35579  0.09389  0.93610  1.0000 0.0345077626
C   C91       1.0  0.15779  0.41969  0.06390  1.0000 0.0345077626
C   C92       1.0  0.84389  0.40779  0.23810  1.0000 0.0345077626
C   C93       1.0  0.23677  0.67657  0.85560  1.0000 -0.188611793
C   C94       1.0  0.42657  0.07097  0.93980  1.0000 -0.1807733226
C   C95       1.0  0.13117  0.48677  0.06020  1.0000 -0.1807733226
C   C96       1.0  0.82097  0.38117  0.14440  1.0000 -0.1807733226
N   N1        1.0  0.48554  0.13114  0.50160  1.0000 -0.2107719104
N   N2        1.0  0.88114  0.87954  0.14560  1.0000 -0.2107719104
N   N3        1.0  0.73394  0.73554  0.85440  1.0000 -0.2107719104
N   N4        1.0  0.62954  0.98394  0.49840  1.0000 -0.2107719104
N   N5        1.0  0.36315  0.31925  0.39070  1.0000 -0.273148782
N   N6        1.0  0.06925  0.17855  0.45610  1.0000 -0.273148782
N   N7        1.0  0.72245  0.61315  0.54390  1.0000 -0.273148782
N   N8        1.0  0.92855  0.97245  0.60930  1.0000 -0.273148782
N   N9        1.0  0.39255  0.39545  0.44350  1.0000 -0.273148782
N   N10       1.0  0.14545  0.20195  0.50290  1.0000 -0.273148782
N   N11       1.0  0.69905  0.64255  0.49710  1.0000 -0.273148782
N   N12       1.0  0.95195  0.94905  0.55650  1.0000 -0.273148782
N   N13       1.0  0.67843  0.66293  0.85290  1.0000 -0.1998247984
N   N14       1.0  0.41293  0.06003  0.48450  1.0000 -0.1998247984
N   N15       1.0  0.57553  0.92843  0.51550  1.0000 -0.1998247984
N   N16       1.0  0.81003  0.82553  0.14710  1.0000 -0.1998247984
N   N17       1.0  0.26446  0.11886  0.99840  1.0000 -0.2107719104
N   N18       1.0  0.86886  0.37046  0.35440  1.0000 -0.2107719104
N   N19       1.0  0.01606  0.51446  0.64560  1.0000 -0.2107719104
N   N20       1.0  0.12046  0.26606  0.00160  1.0000 -0.2107719104
N   N21       1.0  0.38685  0.93075  0.10930  1.0000 -0.273148782
N   N22       1.0  0.68075  0.07145  0.04390  1.0000 -0.273148782
N   N23       1.0  0.02755  0.63685  0.95610  1.0000 -0.273148782
N   N24       1.0  0.82145  0.27755  0.89070  1.0000 -0.273148782
N   N25       1.0  0.35745  0.85455  0.05650  1.0000 -0.273148782
N   N26       1.0  0.60455  0.04805  0.99710  1.0000 -0.2753337989
N   N27       1.0  0.05095  0.60745  0.00290  1.0000 -0.273148782
N   N28       1.0  0.79805  0.30095  0.94350  1.0000 -0.2753337989
N   N29       1.0  0.07157  0.58707  0.64710  1.0000 -0.1998247984
N   N30       1.0  0.33707  0.18997  0.01550  1.0000 -0.1998247984
N   N31       1.0  0.17447  0.32157  0.98450  1.0000 -0.1998247984
N   N32       1.0  0.93997  0.42447  0.35290  1.0000 -0.1998247984
O   O1        1.0  0.51664  0.38914  0.60130  1.0000 -0.188611793
O   O2        1.0  0.13914  0.03784  0.37250  1.0000 -0.188611793
O   O3        1.0  0.66534  0.76664  0.62750  1.0000 -0.188611793
O   O4        1.0  0.78784  0.91534  0.39870  1.0000 -0.188611793
O   O5        1.0  0.23336  0.86086  0.89870  1.0000 -0.188611793
O   O6        1.0  0.61086  0.21216  0.12750  1.0000 -0.188611793
O   O7        1.0  0.08466  0.48336  0.87250  1.0000 -0.188611793
O   O8        1.0  0.96216  0.33466  0.10130  1.0000 -0.188611793
