# DDEC6 charges by PACMAN v1.1 (https://github.com/mtap-research/PACMAN-charge/)
data_2002[Er][nan]3[ASR]1
_chemical_formula_sum              "Er4 H128 C176 N4 Cl12 O36"
_cell_length_a       18.3001
_cell_length_b       18.3001
_cell_length_c       24.724
_cell_angle_alpha    90
_cell_angle_beta     90
_cell_angle_gamma    139.139

_symmetry_space_group_name_H-M    "P 1"
_symmetry_Int_Tables_number       1

loop_
  _symmetry_equiv_pos_as_xyz
  'x, y, z'

loop_
  _atom_site_type_symbol
  _atom_site_label
  _atom_site_symmetry_multiplicity
  _atom_site_fract_x
  _atom_site_fract_y
  _atom_site_fract_z
  _atom_site_occupancy
  _atom_site_charge
Er  Er1       1.0  0.53927  0.76979  0.21435  1.0000 1.9840993854
Er  Er2       1.0  0.46073  0.23021  0.71435  1.0000 1.9840993854
Er  Er3       1.0  0.23021  0.46073  0.28565  1.0000 1.9840993854
Er  Er4       1.0  0.76979  0.53927  0.78565  1.0000 1.9840993854
H   H1        1.0  0.81570  0.92710  0.23790  1.0000 0.1110699395
H   H2        1.0  0.18430  0.07290  0.73790  1.0000 0.1110699395
H   H3        1.0  0.07290  0.18430  0.26210  1.0000 0.1110699395
H   H4        1.0  0.92710  0.81570  0.76210  1.0000 0.1110699395
H   H5        1.0  0.96060  0.96920  0.20070  1.0000 0.1110699395
H   H6        1.0  0.03940  0.03080  0.70070  1.0000 0.1110699395
H   H7        1.0  0.03080  0.03940  0.29930  1.0000 0.1110699395
H   H8        1.0  0.96920  0.96060  0.79930  1.0000 0.1110699395
H   H9        1.0  0.92980  0.87560  0.12400  1.0000 0.1110699395
H   H10       1.0  0.07020  0.12440  0.62400  1.0000 0.1110699395
H   H11       1.0  0.12440  0.07020  0.37600  1.0000 0.1110699395
H   H12       1.0  0.87560  0.92980  0.87600  1.0000 0.1110699395
H   H13       1.0  0.75400  0.73980  0.08460  1.0000 0.1304274978
H   H14       1.0  0.24600  0.26020  0.58460  1.0000 0.1304274978
H   H15       1.0  0.26020  0.24600  0.41540  1.0000 0.1304274978
H   H16       1.0  0.73980  0.75400  0.91540  1.0000 0.1304274978
H   H17       1.0  0.60900  0.69780  0.12170  1.0000 0.0997666169
H   H18       1.0  0.39100  0.30220  0.62170  1.0000 0.0997666169
H   H19       1.0  0.30220  0.39100  0.37830  1.0000 0.0997666169
H   H20       1.0  0.69780  0.60900  0.87830  1.0000 0.0997666169
H   H21       1.0  0.47500  0.92880  0.09710  1.0000 0.1304274978
H   H22       1.0  0.52500  0.07120  0.59710  1.0000 0.1304274978
H   H23       1.0  0.07120  0.52500  0.40290  1.0000 0.1304274978
H   H24       1.0  0.92880  0.47500  0.90290  1.0000 0.1304274978
H   H25       1.0  0.73190  0.93530  0.06520  1.0000 0.1386938651
H   H26       1.0  0.26810  0.06470  0.56520  1.0000 0.1386938651
H   H27       1.0  0.06470  0.26810  0.43480  1.0000 0.1386938651
H   H28       1.0  0.93530  0.73190  0.93480  1.0000 0.1386938651
H   H29       1.0  0.86360  0.08140  0.92050  1.0000 0.1304274978
H   H30       1.0  0.13640  0.91860  0.42050  1.0000 0.1304274978
H   H31       1.0  0.91860  0.13640  0.57950  1.0000 0.1304274978
H   H32       1.0  0.08140  0.86360  0.07950  1.0000 0.1304274978
H   H33       1.0  0.75110  0.09810  0.91190  1.0000 0.1110699395
H   H34       1.0  0.24890  0.90190  0.41190  1.0000 0.1110699395
H   H35       1.0  0.90190  0.24890  0.58810  1.0000 0.1110699395
H   H36       1.0  0.09810  0.75110  0.08810  1.0000 0.1110699395
H   H37       1.0  0.43230  0.01210  0.09300  1.0000 0.0816817699
H   H38       1.0  0.56770  0.98790  0.59300  1.0000 0.0816817699
H   H39       1.0  0.98790  0.56770  0.40700  1.0000 0.0816817699
H   H40       1.0  0.01210  0.43230  0.90700  1.0000 0.0816817699
H   H41       1.0  0.33090  0.90110  0.06120  1.0000 0.0908405574
H   H42       1.0  0.66910  0.09890  0.56120  1.0000 0.0908405574
H   H43       1.0  0.09890  0.66910  0.43880  1.0000 0.0908405574
H   H44       1.0  0.90110  0.33090  0.93880  1.0000 0.0908405574
H   H45       1.0  0.30300  0.00720  0.07120  1.0000 0.1304274978
H   H46       1.0  0.69700  0.99280  0.57120  1.0000 0.1304274978
H   H47       1.0  0.99280  0.69700  0.42880  1.0000 0.1304274978
H   H48       1.0  0.00720  0.30300  0.92880  1.0000 0.1304274978
H   H49       1.0  0.31470  0.99690  0.00960  1.0000 0.1386938651
H   H50       1.0  0.68530  0.00310  0.50960  1.0000 0.1386938651
H   H51       1.0  0.00310  0.68530  0.49040  1.0000 0.1386938651
H   H52       1.0  0.99690  0.31470  0.99040  1.0000 0.1386938651
H   H53       1.0  0.41590  0.10750  0.04100  1.0000 0.1304274978
H   H54       1.0  0.58410  0.89250  0.54100  1.0000 0.1304274978
H   H55       1.0  0.89250  0.58410  0.45900  1.0000 0.1304274978
H   H56       1.0  0.10750  0.41590  0.95900  1.0000 0.1304274978
H   H57       1.0  0.68890  0.32230  0.90800  1.0000 0.1386938651
H   H58       1.0  0.31110  0.67770  0.40800  1.0000 0.1386938651
H   H59       1.0  0.67770  0.31110  0.59200  1.0000 0.1386938651
H   H60       1.0  0.32230  0.68890  0.09200  1.0000 0.1386938651
H   H61       1.0  0.52180  0.08200  0.75880  1.0000 0.1511651325
H   H62       1.0  0.47820  0.91800  0.25880  1.0000 0.1511651325
H   H63       1.0  0.91800  0.47820  0.74120  1.0000 0.1511651325
H   H64       1.0  0.08200  0.52180  0.24120  1.0000 0.1511651325
H   H65       1.0  0.44010  0.82010  0.81420  1.0000 0.1304274978
H   H66       1.0  0.55990  0.17990  0.31420  1.0000 0.1304274978
H   H67       1.0  0.17990  0.55990  0.68580  1.0000 0.1304274978
H   H68       1.0  0.82010  0.44010  0.18580  1.0000 0.1304274978
H   H69       1.0  0.52320  0.90660  0.89490  1.0000 0.1110699395
H   H70       1.0  0.47680  0.09340  0.39490  1.0000 0.1110699395
H   H71       1.0  0.09340  0.47680  0.60510  1.0000 0.1110699395
H   H72       1.0  0.90660  0.52320  0.10510  1.0000 0.1110699395
H   H73       1.0  0.61920  0.27880  0.99910  1.0000 0.0816817699
H   H74       1.0  0.38080  0.72120  0.49910  1.0000 0.0816817699
H   H75       1.0  0.72120  0.38080  0.50090  1.0000 0.0816817699
H   H76       1.0  0.27880  0.61920  0.00090  1.0000 0.0816817699
H   H77       1.0  0.74980  0.38440  0.00500  1.0000 0.0816817699
H   H78       1.0  0.25020  0.61560  0.50500  1.0000 0.0816817699
H   H79       1.0  0.61560  0.25020  0.49500  1.0000 0.0816817699
H   H80       1.0  0.38440  0.74980  0.99500  1.0000 0.0816817699
H   H81       1.0  0.66580  0.33120  0.09100  1.0000 0.1304274978
H   H82       1.0  0.33420  0.66880  0.59100  1.0000 0.1304274978
H   H83       1.0  0.66880  0.33420  0.40900  1.0000 0.1304274978
H   H84       1.0  0.33120  0.66580  0.90900  1.0000 0.1304274978
H   H85       1.0  0.74020  0.31700  0.08940  1.0000 0.1304274978
H   H86       1.0  0.25980  0.68300  0.58940  1.0000 0.1304274978
H   H87       1.0  0.68300  0.25980  0.41060  1.0000 0.1304274978
H   H88       1.0  0.31700  0.74020  0.91060  1.0000 0.1304274978
H   H89       1.0  0.61010  0.21230  0.08350  1.0000 0.1304274978
H   H90       1.0  0.38990  0.78770  0.58350  1.0000 0.1304274978
H   H91       1.0  0.78770  0.38990  0.41650  1.0000 0.1304274978
H   H92       1.0  0.21230  0.61010  0.91650  1.0000 0.1304274978
H   H93       1.0  0.43610  0.59610  0.09070  1.0000 0.1304274978
H   H94       1.0  0.56390  0.40390  0.59070  1.0000 0.1304274978
H   H95       1.0  0.40390  0.56390  0.40930  1.0000 0.1304274978
H   H96       1.0  0.59610  0.43610  0.90930  1.0000 0.1304274978
H   H97       1.0  0.26820  0.29060  0.19820  1.0000 0.1386938651
H   H98       1.0  0.73180  0.70940  0.69820  1.0000 0.1386938651
H   H99       1.0  0.70940  0.73180  0.30180  1.0000 0.1386938651
H   H100      1.0  0.29060  0.26820  0.80180  1.0000 0.1386938651
H   H101      1.0  0.22840  0.08960  0.09960  1.0000 0.1304274978
H   H102      1.0  0.77160  0.91040  0.59960  1.0000 0.1304274978
H   H103      1.0  0.91040  0.77160  0.40040  1.0000 0.1304274978
H   H104      1.0  0.08960  0.22840  0.90040  1.0000 0.1304274978
H   H105      1.0  0.30360  0.21100  0.02830  1.0000 0.1110699395
H   H106      1.0  0.69640  0.78900  0.52830  1.0000 0.1110699395
H   H107      1.0  0.78900  0.69640  0.47170  1.0000 0.1110699395
H   H108      1.0  0.21100  0.30360  0.97170  1.0000 0.1110699395
H   H109      1.0  0.57320  0.72500  0.01950  1.0000 0.0997666169
H   H110      1.0  0.42680  0.27500  0.51950  1.0000 0.0997666169
H   H111      1.0  0.27500  0.42680  0.48050  1.0000 0.0997666169
H   H112      1.0  0.72500  0.57320  0.98050  1.0000 0.0997666169
H   H113      1.0  0.45250  0.66530  0.01020  1.0000 0.0908405574
H   H114      1.0  0.54750  0.33470  0.51020  1.0000 0.0908405574
H   H115      1.0  0.33470  0.54750  0.48980  1.0000 0.0908405574
H   H116      1.0  0.66530  0.45250  0.98980  1.0000 0.0908405574
H   H117      1.0  0.56990  0.79630  0.94410  1.0000 0.1304274978
H   H118      1.0  0.43010  0.20370  0.44410  1.0000 0.1304274978
H   H119      1.0  0.20370  0.43010  0.55590  1.0000 0.1304274978
H   H120      1.0  0.79630  0.56990  0.05590  1.0000 0.1304274978
H   H121      1.0  0.47860  0.67700  0.91800  1.0000 0.1386938651
H   H122      1.0  0.52140  0.32300  0.41800  1.0000 0.1386938651
H   H123      1.0  0.32300  0.52140  0.58200  1.0000 0.1386938651
H   H124      1.0  0.67700  0.47860  0.08200  1.0000 0.1386938651
H   H125      1.0  0.59950  0.73830  0.92770  1.0000 0.1304274978
H   H126      1.0  0.40050  0.26170  0.42770  1.0000 0.1304274978
H   H127      1.0  0.26170  0.40050  0.57230  1.0000 0.1304274978
H   H128      1.0  0.73830  0.59950  0.07230  1.0000 0.1304274978
C   C1        1.0  0.80330  0.88950  0.20710  1.0000 0.0816817699
C   C2        1.0  0.19670  0.11050  0.70710  1.0000 0.0816817699
C   C3        1.0  0.11050  0.19670  0.29290  1.0000 0.0816817699
C   C4        1.0  0.88950  0.80330  0.79290  1.0000 0.0816817699
C   C5        1.0  0.89020  0.91480  0.18490  1.0000 -0.1462669213
C   C6        1.0  0.10980  0.08520  0.68490  1.0000 -0.1462669213
C   C7        1.0  0.08520  0.10980  0.31510  1.0000 -0.1462669213
C   C8        1.0  0.91480  0.89020  0.81510  1.0000 -0.1462669213
C   C9        1.0  0.87170  0.85870  0.13890  1.0000 -0.0285317077
C   C10       1.0  0.12830  0.14130  0.63890  1.0000 -0.0285317077
C   C11       1.0  0.14130  0.12830  0.36110  1.0000 -0.0285317077
C   C12       1.0  0.85870  0.87170  0.86110  1.0000 -0.0285317077
C   C13       1.0  0.76640  0.77740  0.11530  1.0000 -0.1381993172
C   C14       1.0  0.23360  0.22260  0.61530  1.0000 -0.1381993172
C   C15       1.0  0.22260  0.23360  0.38470  1.0000 -0.1381993172
C   C16       1.0  0.77740  0.76640  0.88470  1.0000 -0.1381993172
C   C17       1.0  0.67950  0.75210  0.13760  1.0000 0.0908405574
C   C18       1.0  0.32050  0.24790  0.63760  1.0000 0.0908405574
C   C19       1.0  0.24790  0.32050  0.36240  1.0000 0.0908405574
C   C20       1.0  0.75210  0.67950  0.86240  1.0000 0.0908405574
C   C21       1.0  0.60120  0.03680  0.98070  1.0000 -0.0618218937
C   C22       1.0  0.39880  0.96320  0.48070  1.0000 -0.0618218937
C   C23       1.0  0.96320  0.39880  0.51930  1.0000 -0.0618218937
C   C24       1.0  0.03680  0.60120  0.01930  1.0000 -0.0618218937
C   C25       1.0  0.52920  0.99980  0.02300  1.0000 0.1988337926
C   C26       1.0  0.47080  0.00020  0.52300  1.0000 0.1988337926
C   C27       1.0  0.00020  0.47080  0.47700  1.0000 0.1988337926
C   C28       1.0  0.99980  0.52920  0.97700  1.0000 0.1988337926
C   C29       1.0  0.52310  0.95210  0.06920  1.0000 -0.2394388624
C   C30       1.0  0.47690  0.04790  0.56920  1.0000 -0.2394388624
C   C31       1.0  0.04790  0.47690  0.43080  1.0000 -0.2394388624
C   C32       1.0  0.95210  0.52310  0.93080  1.0000 -0.2394388624
C   C33       1.0  0.58890  0.93910  0.07370  1.0000 -0.0285317077
C   C34       1.0  0.41110  0.06090  0.57370  1.0000 -0.0285317077
C   C35       1.0  0.06090  0.41110  0.42630  1.0000 -0.0285317077
C   C36       1.0  0.93910  0.58890  0.92630  1.0000 -0.0285317077
C   C37       1.0  0.73470  0.96770  0.03500  1.0000 -0.2060830359
C   C38       1.0  0.26530  0.03230  0.53500  1.0000 -0.2060830359
C   C39       1.0  0.03230  0.26530  0.46500  1.0000 -0.2060830359
C   C40       1.0  0.96770  0.73470  0.96500  1.0000 -0.2060830359
C   C41       1.0  0.80750  0.00790  0.99450  1.0000 0.1386938651
C   C42       1.0  0.19250  0.99210  0.49450  1.0000 0.1386938651
C   C43       1.0  0.99210  0.19250  0.50550  1.0000 0.1386938651
C   C44       1.0  0.00790  0.80750  0.00550  1.0000 0.1386938651
C   C45       1.0  0.81390  0.05590  0.94800  1.0000 -0.1804236995
C   C46       1.0  0.18610  0.94410  0.44800  1.0000 -0.1804236995
C   C47       1.0  0.94410  0.18610  0.55200  1.0000 -0.1804236995
C   C48       1.0  0.05590  0.81390  0.05200  1.0000 -0.1804236995
C   C49       1.0  0.74640  0.06560  0.94280  1.0000 -0.1381993172
C   C50       1.0  0.25360  0.93440  0.44280  1.0000 -0.1381993172
C   C51       1.0  0.93440  0.25360  0.55720  1.0000 -0.1381993172
C   C52       1.0  0.06560  0.74640  0.05720  1.0000 -0.1381993172
C   C53       1.0  0.66926  0.02574  0.98480  1.0000 0.0240628506
C   C54       1.0  0.33074  0.97426  0.48480  1.0000 0.0240628506
C   C55       1.0  0.97426  0.33074  0.51520  1.0000 0.0240628506
C   C56       1.0  0.02574  0.66926  0.01520  1.0000 0.0240628506
C   C57       1.0  0.66250  0.97490  0.03150  1.0000 0.0492575812
C   C58       1.0  0.33750  0.02510  0.53150  1.0000 0.0492575812
C   C59       1.0  0.02510  0.33750  0.46850  1.0000 0.0492575812
C   C60       1.0  0.97490  0.66250  0.96850  1.0000 0.0492575812
C   C61       1.0  0.57610  0.88310  0.12380  1.0000 0.5615429702
C   C62       1.0  0.42390  0.11690  0.62380  1.0000 0.5615429702
C   C63       1.0  0.11690  0.42390  0.37620  1.0000 0.5615429702
C   C64       1.0  0.88310  0.57610  0.87620  1.0000 0.5615429702
C   C65       1.0  0.39350  0.98190  0.05850  1.0000 0.029887536
C   C66       1.0  0.60650  0.01810  0.55850  1.0000 0.029887536
C   C67       1.0  0.01810  0.60650  0.44150  1.0000 0.029887536
C   C68       1.0  0.98190  0.39350  0.94150  1.0000 0.029887536
C   C69       1.0  0.35300  0.02760  0.04370  1.0000 -0.408741082
C   C70       1.0  0.64700  0.97240  0.54370  1.0000 -0.408741082
C   C71       1.0  0.97240  0.64700  0.45630  1.0000 -0.408741082
C   C72       1.0  0.02760  0.35300  0.95630  1.0000 -0.408741082
C   C73       1.0  0.60833  0.09407  0.93330  1.0000 -0.0618218937
C   C74       1.0  0.39167  0.90593  0.43330  1.0000 -0.0618218937
C   C75       1.0  0.90593  0.39167  0.56670  1.0000 -0.0618218937
C   C76       1.0  0.09407  0.60833  0.06670  1.0000 -0.0618218937
C   C77       1.0  0.65580  0.19820  0.94260  1.0000 0.2114684257
C   C78       1.0  0.34420  0.80180  0.44260  1.0000 0.2114684257
C   C79       1.0  0.80180  0.34420  0.55740  1.0000 0.2114684257
C   C80       1.0  0.19820  0.65580  0.05740  1.0000 0.2114684257
C   C81       1.0  0.65650  0.25250  0.90130  1.0000 -0.2394388624
C   C82       1.0  0.34350  0.74750  0.40130  1.0000 -0.2394388624
C   C83       1.0  0.74750  0.34350  0.59870  1.0000 -0.2394388624
C   C84       1.0  0.25250  0.65650  0.09870  1.0000 -0.2394388624
C   C85       1.0  0.61059  0.20421  0.85230  1.0000 -0.040934204
C   C86       1.0  0.38941  0.79579  0.35230  1.0000 -0.040934204
C   C87       1.0  0.79579  0.38941  0.64770  1.0000 -0.040934204
C   C88       1.0  0.20421  0.61059  0.14770  1.0000 -0.040934204
C   C89       1.0  0.52000  0.04700  0.78700  1.0000 -0.2049976465
C   C90       1.0  0.48000  0.95300  0.28700  1.0000 -0.2049976465
C   C91       1.0  0.95300  0.48000  0.71300  1.0000 -0.2049976465
C   C92       1.0  0.04700  0.52000  0.21300  1.0000 -0.2049976465
C   C93       1.0  0.47620  0.94560  0.77900  1.0000 0.1511651325
C   C94       1.0  0.52380  0.05440  0.27900  1.0000 0.1511651325
C   C95       1.0  0.05440  0.52380  0.72100  1.0000 0.1511651325
C   C96       1.0  0.94560  0.47620  0.22100  1.0000 0.1511651325
C   C97       1.0  0.47360  0.89060  0.82020  1.0000 -0.1646786657
C   C98       1.0  0.52640  0.10940  0.32020  1.0000 -0.1646786657
C   C99       1.0  0.10940  0.52640  0.67980  1.0000 -0.1646786657
C   C100      1.0  0.89060  0.47360  0.17980  1.0000 -0.1646786657
C   C101      1.0  0.52030  0.94110  0.86890  1.0000 -0.1462669213
C   C102      1.0  0.47970  0.05890  0.36890  1.0000 -0.1462669213
C   C103      1.0  0.05890  0.47970  0.63110  1.0000 -0.1462669213
C   C104      1.0  0.94110  0.52030  0.13110  1.0000 -0.1462669213
C   C105      1.0  0.56550  0.04570  0.88160  1.0000 0.029887536
C   C106      1.0  0.43450  0.95430  0.38160  1.0000 0.029887536
C   C107      1.0  0.95430  0.43450  0.61840  1.0000 0.029887536
C   C108      1.0  0.04570  0.56550  0.11840  1.0000 0.029887536
C   C109      1.0  0.56346  0.09914  0.83980  1.0000 0.06799421
C   C110      1.0  0.43654  0.90086  0.33980  1.0000 0.06799421
C   C111      1.0  0.90086  0.43654  0.66020  1.0000 0.06799421
C   C112      1.0  0.09914  0.56346  0.16020  1.0000 0.06799421
C   C113      1.0  0.60640  0.26460  0.81200  1.0000 0.6566082063
C   C114      1.0  0.39360  0.73540  0.31200  1.0000 0.6566082063
C   C115      1.0  0.73540  0.39360  0.68800  1.0000 0.6566082063
C   C116      1.0  0.26460  0.60640  0.18800  1.0000 0.6566082063
C   C117      1.0  0.68530  0.30590  0.01410  1.0000 0.0240628506
C   C118      1.0  0.31470  0.69410  0.51410  1.0000 0.0240628506
C   C119      1.0  0.69410  0.31470  0.48590  1.0000 0.0240628506
C   C120      1.0  0.30590  0.68530  0.98590  1.0000 0.0240628506
C   C121      1.0  0.67440  0.29020  0.07510  1.0000 -0.408741082
C   C122      1.0  0.32560  0.70980  0.57510  1.0000 -0.408741082
C   C123      1.0  0.70980  0.32560  0.42490  1.0000 -0.408741082
C   C124      1.0  0.29020  0.67440  0.92490  1.0000 -0.408741082
C   C125      1.0  0.38610  0.40650  0.02660  1.0000 -0.0658847269
C   C126      1.0  0.61390  0.59350  0.52660  1.0000 -0.0658847269
C   C127      1.0  0.59350  0.61390  0.47340  1.0000 -0.0658847269
C   C128      1.0  0.40650  0.38610  0.97340  1.0000 -0.0658847269
C   C129      1.0  0.42160  0.50340  0.03500  1.0000 0.1988337926
C   C130      1.0  0.57840  0.49660  0.53500  1.0000 0.1988337926
C   C131      1.0  0.49660  0.57840  0.46500  1.0000 0.1988337926
C   C132      1.0  0.50340  0.42160  0.96500  1.0000 0.1988337926
C   C133      1.0  0.41100  0.52940  0.08590  1.0000 -0.2558444467
C   C134      1.0  0.58900  0.47060  0.58590  1.0000 -0.2558444467
C   C135      1.0  0.47060  0.58900  0.41410  1.0000 -0.2558444467
C   C136      1.0  0.52940  0.41100  0.91410  1.0000 -0.2558444467
C   C137      1.0  0.36320  0.45560  0.12870  1.0000 -0.040934204
C   C138      1.0  0.63680  0.54440  0.62870  1.0000 -0.040934204
C   C139      1.0  0.54440  0.63680  0.37130  1.0000 -0.040934204
C   C140      1.0  0.45560  0.36320  0.87130  1.0000 -0.040934204
C   C141      1.0  0.27490  0.27570  0.16370  1.0000 -0.1904193972
C   C142      1.0  0.72510  0.72430  0.66370  1.0000 -0.1904193972
C   C143      1.0  0.72430  0.72510  0.33630  1.0000 -0.1904193972
C   C144      1.0  0.27570  0.27490  0.83630  1.0000 -0.1904193972
C   C145      1.0  0.24020  0.18020  0.15390  1.0000 0.1304274978
C   C146      1.0  0.75980  0.81980  0.65390  1.0000 0.1304274978
C   C147      1.0  0.81980  0.75980  0.34610  1.0000 0.1304274978
C   C148      1.0  0.18020  0.24020  0.84610  1.0000 0.1304274978
C   C149      1.0  0.25160  0.15520  0.10440  1.0000 -0.1698073474
C   C150      1.0  0.74840  0.84480  0.60440  1.0000 -0.1698073474
C   C151      1.0  0.84480  0.74840  0.39560  1.0000 -0.1698073474
C   C152      1.0  0.15520  0.25160  0.89560  1.0000 -0.1698073474
C   C153      1.0  0.29780  0.22860  0.06210  1.0000 -0.1381993172
C   C154      1.0  0.70220  0.77140  0.56210  1.0000 -0.1381993172
C   C155      1.0  0.77140  0.70220  0.43790  1.0000 -0.1381993172
C   C156      1.0  0.22860  0.29780  0.93790  1.0000 -0.1381993172
C   C157      1.0  0.33700  0.33160  0.06910  1.0000 0.0436293353
C   C158      1.0  0.66300  0.66840  0.56910  1.0000 0.0436293353
C   C159      1.0  0.66840  0.66300  0.43090  1.0000 0.0436293353
C   C160      1.0  0.33160  0.33700  0.93090  1.0000 0.0436293353
C   C161      1.0  0.32080  0.35220  0.12140  1.0000 0.06799421
C   C162      1.0  0.67920  0.64780  0.62140  1.0000 0.06799421
C   C163      1.0  0.64780  0.67920  0.37860  1.0000 0.06799421
C   C164      1.0  0.35220  0.32080  0.87860  1.0000 0.06799421
C   C165      1.0  0.36250  0.49650  0.18110  1.0000 0.6539532515
C   C166      1.0  0.63750  0.50350  0.68110  1.0000 0.6539532515
C   C167      1.0  0.50350  0.63750  0.31890  1.0000 0.6539532515
C   C168      1.0  0.49650  0.36250  0.81890  1.0000 0.6539532515
C   C169      1.0  0.50920  0.67600  0.99540  1.0000 0.029887536
C   C170      1.0  0.49080  0.32400  0.49540  1.0000 0.029887536
C   C171      1.0  0.32400  0.49080  0.50460  1.0000 0.029887536
C   C172      1.0  0.67600  0.50920  0.00460  1.0000 0.029887536
C   C173      1.0  0.54220  0.72620  0.94170  1.0000 -0.4164425012
C   C174      1.0  0.45780  0.27380  0.44170  1.0000 -0.4164425012
C   C175      1.0  0.27380  0.45780  0.55830  1.0000 -0.4164425012
C   C176      1.0  0.72620  0.54220  0.05830  1.0000 -0.4164425012
N   N1        1.0  0.69796  0.80824  0.18350  1.0000 -0.408741082
N   N2        1.0  0.30204  0.19176  0.68350  1.0000 -0.408741082
N   N3        1.0  0.19176  0.30204  0.31650  1.0000 -0.408741082
N   N4        1.0  0.80824  0.69796  0.81650  1.0000 -0.408741082
Cl  Cl1       1.0  0.89898  0.00262  0.99973  1.0000 -0.1247446117
Cl  Cl2       1.0  0.10102  0.99738  0.49973  1.0000 -0.1273752851
Cl  Cl3       1.0  0.99738  0.10102  0.50027  1.0000 -0.1273752851
Cl  Cl4       1.0  0.00262  0.89898  0.00027  1.0000 -0.1273752851
Cl  Cl5       1.0  0.41990  0.88170  0.71515  1.0000 -0.1247446117
Cl  Cl6       1.0  0.58010  0.11830  0.21515  1.0000 -0.1247446117
Cl  Cl7       1.0  0.11830  0.58010  0.78485  1.0000 -0.1247446117
Cl  Cl8       1.0  0.88170  0.41990  0.28485  1.0000 -0.1247446117
Cl  Cl9       1.0  0.18194  0.08366  0.20673  1.0000 -0.1094370511
Cl  Cl10      1.0  0.81806  0.91634  0.70673  1.0000 -0.1094370511
Cl  Cl11      1.0  0.91634  0.81806  0.29327  1.0000 -0.1094370511
Cl  Cl12      1.0  0.08366  0.18194  0.79327  1.0000 -0.1094370511
O   O1        1.0  0.56305  0.80615  0.11967  1.0000 -0.6192336109
O   O2        1.0  0.43695  0.19385  0.61967  1.0000 -0.6192336109
O   O3        1.0  0.19385  0.43695  0.38033  1.0000 -0.6192336109
O   O4        1.0  0.80615  0.56305  0.88033  1.0000 -0.6192336109
O   O5        1.0  0.57791  0.91509  0.16938  1.0000 -0.6056022522
O   O6        1.0  0.42209  0.08491  0.66938  1.0000 -0.6056022522
O   O7        1.0  0.08491  0.42209  0.33062  1.0000 -0.6056022522
O   O8        1.0  0.91509  0.57791  0.83062  1.0000 -0.6056022522
O   O9        1.0  0.46757  0.01583  0.01620  1.0000 -0.1804236995
O   O10       1.0  0.53243  0.98417  0.51620  1.0000 -0.1804236995
O   O11       1.0  0.98417  0.53243  0.48380  1.0000 -0.1804236995
O   O12       1.0  0.01583  0.46757  0.98380  1.0000 -0.1804236995
O   O13       1.0  0.68745  0.36815  0.81270  1.0000 -0.6316505101
O   O14       1.0  0.31255  0.63185  0.31270  1.0000 -0.6316505101
O   O15       1.0  0.63185  0.31255  0.68730  1.0000 -0.6316505101
O   O16       1.0  0.36815  0.68745  0.18730  1.0000 -0.6316505101
O   O17       1.0  0.51955  0.20505  0.78420  1.0000 -0.6569341075
O   O18       1.0  0.48045  0.79495  0.28420  1.0000 -0.6569341075
O   O19       1.0  0.79495  0.48045  0.71580  1.0000 -0.6569341075
O   O20       1.0  0.20505  0.51955  0.21580  1.0000 -0.6569341075
O   O21       1.0  0.69818  0.24282  0.99300  1.0000 -0.1804236995
O   O22       1.0  0.30182  0.75718  0.49300  1.0000 -0.1804236995
O   O23       1.0  0.75718  0.30182  0.50700  1.0000 -0.1804236995
O   O24       1.0  0.24282  0.69818  0.00700  1.0000 -0.1804236995
O   O25       1.0  0.44150  0.59750  0.19000  1.0000 -0.6569341075
O   O26       1.0  0.55850  0.40250  0.69000  1.0000 -0.6569341075
O   O27       1.0  0.40250  0.55850  0.31000  1.0000 -0.6569341075
O   O28       1.0  0.59750  0.44150  0.81000  1.0000 -0.6569341075
O   O29       1.0  0.28023  0.42477  0.21210  1.0000 -0.6457730111
O   O30       1.0  0.71977  0.57523  0.71210  1.0000 -0.6457730111
O   O31       1.0  0.57523  0.71977  0.28790  1.0000 -0.6457730111
O   O32       1.0  0.42477  0.28023  0.78790  1.0000 -0.6457730111
O   O33       1.0  0.46760  0.57400  0.99100  1.0000 -0.1904193972
O   O34       1.0  0.53240  0.42600  0.49100  1.0000 -0.1904193972
O   O35       1.0  0.42600  0.53240  0.50900  1.0000 -0.1904193972
O   O36       1.0  0.57400  0.46760  0.00900  1.0000 -0.1904193972
