# DDEC6 charges by PACMAN v1.1 (https://github.com/mtap-research/PACMAN-charge/)
data_2002[Cd][scu]3[ASR]1
_chemical_formula_sum              "Cd8 H96 C124 S13 N8 O8"
_cell_length_a       18.8818
_cell_length_b       18.8818
_cell_length_c       13.2949
_cell_angle_alpha    89.5901
_cell_angle_beta     90.4099
_cell_angle_gamma    91.9612

_symmetry_space_group_name_H-M    "P 1"
_symmetry_Int_Tables_number       1

loop_
  _symmetry_equiv_pos_as_xyz
  'x, y, z'

loop_
  _atom_site_type_symbol
  _atom_site_label
  _atom_site_symmetry_multiplicity
  _atom_site_fract_x
  _atom_site_fract_y
  _atom_site_fract_z
  _atom_site_occupancy
  _atom_site_charge
Cd  Cd1       1.0  0.51792  0.64140  0.82123  1.0000 0.5779909418
Cd  Cd2       1.0  0.35860  0.48208  0.82123  1.0000 0.5779909418
Cd  Cd3       1.0  0.48208  0.35860  0.17877  1.0000 0.5779909418
Cd  Cd4       1.0  0.64140  0.51792  0.17877  1.0000 0.5779909418
Cd  Cd5       1.0  0.49281  0.66691  0.12559  1.0000 0.553701155
Cd  Cd6       1.0  0.33309  0.50719  0.12559  1.0000 0.553701155
Cd  Cd7       1.0  0.50719  0.33309  0.87441  1.0000 0.553701155
Cd  Cd8       1.0  0.66691  0.49281  0.87441  1.0000 0.553701155
H   H1        1.0  0.57030  0.82470  0.16290  1.0000 0.0992691231
H   H2        1.0  0.17530  0.42970  0.16290  1.0000 0.0992691231
H   H3        1.0  0.42970  0.17530  0.83710  1.0000 0.0992691231
H   H4        1.0  0.82470  0.57030  0.83710  1.0000 0.0992691231
H   H5        1.0  0.42050  0.76530  0.76030  1.0000 0.0992691231
H   H6        1.0  0.23470  0.57950  0.76030  1.0000 0.0992691231
H   H7        1.0  0.57950  0.23470  0.23970  1.0000 0.0992691231
H   H8        1.0  0.76530  0.42050  0.23970  1.0000 0.0992691231
H   H9        1.0  0.59180  0.83240  0.54070  1.0000 0.1310596482
H   H10       1.0  0.16760  0.40820  0.54070  1.0000 0.1310596482
H   H11       1.0  0.40820  0.16760  0.45930  1.0000 0.1310596482
H   H12       1.0  0.83240  0.59180  0.45930  1.0000 0.1310596482
H   H13       1.0  0.58120  0.91380  0.27960  1.0000 0.1310596482
H   H14       1.0  0.08620  0.41880  0.27960  1.0000 0.1310596482
H   H15       1.0  0.41880  0.08620  0.72040  1.0000 0.1310596482
H   H16       1.0  0.91380  0.58120  0.72040  1.0000 0.1310596482
H   H17       1.0  0.49560  0.98740  0.67340  1.0000 0.1106450486
H   H18       1.0  0.01260  0.50440  0.67340  1.0000 0.1106450486
H   H19       1.0  0.50440  0.01260  0.32660  1.0000 0.1106450486
H   H20       1.0  0.98740  0.49560  0.32660  1.0000 0.1106450486
H   H21       1.0  0.40670  0.86810  0.67100  1.0000 0.1310596482
H   H22       1.0  0.13190  0.59330  0.67100  1.0000 0.1310596482
H   H23       1.0  0.59330  0.13190  0.32900  1.0000 0.1310596482
H   H24       1.0  0.86810  0.40670  0.32900  1.0000 0.1310596482
H   H25       1.0  0.41940  0.82040  0.42860  1.0000 0.1310596482
H   H26       1.0  0.17960  0.58060  0.42860  1.0000 0.1310596482
H   H27       1.0  0.58060  0.17960  0.57140  1.0000 0.1310596482
H   H28       1.0  0.82040  0.41940  0.57140  1.0000 0.1310596482
H   H29       1.0  0.41370  0.73510  0.30830  1.0000 0.0901715915
H   H30       1.0  0.26490  0.58630  0.30830  1.0000 0.0901715915
H   H31       1.0  0.58630  0.26490  0.69170  1.0000 0.0901715915
H   H32       1.0  0.73510  0.41370  0.69170  1.0000 0.0901715915
H   H33       1.0  0.60010  0.73050  0.63860  1.0000 0.0901715915
H   H34       1.0  0.26950  0.39990  0.63860  1.0000 0.0901715915
H   H35       1.0  0.39990  0.26950  0.36140  1.0000 0.0901715915
H   H36       1.0  0.73050  0.60010  0.36140  1.0000 0.0901715915
H   H37       1.0  0.69960  0.61100  0.57560  1.0000 0.1179085736
H   H38       1.0  0.38900  0.30040  0.57560  1.0000 0.1179085736
H   H39       1.0  0.30040  0.38900  0.42440  1.0000 0.1179085736
H   H40       1.0  0.61100  0.69960  0.42440  1.0000 0.1179085736
H   H41       1.0  0.78950  0.69310  0.54440  1.0000 0.0992691231
H   H42       1.0  0.30690  0.21050  0.54440  1.0000 0.0992691231
H   H43       1.0  0.21050  0.30690  0.45560  1.0000 0.0992691231
H   H44       1.0  0.69310  0.78950  0.45560  1.0000 0.0992691231
H   H45       1.0  0.83130  0.76590  0.67320  1.0000 0.1106450486
H   H46       1.0  0.23410  0.16870  0.67320  1.0000 0.1106450486
H   H47       1.0  0.16870  0.23410  0.32680  1.0000 0.1106450486
H   H48       1.0  0.76590  0.83130  0.32680  1.0000 0.1106450486
H   H49       1.0  0.77850  0.75950  0.83130  1.0000 0.1106450486
H   H50       1.0  0.24050  0.22150  0.83130  1.0000 0.1106450486
H   H51       1.0  0.22150  0.24050  0.16870  1.0000 0.1106450486
H   H52       1.0  0.75950  0.77850  0.16870  1.0000 0.1106450486
H   H53       1.0  0.68870  0.67570  0.85920  1.0000 0.1106450486
H   H54       1.0  0.32430  0.31130  0.85920  1.0000 0.1106450486
H   H55       1.0  0.31130  0.32430  0.14080  1.0000 0.1106450486
H   H56       1.0  0.67570  0.68870  0.14080  1.0000 0.1106450486
H   H57       1.0  0.42640  0.79160  0.00400  1.0000 0.1179085736
H   H58       1.0  0.20840  0.57360  0.00400  1.0000 0.1179085736
H   H59       1.0  0.57360  0.20840  0.99600  1.0000 0.1179085736
H   H60       1.0  0.79160  0.42640  0.99600  1.0000 0.1179085736
H   H61       1.0  0.39280  0.90560  0.97420  1.0000 0.1179085736
H   H62       1.0  0.09440  0.60720  0.97420  1.0000 0.1106450486
H   H63       1.0  0.60720  0.09440  0.02580  1.0000 0.1179085736
H   H64       1.0  0.90560  0.39280  0.02580  1.0000 0.1179085736
H   H65       1.0  0.46380  0.98640  0.88680  1.0000 0.1106450486
H   H66       1.0  0.01360  0.53620  0.88680  1.0000 0.1106450486
H   H67       1.0  0.53620  0.01360  0.11320  1.0000 0.1106450486
H   H68       1.0  0.98640  0.46380  0.11320  1.0000 0.1106450486
H   H69       1.0  0.57860  0.95280  0.85590  1.0000 0.1106450486
H   H70       1.0  0.04720  0.42140  0.85590  1.0000 0.1106450486
H   H71       1.0  0.42140  0.04720  0.14410  1.0000 0.1106450486
H   H72       1.0  0.95280  0.57860  0.14410  1.0000 0.1106450486
H   H73       1.0  0.61110  0.83810  0.87810  1.0000 0.1310596482
H   H74       1.0  0.16190  0.38890  0.87810  1.0000 0.1310596482
H   H75       1.0  0.38890  0.16190  0.12190  1.0000 0.1310596482
H   H76       1.0  0.83810  0.61110  0.12190  1.0000 0.1310596482
H   H77       1.0  0.33780  0.66220  0.95300  1.0000 0.0992691231
H   H78       1.0  0.66220  0.33780  0.04700  1.0000 0.0992691231
H   H79       1.0  0.26080  0.73920  0.86900  1.0000 0.1106450486
H   H80       1.0  0.73920  0.26080  0.13100  1.0000 0.1106450486
H   H81       1.0  0.27160  0.72840  0.22160  1.0000 0.1179085736
H   H82       1.0  0.72840  0.27160  0.77840  1.0000 0.1179085736
H   H83       1.0  0.19350  0.80650  0.14320  1.0000 0.1106450486
H   H84       1.0  0.80650  0.19350  0.85680  1.0000 0.1106450486
H   H85       1.0  0.19230  0.80770  0.97040  1.0000 0.0992691231
H   H86       1.0  0.80770  0.19230  0.02960  1.0000 0.0992691231
H   H87       1.0  0.46150  0.53850  0.63020  1.0000 0.1179085736
H   H88       1.0  0.53850  0.46150  0.36980  1.0000 0.1179085736
H   H89       1.0  0.46340  0.53660  0.45890  1.0000 0.1179085736
H   H90       1.0  0.53660  0.46340  0.54110  1.0000 0.1179085736
H   H91       1.0  0.38930  0.61070  0.37610  1.0000 0.1106450486
H   H92       1.0  0.61070  0.38930  0.62390  1.0000 0.1106450486
H   H93       1.0  0.31570  0.68430  0.45650  1.0000 0.1106450486
H   H94       1.0  0.68430  0.31570  0.54350  1.0000 0.1106450486
H   H95       1.0  0.31930  0.68070  0.62970  1.0000 0.1179085736
H   H96       1.0  0.68070  0.31930  0.37030  1.0000 0.1179085736
C   C1        1.0  0.50060  0.86160  0.59490  1.0000 0.1106450486
C   C2        1.0  0.13840  0.49940  0.59490  1.0000 0.1106450486
C   C3        1.0  0.49940  0.13840  0.40510  1.0000 0.1106450486
C   C4        1.0  0.86160  0.50060  0.40510  1.0000 0.1106450486
C   C5        1.0  0.49870  0.87910  0.36690  1.0000 0.1106450486
C   C6        1.0  0.12090  0.50130  0.36690  1.0000 0.1106450486
C   C7        1.0  0.50130  0.12090  0.63310  1.0000 0.1106450486
C   C8        1.0  0.87910  0.49870  0.63310  1.0000 0.1106450486
C   C9        1.0  0.53930  0.82410  0.21690  1.0000 0.0992691231
C   C10       1.0  0.17590  0.46070  0.21690  1.0000 0.0992691231
C   C11       1.0  0.46070  0.17590  0.78310  1.0000 0.0992691231
C   C12       1.0  0.82410  0.53930  0.78310  1.0000 0.0992691231
C   C13       1.0  0.45630  0.77970  0.71640  1.0000 0.0901715915
C   C14       1.0  0.22030  0.54370  0.71640  1.0000 0.0901715915
C   C15       1.0  0.54370  0.22030  0.28360  1.0000 0.0901715915
C   C16       1.0  0.77970  0.45630  0.28360  1.0000 0.0901715915
C   C17       1.0  0.55610  0.82030  0.58620  1.0000 -0.1906810824
C   C18       1.0  0.17970  0.44390  0.58620  1.0000 -0.1906810824
C   C19       1.0  0.44390  0.17970  0.41380  1.0000 -0.1906810824
C   C20       1.0  0.82030  0.55610  0.41380  1.0000 -0.1906810824
C   C21       1.0  0.54590  0.87850  0.28640  1.0000 -0.2093521219
C   C22       1.0  0.12150  0.45410  0.28640  1.0000 -0.2093521219
C   C23       1.0  0.45410  0.12150  0.71360  1.0000 -0.2093521219
C   C24       1.0  0.87850  0.54590  0.71360  1.0000 -0.2093521219
C   C25       1.0  0.49630  0.99250  0.60380  1.0000 -0.2093521219
C   C26       1.0  0.00750  0.50370  0.60380  1.0000 -0.2093521219
C   C27       1.0  0.50370  0.00750  0.39620  1.0000 -0.2093521219
C   C28       1.0  0.99250  0.49630  0.39620  1.0000 -0.2093521219
C   C29       1.0  0.50240  0.93940  0.43990  1.0000 0.0180362392
C   C30       1.0  0.06060  0.49760  0.43990  1.0000 0.0180362392
C   C31       1.0  0.49760  0.06060  0.56010  1.0000 0.0180362392
C   C32       1.0  0.93940  0.50240  0.56010  1.0000 0.0180362392
C   C33       1.0  0.44660  0.84140  0.66280  1.0000 -0.2093521219
C   C34       1.0  0.15860  0.55340  0.66280  1.0000 -0.2093521219
C   C35       1.0  0.55340  0.15860  0.33720  1.0000 -0.2093521219
C   C36       1.0  0.84140  0.44660  0.33720  1.0000 -0.2093521219
C   C37       1.0  0.45030  0.82330  0.37440  1.0000 -0.1956805585
C   C38       1.0  0.17670  0.54970  0.37440  1.0000 -0.1956805585
C   C39       1.0  0.54970  0.17670  0.62560  1.0000 -0.1956805585
C   C40       1.0  0.82330  0.45030  0.62560  1.0000 -0.1956805585
C   C41       1.0  0.44760  0.77180  0.30210  1.0000 0.067771325
C   C42       1.0  0.22820  0.55240  0.30210  1.0000 0.067771325
C   C43       1.0  0.55240  0.22820  0.69790  1.0000 0.067771325
C   C44       1.0  0.77180  0.44760  0.69790  1.0000 0.067771325
C   C45       1.0  0.49610  0.93050  0.54050  1.0000 0.0180362392
C   C46       1.0  0.06950  0.50390  0.54050  1.0000 0.0180362392
C   C47       1.0  0.50390  0.06950  0.45950  1.0000 0.0180362392
C   C48       1.0  0.93050  0.49610  0.45950  1.0000 0.0180362392
C   C49       1.0  0.56090  0.75850  0.64570  1.0000 0.067771325
C   C50       1.0  0.24150  0.43910  0.64570  1.0000 0.067771325
C   C51       1.0  0.43910  0.24150  0.35430  1.0000 0.067771325
C   C52       1.0  0.75850  0.56090  0.35430  1.0000 0.067771325
C   C53       1.0  0.68400  0.63440  0.72190  1.0000 0.0901715915
C   C54       1.0  0.36560  0.31600  0.72190  1.0000 0.0901715915
C   C55       1.0  0.31600  0.36560  0.27810  1.0000 0.0901715915
C   C56       1.0  0.63440  0.68400  0.27810  1.0000 0.0901715915
C   C57       1.0  0.71560  0.64060  0.62710  1.0000 -0.156882055
C   C58       1.0  0.35940  0.28440  0.62710  1.0000 -0.156882055
C   C59       1.0  0.28440  0.35940  0.37290  1.0000 -0.156882055
C   C60       1.0  0.64060  0.71560  0.37290  1.0000 -0.156882055
C   C61       1.0  0.76960  0.68960  0.60810  1.0000 -0.1115736488
C   C62       1.0  0.31040  0.23040  0.60810  1.0000 -0.1115736488
C   C63       1.0  0.23040  0.31040  0.39190  1.0000 -0.1115736488
C   C64       1.0  0.68960  0.76960  0.39190  1.0000 -0.1115736488
C   C65       1.0  0.79410  0.73350  0.68510  1.0000 -0.1170623003
C   C66       1.0  0.26650  0.20590  0.68510  1.0000 -0.1170623003
C   C67       1.0  0.20590  0.26650  0.31490  1.0000 -0.1170623003
C   C68       1.0  0.73350  0.79410  0.31490  1.0000 -0.1170623003
C   C69       1.0  0.76320  0.72940  0.78000  1.0000 -0.0893540922
C   C70       1.0  0.27060  0.23680  0.78000  1.0000 -0.0893540922
C   C71       1.0  0.23680  0.27060  0.22000  1.0000 -0.0893540922
C   C72       1.0  0.72940  0.76320  0.22000  1.0000 -0.0893540922
C   C73       1.0  0.70900  0.67920  0.79570  1.0000 -0.1794157921
C   C74       1.0  0.32080  0.29100  0.79570  1.0000 -0.1794157921
C   C75       1.0  0.29100  0.32080  0.20430  1.0000 -0.1794157921
C   C76       1.0  0.67920  0.70900  0.20430  1.0000 -0.1794157921
C   C77       1.0  0.52310  0.80210  0.94710  1.0000 0.0992691231
C   C78       1.0  0.19790  0.47690  0.94710  1.0000 0.0992691231
C   C79       1.0  0.47690  0.19790  0.05290  1.0000 0.0992691231
C   C80       1.0  0.80210  0.52310  0.05290  1.0000 0.0992691231
C   C81       1.0  0.45790  0.82350  0.97270  1.0000 -0.1724006855
C   C82       1.0  0.17650  0.54210  0.97270  1.0000 -0.1724006855
C   C83       1.0  0.54210  0.17650  0.02730  1.0000 -0.1724006855
C   C84       1.0  0.82350  0.45790  0.02730  1.0000 -0.1724006855
C   C85       1.0  0.43730  0.89250  0.95300  1.0000 -0.0978412755
C   C86       1.0  0.10750  0.56270  0.95300  1.0000 -0.0978412755
C   C87       1.0  0.56270  0.10750  0.04700  1.0000 -0.0978412755
C   C88       1.0  0.89250  0.43730  0.04700  1.0000 -0.0978412755
C   C89       1.0  0.47920  0.94160  0.90420  1.0000 -0.1393550112
C   C90       1.0  0.05840  0.52080  0.90420  1.0000 -0.1393550112
C   C91       1.0  0.52080  0.05840  0.09580  1.0000 -0.1393550112
C   C92       1.0  0.94160  0.47920  0.09580  1.0000 -0.1393550112
C   C93       1.0  0.54590  0.92010  0.88280  1.0000 -0.0978412755
C   C94       1.0  0.07990  0.45410  0.88280  1.0000 -0.0978412755
C   C95       1.0  0.45410  0.07990  0.11720  1.0000 -0.0978412755
C   C96       1.0  0.92010  0.54590  0.11720  1.0000 -0.0978412755
C   C97       1.0  0.56670  0.85130  0.89950  1.0000 -0.1504385038
C   C98       1.0  0.14870  0.43330  0.89950  1.0000 -0.1504385038
C   C99       1.0  0.43330  0.14870  0.10050  1.0000 -0.1504385038
C   C100      1.0  0.85130  0.56670  0.10050  1.0000 -0.1504385038
C   C101      1.0  0.31090  0.68910  0.09400  1.0000 0.0834670515
C   C102      1.0  0.68910  0.31090  0.90600  1.0000 0.0834670515
C   C103      1.0  0.30870  0.69130  0.98950  1.0000 -0.1794157921
C   C104      1.0  0.69130  0.30870  0.01050  1.0000 -0.1794157921
C   C105      1.0  0.26360  0.73640  0.93900  1.0000 -0.0978412755
C   C106      1.0  0.73640  0.26360  0.06100  1.0000 -0.0978412755
C   C107      1.0  0.26880  0.73120  0.15200  1.0000 -0.1724006855
C   C108      1.0  0.73120  0.26880  0.84800  1.0000 -0.1724006855
C   C109      1.0  0.22250  0.77750  0.10700  1.0000 -0.0978412755
C   C110      1.0  0.77750  0.22250  0.89300  1.0000 -0.0978412755
C   C111      1.0  0.22300  0.77700  0.00200  1.0000 -0.1115736488
C   C112      1.0  0.77700  0.22300  0.99800  1.0000 -0.1115736488
C   C113      1.0  0.39040  0.60960  0.64940  1.0000 0.0992691231
C   C114      1.0  0.60960  0.39040  0.35060  1.0000 0.0992691231
C   C115      1.0  0.43170  0.56830  0.59510  1.0000 -0.1906810824
C   C116      1.0  0.56830  0.43170  0.40490  1.0000 -0.1906810824
C   C117      1.0  0.43380  0.56620  0.49350  1.0000 -0.0671772807
C   C118      1.0  0.56620  0.43380  0.50650  1.0000 -0.0671772807
C   C119      1.0  0.38930  0.61070  0.44600  1.0000 -0.1393550112
C   C120      1.0  0.61070  0.38930  0.55400  1.0000 -0.1393550112
C   C121      1.0  0.34550  0.65450  0.49150  1.0000 -0.0978412755
C   C122      1.0  0.65450  0.34550  0.50850  1.0000 -0.0978412755
C   C123      1.0  0.34870  0.65130  0.59470  1.0000 -0.1794157921
C   C124      1.0  0.65130  0.34870  0.40530  1.0000 -0.1794157921
S   S1        1.0  0.61276  0.57172  0.74040  1.0000 -0.3662203251
S   S2        1.0  0.42828  0.38724  0.74040  1.0000 -0.3662203251
S   S3        1.0  0.38724  0.42828  0.25960  1.0000 -0.3662203251
S   S4        1.0  0.57172  0.61276  0.25960  1.0000 -0.3662203251
S   S5        1.0  0.55420  0.71576  0.97335  1.0000 -0.3938274159
S   S6        1.0  0.28424  0.44580  0.97335  1.0000 -0.3938274159
S   S7        1.0  0.44580  0.28424  0.02665  1.0000 -0.3938274159
S   S8        1.0  0.71576  0.55420  0.02665  1.0000 -0.3938274159
S   S9        1.0  0.36510  0.63490  0.16330  1.0000 -0.3784733786
S   S10       1.0  0.63490  0.36510  0.83670  1.0000 -0.3784733786
S   S11       1.0  0.38968  0.61032  0.78480  1.0000 -0.4179662539
S   S12       1.0  0.61032  0.38968  0.21520  1.0000 -0.4179662539
S   S13       1.0  0.50000  0.50000  0.00000  1.0000 0.6799560712
N   N1        1.0  0.51140  0.73900  0.71130  1.0000 -0.2160052302
N   N2        1.0  0.26100  0.48860  0.71130  1.0000 -0.2160052302
N   N3        1.0  0.48860  0.26100  0.28870  1.0000 -0.2160052302
N   N4        1.0  0.73900  0.51140  0.28870  1.0000 -0.2160052302
N   N5        1.0  0.49130  0.77150  0.22280  1.0000 -0.2160052302
N   N6        1.0  0.22850  0.50870  0.22280  1.0000 -0.2160052302
N   N7        1.0  0.50870  0.22850  0.77720  1.0000 -0.2160052302
N   N8        1.0  0.77150  0.49130  0.77720  1.0000 -0.2160052302
O   O1        1.0  0.54090  0.52850  0.91790  1.0000 -0.1504385038
O   O2        1.0  0.47150  0.45910  0.91790  1.0000 -0.156882055
O   O3        1.0  0.45910  0.47150  0.08210  1.0000 -0.156882055
O   O4        1.0  0.52850  0.54090  0.08210  1.0000 -0.156882055
O   O5        1.0  0.49060  0.57020  0.96800  1.0000 -0.1315377577
O   O6        1.0  0.42980  0.50940  0.96800  1.0000 -0.1315377577
O   O7        1.0  0.50940  0.42980  0.03200  1.0000 -0.1315377577
O   O8        1.0  0.57020  0.49060  0.03200  1.0000 -0.1315377577
