# DDEC6 charges by PACMAN v1.1 (https://github.com/mtap-research/PACMAN-charge/)
data_2002[Cu][kdd]3[ASR]5
_chemical_formula_sum              "Cu2 H16 C24 N4 O8"
_cell_length_a       12.8097
_cell_length_b       12.8097
_cell_length_c       10.8011
_cell_angle_alpha    88.6738
_cell_angle_beta     91.3262
_cell_angle_gamma    22.1499

_symmetry_space_group_name_H-M    "P 1"
_symmetry_Int_Tables_number       1

loop_
  _symmetry_equiv_pos_as_xyz
  'x, y, z'

loop_
  _atom_site_type_symbol
  _atom_site_label
  _atom_site_symmetry_multiplicity
  _atom_site_fract_x
  _atom_site_fract_y
  _atom_site_fract_z
  _atom_site_occupancy
  _atom_site_charge
Cu  Cu1       1.0  0.82961  0.94381  0.21567  1.0000 0.7757210533
Cu  Cu2       1.0  0.05619  0.17039  0.71567  1.0000 0.7740658919
H   H1        1.0  0.18690  0.15250  0.47340  1.0000 0.1090179408
H   H2        1.0  0.84750  0.81310  0.97340  1.0000 0.1090179408
H   H3        1.0  0.12080  0.37260  0.37070  1.0000 0.1321079234
H   H4        1.0  0.62740  0.87920  0.87070  1.0000 0.1321079234
H   H5        1.0  0.64440  0.90120  0.63360  1.0000 0.1378891344
H   H6        1.0  0.09880  0.35560  0.13360  1.0000 0.1378891344
H   H7        1.0  0.72290  0.66667  0.72830  1.0000 0.1090179408
H   H8        1.0  0.33333  0.27710  0.22830  1.0000 0.1090179408
H   H9        1.0  0.51630  0.67730  0.90520  1.0000 0.1192589241
H   H10       1.0  0.32270  0.48370  0.40520  1.0000 0.1192589241
H   H11       1.0  0.65060  0.41380  0.03730  1.0000 0.1378891344
H   H12       1.0  0.58620  0.34940  0.53730  1.0000 0.1378891344
H   H13       1.0  0.94310  0.92130  0.90820  1.0000 0.1321079234
H   H14       1.0  0.07870  0.05690  0.40820  1.0000 0.1321079234
H   H15       1.0  0.83530  0.16090  0.77290  1.0000 0.1090179408
H   H16       1.0  0.83910  0.16470  0.27290  1.0000 0.1090179408
C   C1        1.0  0.07825  0.30405  0.50640  1.0000 0.0786106425
C   C2        1.0  0.69595  0.92175  0.00640  1.0000 0.0786106425
C   C3        1.0  0.03927  0.43487  0.44430  1.0000 -0.1576415499
C   C4        1.0  0.56513  0.96073  0.94430  1.0000 -0.1576415499
C   C5        1.0  0.87801  0.66021  0.49140  1.0000 0.0493482264
C   C6        1.0  0.33979  0.12199  0.99140  1.0000 0.0493482264
C   C7        1.0  0.75741  0.74761  0.59970  1.0000 -0.1576415499
C   C8        1.0  0.25239  0.24259  0.09970  1.0000 -0.1576415499
C   C9        1.0  0.80636  0.60556  0.65590  1.0000 0.0896429742
C   C10       1.0  0.39444  0.19364  0.15590  1.0000 0.0896429742
C   C11       1.0  0.82264  0.81704  0.42400  1.0000 0.5294543306
C   C12       1.0  0.18296  0.17736  0.92400  1.0000 0.5294543306
C   C13       1.0  0.39933  0.72693  0.90570  1.0000 0.0896429742
C   C14       1.0  0.27307  0.60067  0.40570  1.0000 0.0896429742
C   C15       1.0  0.48001  0.56941  0.98560  1.0000 -0.1525504266
C   C16       1.0  0.43059  0.51999  0.48560  1.0000 -0.1525504266
C   C17       1.0  0.30958  0.64018  0.98990  1.0000 0.0268252815
C   C18       1.0  0.35982  0.69042  0.48990  1.0000 0.0268252815
C   C19       1.0  0.06404  0.86684  0.90890  1.0000 -0.1576415499
C   C20       1.0  0.13316  0.93596  0.40890  1.0000 -0.1576415499
C   C21       1.0  0.99913  0.01173  0.82920  1.0000 0.0786106425
C   C22       1.0  0.98827  0.00087  0.32920  1.0000 0.0786106425
C   C23       1.0  0.38685  0.47745  0.07870  1.0000 0.55651776
C   C24       1.0  0.52255  0.61315  0.57870  1.0000 0.55651776
N   N1        1.0  0.96790  0.38350  0.61210  1.0000 -0.2111759906
N   N2        1.0  0.61650  0.03210  0.11210  1.0000 -0.2111759906
N   N3        1.0  0.15829  0.95029  0.82810  1.0000 -0.2300955181
N   N4        1.0  0.04971  0.84171  0.32810  1.0000 -0.2300955181
O   O1        1.0  0.94763  0.71443  0.32820  1.0000 -0.5394591292
O   O2        1.0  0.28557  0.05237  0.82820  1.0000 -0.5394591292
O   O3        1.0  0.66313  0.02673  0.46450  1.0000 -0.5394591292
O   O4        1.0  0.97327  0.33687  0.96450  1.0000 -0.5394591292
O   O5        1.0  0.64525  0.23125  0.11780  1.0000 -0.5496810576
O   O6        1.0  0.76875  0.35475  0.61780  1.0000 -0.5496810576
O   O7        1.0  0.20248  0.58788  0.10610  1.0000 -0.5645072659
O   O8        1.0  0.41212  0.79752  0.60610  1.0000 -0.5645072659
