# DDEC6 charges by PACMAN v1.1 (https://github.com/mtap-research/PACMAN-charge/)
data_2002[Cu][sur]3[ASR]1
_chemical_formula_sum              "Cu4 H28 C32 N8 O16"
_cell_length_a       10.154
_cell_length_b       10.154
_cell_length_c       15.5121
_cell_angle_alpha    72.0821
_cell_angle_beta     107.918
_cell_angle_gamma    93.4922

_symmetry_space_group_name_H-M    "P 1"
_symmetry_Int_Tables_number       1

loop_
  _symmetry_equiv_pos_as_xyz
  'x, y, z'

loop_
  _atom_site_type_symbol
  _atom_site_label
  _atom_site_symmetry_multiplicity
  _atom_site_fract_x
  _atom_site_fract_y
  _atom_site_fract_z
  _atom_site_occupancy
  _atom_site_charge
Cu  Cu1       1.0  0.00801  0.44601  0.68648  1.0000 0.6575355578
Cu  Cu2       1.0  0.44601  0.00801  0.81352  1.0000 0.6575355578
Cu  Cu3       1.0  0.99199  0.55399  0.31352  1.0000 0.6575355578
Cu  Cu4       1.0  0.55399  0.99199  0.18648  1.0000 0.6575355578
H   H1        1.0  0.15400  0.16200  0.97400  1.0000 0.1274520542
H   H2        1.0  0.16200  0.15400  0.52600  1.0000 0.1274520542
H   H3        1.0  0.84600  0.83800  0.02600  1.0000 0.1274520542
H   H4        1.0  0.83800  0.84600  0.47400  1.0000 0.1274520542
H   H5        1.0  0.20000  0.22400  0.68900  1.0000 0.1203660235
H   H6        1.0  0.22400  0.20000  0.81100  1.0000 0.1203660235
H   H7        1.0  0.80000  0.77600  0.31100  1.0000 0.1203660235
H   H8        1.0  0.77600  0.80000  0.18900  1.0000 0.1203660235
H   H9        1.0  0.25700  0.57100  0.62600  1.0000 0.1203660235
H   H10       1.0  0.57100  0.25700  0.87400  1.0000 0.1203660235
H   H11       1.0  0.74300  0.42900  0.37400  1.0000 0.1203660235
H   H12       1.0  0.42900  0.74300  0.12600  1.0000 0.1203660235
H   H13       1.0  0.23200  0.42800  0.59400  1.0000 0.1274520542
H   H14       1.0  0.42800  0.23200  0.90600  1.0000 0.1274520542
H   H15       1.0  0.76800  0.57200  0.40600  1.0000 0.1274520542
H   H16       1.0  0.57200  0.76800  0.09400  1.0000 0.1274520542
H   H17       1.0  0.27800  0.56200  0.78300  1.0000 0.1203660235
H   H18       1.0  0.56200  0.27800  0.71700  1.0000 0.1203660235
H   H19       1.0  0.72200  0.43800  0.21700  1.0000 0.1203660235
H   H20       1.0  0.43800  0.72200  0.28300  1.0000 0.1203660235
H   H21       1.0  0.24900  0.40300  0.84600  1.0000 0.1203660235
H   H22       1.0  0.40300  0.24900  0.65400  1.0000 0.1203660235
H   H23       1.0  0.75100  0.59700  0.15400  1.0000 0.1203660235
H   H24       1.0  0.59700  0.75100  0.34600  1.0000 0.1203660235
H   H25       1.0  0.48400  0.59800  0.72700  1.0000 0.1274520542
H   H26       1.0  0.59800  0.48400  0.77300  1.0000 0.1274520542
H   H27       1.0  0.51600  0.40200  0.27300  1.0000 0.1274520542
H   H28       1.0  0.40200  0.51600  0.22700  1.0000 0.1274520542
C   C1        1.0  0.96180  0.12040  0.92330  1.0000 -0.0390239096
C   C2        1.0  0.12040  0.96180  0.57670  1.0000 -0.0390239096
C   C3        1.0  0.03820  0.87960  0.07670  1.0000 -0.0390239096
C   C4        1.0  0.87960  0.03820  0.42330  1.0000 -0.0390239096
C   C5        1.0  0.86500  0.01920  0.93890  1.0000 -0.0263789857
C   C6        1.0  0.01920  0.86500  0.56110  1.0000 -0.0263789857
C   C7        1.0  0.13500  0.98080  0.06110  1.0000 -0.0263789857
C   C8        1.0  0.98080  0.13500  0.43890  1.0000 -0.0248816636
C   C9        1.0  0.09450  0.09810  0.98410  1.0000 -0.1128652793
C   C10       1.0  0.09810  0.09450  0.51590  1.0000 -0.1128652793
C   C11       1.0  0.90550  0.90190  0.01590  1.0000 -0.1128652793
C   C12       1.0  0.90190  0.90550  0.48410  1.0000 -0.1128652793
C   C13       1.0  0.92250  0.25290  0.84370  1.0000 0.5844026852
C   C14       1.0  0.25290  0.92250  0.65630  1.0000 0.5844026852
C   C15       1.0  0.07750  0.74710  0.15630  1.0000 0.5855124045
C   C16       1.0  0.74710  0.07750  0.34370  1.0000 0.5855124045
C   C17       1.0  0.72050  0.03170  0.87150  1.0000 0.5606515456
C   C18       1.0  0.03170  0.72050  0.62850  1.0000 0.5606515456
C   C19       1.0  0.27950  0.96830  0.12850  1.0000 0.5606515456
C   C20       1.0  0.96830  0.27950  0.37150  1.0000 0.5606515456
C   C21       1.0  0.25090  0.25090  0.75000  1.0000 -0.050198945
C   C22       1.0  0.74910  0.74910  0.25000  1.0000 -0.050198945
C   C23       1.0  0.27630  0.47150  0.64120  1.0000 -0.0263789857
C   C24       1.0  0.47150  0.27630  0.85880  1.0000 -0.0263789857
C   C25       1.0  0.72370  0.52850  0.35880  1.0000 -0.0263789857
C   C26       1.0  0.52850  0.72370  0.14120  1.0000 -0.0263789857
C   C27       1.0  0.29540  0.45300  0.80360  1.0000 -0.0263789857
C   C28       1.0  0.45300  0.29540  0.69640  1.0000 -0.0263789857
C   C29       1.0  0.70460  0.54700  0.19640  1.0000 -0.0263789857
C   C30       1.0  0.54700  0.70460  0.30360  1.0000 -0.0263789857
C   C31       1.0  0.49420  0.49420  0.75000  1.0000 -0.0133424744
C   C32       1.0  0.50580  0.50580  0.25000  1.0000 -0.0133424744
N   N1        1.0  0.21930  0.40290  0.72140  1.0000 -0.1780956265
N   N2        1.0  0.40290  0.21930  0.77860  1.0000 -0.1780956265
N   N3        1.0  0.78070  0.59710  0.27860  1.0000 -0.1780956265
N   N4        1.0  0.59710  0.78070  0.22140  1.0000 -0.1780956265
N   N5        1.0  0.42500  0.44300  0.66870  1.0000 -0.1313615989
N   N6        1.0  0.44300  0.42500  0.83130  1.0000 -0.1313615989
N   N7        1.0  0.57500  0.55700  0.33130  1.0000 -0.1313615989
N   N8        1.0  0.55700  0.57500  0.16870  1.0000 -0.1313615989
O   O1        1.0  0.01160  0.29620  0.80090  1.0000 -0.5375632148
O   O2        1.0  0.29620  0.01160  0.69910  1.0000 -0.5375632148
O   O3        1.0  0.98840  0.70380  0.19910  1.0000 -0.5375632148
O   O4        1.0  0.70380  0.98840  0.30090  1.0000 -0.5375632148
O   O5        1.0  0.81100  0.31360  0.82690  1.0000 -0.5161565494
O   O6        1.0  0.31360  0.81100  0.67310  1.0000 -0.5161565494
O   O7        1.0  0.18900  0.68640  0.17310  1.0000 -0.5129905891
O   O8        1.0  0.68640  0.18900  0.32690  1.0000 -0.5161565494
O   O9        1.0  0.62350  0.01370  0.91080  1.0000 -0.5486395013
O   O10       1.0  0.01370  0.62350  0.58920  1.0000 -0.5486395013
O   O11       1.0  0.37650  0.98630  0.08920  1.0000 -0.5486395013
O   O12       1.0  0.98630  0.37650  0.41080  1.0000 -0.5486395013
O   O13       1.0  0.70040  0.05380  0.78690  1.0000 -0.4935173791
O   O14       1.0  0.05380  0.70040  0.71310  1.0000 -0.4935173791
O   O15       1.0  0.29960  0.94620  0.21310  1.0000 -0.4935173791
O   O16       1.0  0.94620  0.29960  0.28690  1.0000 -0.4935173791
