# DDEC6 charges by PACMAN v1.1 (https://github.com/mtap-research/PACMAN-charge/)
data_2002[Zn][lvt]3[ASR]1
_chemical_formula_sum              "Zn4 H32 C48 N8 O16"
_cell_length_a       15.4887
_cell_length_b       15.4887
_cell_length_c       15.4887
_cell_angle_alpha    92.859
_cell_angle_beta     92.859
_cell_angle_gamma    154.19

_symmetry_space_group_name_H-M    "P 1"
_symmetry_Int_Tables_number       1

loop_
  _symmetry_equiv_pos_as_xyz
  'x, y, z'

loop_
  _atom_site_type_symbol
  _atom_site_label
  _atom_site_symmetry_multiplicity
  _atom_site_fract_x
  _atom_site_fract_y
  _atom_site_fract_z
  _atom_site_occupancy
  _atom_site_charge
Zn  Zn1       1.0  0.11423  0.37500  0.23923  1.0000 0.735710277
Zn  Zn2       1.0  0.13577  0.87500  0.76077  1.0000 0.735710277
Zn  Zn3       1.0  0.12500  0.88577  0.26077  1.0000 0.735710277
Zn  Zn4       1.0  0.62500  0.86423  0.73923  1.0000 0.735710277
H   H1        1.0  0.68870  0.53620  0.26250  1.0000 0.1081155174
H   H2        1.0  0.27370  0.42620  0.73750  1.0000 0.1081155174
H   H3        1.0  0.57380  0.31130  0.84750  1.0000 0.1081155174
H   H4        1.0  0.46380  0.72630  0.15250  1.0000 0.1081155174
H   H5        1.0  0.56130  0.32380  0.34750  1.0000 0.1081155174
H   H6        1.0  0.97630  0.21380  0.65250  1.0000 0.1081155174
H   H7        1.0  0.67620  0.02370  0.23750  1.0000 0.1081155174
H   H8        1.0  0.78620  0.43870  0.76250  1.0000 0.1081155174
H   H9        1.0  0.47600  0.46480  0.25260  1.0000 0.1328947831
H   H10       1.0  0.21220  0.22340  0.74740  1.0000 0.1328947831
H   H11       1.0  0.77660  0.52400  0.98880  1.0000 0.1328947831
H   H12       1.0  0.53520  0.78780  0.01120  1.0000 0.1328947831
H   H13       1.0  0.77400  0.52660  0.48880  1.0000 0.1328947831
H   H14       1.0  0.03780  0.28520  0.51120  1.0000 0.1328947831
H   H15       1.0  0.47340  0.96220  0.24740  1.0000 0.1328947831
H   H16       1.0  0.71480  0.22600  0.75260  1.0000 0.1328947831
H   H17       1.0  0.61100  0.72350  0.24790  1.0000 0.1328947831
H   H18       1.0  0.47560  0.36310  0.75210  1.0000 0.1328947831
H   H19       1.0  0.63690  0.38900  0.11250  1.0000 0.1328947831
H   H20       1.0  0.27650  0.52440  0.88750  1.0000 0.1328947831
H   H21       1.0  0.63900  0.38690  0.61250  1.0000 0.1328947831
H   H22       1.0  0.77440  0.02650  0.38750  1.0000 0.1328947831
H   H23       1.0  0.61310  0.22560  0.25210  1.0000 0.1328947831
H   H24       1.0  0.97350  0.36100  0.74790  1.0000 0.1328947831
H   H25       1.0  0.15730  0.10640  0.25450  1.0000 0.1081155174
H   H26       1.0  0.85190  0.90280  0.74550  1.0000 0.1081155174
H   H27       1.0  0.09720  0.84270  0.94910  1.0000 0.1081155174
H   H28       1.0  0.89360  0.14810  0.05090  1.0000 0.1081155174
H   H29       1.0  0.09270  0.84720  0.44910  1.0000 0.1081155174
H   H30       1.0  0.39810  0.64360  0.55090  1.0000 0.1081155174
H   H31       1.0  0.15280  0.60190  0.24550  1.0000 0.1081155174
H   H32       1.0  0.35640  0.90730  0.75450  1.0000 0.1081155174
C   C1        1.0  0.74400  0.64150  0.25830  1.0000 0.0877385511
C   C2        1.0  0.38320  0.48570  0.74170  1.0000 0.0877385511
C   C3        1.0  0.51430  0.25600  0.89750  1.0000 0.0877385511
C   C4        1.0  0.35850  0.61680  0.10250  1.0000 0.0877385511
C   C5        1.0  0.50600  0.26430  0.39750  1.0000 0.0877385511
C   C6        1.0  0.86680  0.10850  0.60250  1.0000 0.0877385511
C   C7        1.0  0.73570  0.13320  0.24170  1.0000 0.0877385511
C   C8        1.0  0.89150  0.49400  0.75830  1.0000 0.0877385511
C   C9        1.0  0.61620  0.59830  0.25330  1.0000 -0.1258143607
C   C10       1.0  0.34500  0.36290  0.74670  1.0000 -0.1258143607
C   C11       1.0  0.63710  0.38380  0.98210  1.0000 -0.1258143607
C   C12       1.0  0.40170  0.65500  0.01790  1.0000 -0.1258143607
C   C13       1.0  0.63380  0.38710  0.48210  1.0000 -0.1258143607
C   C14       1.0  0.90500  0.15170  0.51790  1.0000 -0.1258143607
C   C15       1.0  0.61290  0.09500  0.24670  1.0000 -0.1258143607
C   C16       1.0  0.84830  0.36620  0.75330  1.0000 -0.1258143607
C   C17       1.0  0.69510  0.74990  0.24960  1.0000 -0.039528975
C   C18       1.0  0.50030  0.44550  0.75040  1.0000 -0.039528975
C   C19       1.0  0.55450  0.30490  0.05480  1.0000 -0.039528975
C   C20       1.0  0.25010  0.49970  0.94520  1.0000 -0.039528975
C   C21       1.0  0.55490  0.30450  0.55480  1.0000 -0.039528975
C   C22       1.0  0.74970  0.00010  0.44520  1.0000 -0.039528975
C   C23       1.0  0.69550  0.25030  0.25040  1.0000 -0.039528975
C   C24       1.0  0.99990  0.44510  0.74960  1.0000 -0.039528975
C   C25       1.0  0.90030  0.94400  0.24830  1.0000 -0.0705941032
C   C26       1.0  0.69570  0.65200  0.75170  1.0000 -0.0705941032
C   C27       1.0  0.34800  0.09970  0.04370  1.0000 -0.0705941032
C   C28       1.0  0.05600  0.30430  0.95630  1.0000 -0.0705941032
C   C29       1.0  0.34970  0.09800  0.54370  1.0000 -0.0705941032
C   C30       1.0  0.55430  0.80600  0.45630  1.0000 -0.0705941032
C   C31       1.0  0.90200  0.44570  0.25170  1.0000 -0.0705941032
C   C32       1.0  0.19400  0.65030  0.74830  1.0000 -0.0705941032
C   C33       1.0  0.01650  0.97400  0.25350  1.0000 0.0506689719
C   C34       1.0  0.72050  0.76300  0.74650  1.0000 0.0506689719
C   C35       1.0  0.23700  0.98350  0.95750  1.0000 0.0506689719
C   C36       1.0  0.02600  0.27950  0.04250  1.0000 0.0506689719
C   C37       1.0  0.23350  0.98700  0.45750  1.0000 0.0506689719
C   C38       1.0  0.52950  0.77600  0.54250  1.0000 0.0506689719
C   C39       1.0  0.01300  0.47050  0.24650  1.0000 0.0506689719
C   C40       1.0  0.22400  0.76650  0.75350  1.0000 0.0506689719
C   C41       1.0  0.99460  0.11370  0.24190  1.0000 0.5556755204
C   C42       1.0  0.87180  0.75270  0.75810  1.0000 0.5556755204
C   C43       1.0  0.24730  0.00540  0.11910  1.0000 0.5556755204
C   C44       1.0  0.88630  0.12820  0.88090  1.0000 0.5556755204
C   C45       1.0  0.25540  0.99730  0.61910  1.0000 0.5556755204
C   C46       1.0  0.37820  0.63630  0.38090  1.0000 0.5556755204
C   C47       1.0  0.00270  0.62180  0.25810  1.0000 0.5556755204
C   C48       1.0  0.36370  0.74460  0.74190  1.0000 0.5556755204
N   N1        1.0  0.94060  0.82590  0.25730  1.0000 -0.2315205384
N   N2        1.0  0.56860  0.68330  0.74270  1.0000 -0.2315205384
N   N3        1.0  0.31670  0.05940  0.88530  1.0000 -0.2315205384
N   N4        1.0  0.17410  0.43140  0.11470  1.0000 -0.2315205384
N   N5        1.0  0.30940  0.06670  0.38530  1.0000 -0.2315205384
N   N6        1.0  0.68140  0.92410  0.61470  1.0000 -0.2315205384
N   N7        1.0  0.93330  0.31860  0.24270  1.0000 -0.2315205384
N   N8        1.0  0.07590  0.69060  0.75730  1.0000 -0.2315205384
O   O1        1.0  0.88150  0.07709  0.22839  1.0000 -0.5382504027
O   O2        1.0  0.84870  0.65311  0.77161  1.0000 -0.5382504027
O   O3        1.0  0.34689  0.11850  0.19559  1.0000 -0.5382504027
O   O4        1.0  0.92291  0.15130  0.80441  1.0000 -0.5382504027
O   O5        1.0  0.36850  0.09689  0.69559  1.0000 -0.5382504027
O   O6        1.0  0.40130  0.67291  0.30441  1.0000 -0.5382504027
O   O7        1.0  0.90311  0.59870  0.27161  1.0000 -0.5382504027
O   O8        1.0  0.32709  0.63150  0.72839  1.0000 -0.5382504027
O   O9        1.0  0.18346  0.28947  0.24913  1.0000 -0.5382504027
O   O10       1.0  0.04034  0.93433  0.75087  1.0000 -0.5382504027
O   O11       1.0  0.06567  0.81654  0.10601  1.0000 -0.5382504027
O   O12       1.0  0.71053  0.95966  0.89399  1.0000 -0.5382504027
O   O13       1.0  0.06654  0.81567  0.60601  1.0000 -0.5382504027
O   O14       1.0  0.20966  0.46053  0.39399  1.0000 -0.5382504027
O   O15       1.0  0.18433  0.79034  0.25087  1.0000 -0.5382504027
O   O16       1.0  0.53947  0.93346  0.74913  1.0000 -0.5382504027
