# DDEC6 charges by PACMAN v1.1 (https://github.com/mtap-research/PACMAN-charge/)
data_2002[Zn][jxj]3[ASR]1
_chemical_formula_sum              "Zn8 P8 H32 C24 O40"
_cell_length_a       9.885
_cell_length_b       10.02
_cell_length_c       16.438
_cell_angle_alpha    90
_cell_angle_beta     90
_cell_angle_gamma    90

_symmetry_space_group_name_H-M    "P 1"
_symmetry_Int_Tables_number       1

loop_
  _symmetry_equiv_pos_as_xyz
  'x, y, z'

loop_
  _atom_site_type_symbol
  _atom_site_label
  _atom_site_symmetry_multiplicity
  _atom_site_fract_x
  _atom_site_fract_y
  _atom_site_fract_z
  _atom_site_occupancy
  _atom_site_charge
Zn  Zn1       1.0  0.14380  0.59660  0.29665  1.0000 1.0795268311
Zn  Zn2       1.0  0.35620  0.90340  0.29665  1.0000 1.0795268311
Zn  Zn3       1.0  0.85620  0.09660  0.20335  1.0000 1.0795268311
Zn  Zn4       1.0  0.64380  0.40340  0.20335  1.0000 1.0795268311
Zn  Zn5       1.0  0.85620  0.40340  0.70335  1.0000 1.0795268311
Zn  Zn6       1.0  0.64380  0.09660  0.70335  1.0000 1.0795268311
Zn  Zn7       1.0  0.14380  0.90340  0.79665  1.0000 1.0795268311
Zn  Zn8       1.0  0.35620  0.59660  0.79665  1.0000 1.0795268311
P   P1        1.0  0.42710  0.63730  0.21280  1.0000 1.3519561782
P   P2        1.0  0.07290  0.86270  0.21280  1.0000 1.3519561782
P   P3        1.0  0.57290  0.13730  0.28720  1.0000 1.3519561782
P   P4        1.0  0.92710  0.36270  0.28720  1.0000 1.3519561782
P   P5        1.0  0.57290  0.36270  0.78720  1.0000 1.3519561782
P   P6        1.0  0.92710  0.13730  0.78720  1.0000 1.3519561782
P   P7        1.0  0.42710  0.86270  0.71280  1.0000 1.3519561782
P   P8        1.0  0.07290  0.63730  0.71280  1.0000 1.3519561782
H   H1        1.0  0.74498  0.39509  0.38082  1.0000 0.1400914103
H   H2        1.0  0.87873  0.52290  0.39214  1.0000 0.1400914103
H   H3        1.0  0.03061  0.35367  0.45449  1.0000 0.1335951975
H   H4        1.0  0.89178  0.23000  0.45038  1.0000 0.1335951975
H   H5        1.0  0.75502  0.10491  0.38082  1.0000 0.1400914103
H   H6        1.0  0.62127  0.97710  0.39214  1.0000 0.1400914103
H   H7        1.0  0.46939  0.14633  0.45449  1.0000 0.1335951975
H   H8        1.0  0.60822  0.27000  0.45038  1.0000 0.1335951975
H   H9        1.0  0.25502  0.89509  0.11918  1.0000 0.1400914103
H   H10       1.0  0.12127  0.02290  0.10786  1.0000 0.1400914103
H   H11       1.0  0.96939  0.85367  0.04551  1.0000 0.1400914103
H   H12       1.0  0.10822  0.73000  0.04962  1.0000 0.1335951975
H   H13       1.0  0.24498  0.60491  0.11918  1.0000 0.1400914103
H   H14       1.0  0.37873  0.47710  0.10786  1.0000 0.1400914103
H   H15       1.0  0.53061  0.64633  0.04551  1.0000 0.1400914103
H   H16       1.0  0.39178  0.77000  0.04962  1.0000 0.1335951975
H   H17       1.0  0.25502  0.60491  0.61918  1.0000 0.1400914103
H   H18       1.0  0.12127  0.47710  0.60786  1.0000 0.1400914103
H   H19       1.0  0.96939  0.64633  0.54551  1.0000 0.1335951975
H   H20       1.0  0.10822  0.77000  0.54962  1.0000 0.1335951975
H   H21       1.0  0.24498  0.89509  0.61918  1.0000 0.1400914103
H   H22       1.0  0.37873  0.02290  0.60786  1.0000 0.1400914103
H   H23       1.0  0.53061  0.85367  0.54551  1.0000 0.1335951975
H   H24       1.0  0.39178  0.73000  0.54962  1.0000 0.1335951975
H   H25       1.0  0.74498  0.10491  0.88082  1.0000 0.1400914103
H   H26       1.0  0.87873  0.97710  0.89214  1.0000 0.1400914103
H   H27       1.0  0.03061  0.14633  0.95449  1.0000 0.1335951975
H   H28       1.0  0.89178  0.27000  0.95038  1.0000 0.1335951975
H   H29       1.0  0.75502  0.39509  0.88082  1.0000 0.1400914103
H   H30       1.0  0.62127  0.52290  0.89214  1.0000 0.1400914103
H   H31       1.0  0.46939  0.35367  0.95449  1.0000 0.1335951975
H   H32       1.0  0.60822  0.23000  0.95038  1.0000 0.1335951975
C   C1        1.0  0.35900  0.58800  0.11780  1.0000 -0.4000531912
C   C2        1.0  0.41600  0.65900  0.04520  1.0000 -0.1729361893
C   C3        1.0  0.13900  0.61100  0.46160  1.0000 0.5957852646
C   C4        1.0  0.14100  0.91200  0.11780  1.0000 -0.4000531912
C   C5        1.0  0.08400  0.84100  0.04520  1.0000 -0.1729361893
C   C6        1.0  0.36100  0.88900  0.46160  1.0000 0.5957852646
C   C7        1.0  0.64100  0.08800  0.38220  1.0000 -0.4000531912
C   C8        1.0  0.58400  0.15900  0.45480  1.0000 -0.1729361893
C   C9        1.0  0.86100  0.11100  0.03840  1.0000 0.5957852646
C   C10       1.0  0.85900  0.41200  0.38220  1.0000 -0.4000531912
C   C11       1.0  0.91600  0.34100  0.45480  1.0000 -0.1729361893
C   C12       1.0  0.63900  0.38900  0.03840  1.0000 0.5957852646
C   C13       1.0  0.64100  0.41200  0.88220  1.0000 -0.4000531912
C   C14       1.0  0.58400  0.34100  0.95480  1.0000 -0.1729361893
C   C15       1.0  0.86100  0.38900  0.53840  1.0000 0.5957852646
C   C16       1.0  0.85900  0.08800  0.88220  1.0000 -0.4000531912
C   C17       1.0  0.91600  0.15900  0.95480  1.0000 -0.1729361893
C   C18       1.0  0.63900  0.11100  0.53840  1.0000 0.5957852646
C   C19       1.0  0.35900  0.91200  0.61780  1.0000 -0.4000531912
C   C20       1.0  0.41600  0.84100  0.54520  1.0000 -0.1729361893
C   C21       1.0  0.13900  0.88900  0.96160  1.0000 0.5957852646
C   C22       1.0  0.14100  0.58800  0.61780  1.0000 -0.4000531912
C   C23       1.0  0.08400  0.65900  0.54520  1.0000 -0.1729361893
C   C24       1.0  0.36100  0.61100  0.96160  1.0000 0.5957852646
O   O1        1.0  0.33800  0.58140  0.27980  1.0000 -0.7174430594
O   O2        1.0  0.07110  0.41740  0.28090  1.0000 -0.6644047455
O   O3        1.0  0.06640  0.71070  0.21240  1.0000 -0.7121628479
O   O4        1.0  0.08400  0.66600  0.40130  1.0000 -0.4889981256
O   O5        1.0  0.22700  0.52600  0.45860  1.0000 -0.4202673838
O   O6        1.0  0.16200  0.91860  0.27980  1.0000 -0.7174430594
O   O7        1.0  0.42890  0.08260  0.28090  1.0000 -0.6644047455
O   O8        1.0  0.43360  0.78930  0.21240  1.0000 -0.7121628479
O   O9        1.0  0.41600  0.83400  0.40130  1.0000 -0.4889981256
O   O10       1.0  0.27300  0.97400  0.45860  1.0000 -0.4202673838
O   O11       1.0  0.66200  0.08140  0.22020  1.0000 -0.7174430594
O   O12       1.0  0.92890  0.91740  0.21910  1.0000 -0.6644047455
O   O13       1.0  0.93360  0.21070  0.28760  1.0000 -0.7121628479
O   O14       1.0  0.91600  0.16600  0.09870  1.0000 -0.4889981256
O   O15       1.0  0.77300  0.02600  0.04140  1.0000 -0.4202673838
O   O16       1.0  0.83800  0.41860  0.22020  1.0000 -0.7174430594
O   O17       1.0  0.57110  0.58260  0.21910  1.0000 -0.6644047455
O   O18       1.0  0.56640  0.28930  0.28760  1.0000 -0.7121628479
O   O19       1.0  0.58400  0.33400  0.09870  1.0000 -0.4889981256
O   O20       1.0  0.72700  0.47400  0.04140  1.0000 -0.4202673838
O   O21       1.0  0.66200  0.41860  0.72020  1.0000 -0.7174430594
O   O22       1.0  0.92890  0.58260  0.71910  1.0000 -0.6644047455
O   O23       1.0  0.93360  0.28930  0.78760  1.0000 -0.7121628479
O   O24       1.0  0.91600  0.33400  0.59870  1.0000 -0.4889981256
O   O25       1.0  0.77300  0.47400  0.54140  1.0000 -0.4202673838
O   O26       1.0  0.83800  0.08140  0.72020  1.0000 -0.7174430594
O   O27       1.0  0.57110  0.91740  0.71910  1.0000 -0.6644047455
O   O28       1.0  0.56640  0.21070  0.78760  1.0000 -0.7121628479
O   O29       1.0  0.58400  0.16600  0.59870  1.0000 -0.4889981256
O   O30       1.0  0.72700  0.02600  0.54140  1.0000 -0.4202673838
O   O31       1.0  0.33800  0.91860  0.77980  1.0000 -0.7174430594
O   O32       1.0  0.07110  0.08260  0.78090  1.0000 -0.6644047455
O   O33       1.0  0.06640  0.78930  0.71240  1.0000 -0.7121628479
O   O34       1.0  0.08400  0.83400  0.90130  1.0000 -0.4889981256
O   O35       1.0  0.22700  0.97400  0.95860  1.0000 -0.4202673838
O   O36       1.0  0.16200  0.58140  0.77980  1.0000 -0.7174430594
O   O37       1.0  0.42890  0.41740  0.78090  1.0000 -0.6644047455
O   O38       1.0  0.43360  0.71070  0.71240  1.0000 -0.7121628479
O   O39       1.0  0.41600  0.66600  0.90130  1.0000 -0.4889981256
O   O40       1.0  0.27300  0.52600  0.95860  1.0000 -0.4202673838
