# DDEC6 charges by PACMAN v1.1 (https://github.com/mtap-research/PACMAN-charge/)
data_2003[Ni][tfz]3[ASR]1
_chemical_formula_sum              "Ni9 H90 C144 N18 O36"
_cell_length_a       33.5211
_cell_length_b       33.5211
_cell_length_c       11.3015
_cell_angle_alpha    90
_cell_angle_beta     90
_cell_angle_gamma    120

_symmetry_space_group_name_H-M    "P 1"
_symmetry_Int_Tables_number       1

loop_
  _symmetry_equiv_pos_as_xyz
  'x, y, z'

loop_
  _atom_site_type_symbol
  _atom_site_label
  _atom_site_symmetry_multiplicity
  _atom_site_fract_x
  _atom_site_fract_y
  _atom_site_fract_z
  _atom_site_occupancy
  _atom_site_charge
Ni  Ni1       1.0  0.83454  0.66984  0.00668  1.0000 0.6846672419
Ni  Ni2       1.0  0.33016  0.16470  0.00668  1.0000 0.6846672419
Ni  Ni3       1.0  0.83530  0.16546  0.00668  1.0000 0.6846672419
Ni  Ni4       1.0  0.99847  0.49920  0.90870  1.0000 0.637457393
Ni  Ni5       1.0  0.50080  0.49927  0.90870  1.0000 0.6336700244
Ni  Ni6       1.0  0.50073  0.00153  0.90870  1.0000 0.637457393
Ni  Ni7       1.0  0.16566  0.83496  0.84811  1.0000 0.6616327687
Ni  Ni8       1.0  0.16504  0.33070  0.84811  1.0000 0.6616327687
Ni  Ni9       1.0  0.66930  0.83434  0.84811  1.0000 0.6616327687
H   H1        1.0  0.02500  0.74720  0.91690  1.0000 0.121905836
H   H2        1.0  0.25280  0.27780  0.91690  1.0000 0.121905836
H   H3        1.0  0.72220  0.97500  0.91690  1.0000 0.121905836
H   H4        1.0  0.05190  0.64260  0.87970  1.0000 0.1289779971
H   H5        1.0  0.35740  0.40930  0.87970  1.0000 0.1289779971
H   H6        1.0  0.59070  0.94810  0.87970  1.0000 0.1289779971
H   H7        1.0  0.92380  0.61540  0.97150  1.0000 0.1289779971
H   H8        1.0  0.38460  0.30840  0.97150  1.0000 0.1289779971
H   H9        1.0  0.69160  0.07620  0.97150  1.0000 0.1289779971
H   H10       1.0  0.69090  0.61460  0.96700  1.0000 0.121905836
H   H11       1.0  0.38540  0.07630  0.96700  1.0000 0.121905836
H   H12       1.0  0.92370  0.30910  0.96700  1.0000 0.121905836
H   H13       1.0  0.59000  0.64250  0.88120  1.0000 0.121905836
H   H14       1.0  0.35750  0.94750  0.88120  1.0000 0.121905836
H   H15       1.0  0.05250  0.41000  0.88120  1.0000 0.121905836
H   H16       1.0  0.72140  0.74680  0.92080  1.0000 0.121905836
H   H17       1.0  0.25320  0.97460  0.92080  1.0000 0.121905836
H   H18       1.0  0.02540  0.27860  0.92080  1.0000 0.121905836
H   H19       1.0  0.76550  0.62350  0.79210  1.0000 0.121905836
H   H20       1.0  0.37650  0.14200  0.79210  1.0000 0.121905836
H   H21       1.0  0.85800  0.23450  0.79210  1.0000 0.121905836
H   H22       1.0  0.77020  0.62600  0.59200  1.0000 0.1289779971
H   H23       1.0  0.37400  0.14420  0.59200  1.0000 0.1289779971
H   H24       1.0  0.85580  0.22980  0.59200  1.0000 0.1289779971
H   H25       1.0  0.90550  0.72130  0.60520  1.0000 0.13841493
H   H26       1.0  0.27870  0.18420  0.60520  1.0000 0.13841493
H   H27       1.0  0.81580  0.09450  0.60520  1.0000 0.13841493
H   H28       1.0  0.89730  0.71520  0.80100  1.0000 0.121905836
H   H29       1.0  0.28480  0.18210  0.80100  1.0000 0.121905836
H   H30       1.0  0.81790  0.10270  0.80100  1.0000 0.121905836
H   H31       1.0  0.78940  0.69110  0.21290  1.0000 0.1289779971
H   H32       1.0  0.30890  0.09830  0.21290  1.0000 0.1289779971
H   H33       1.0  0.90170  0.21060  0.21290  1.0000 0.1289779971
H   H34       1.0  0.78330  0.68750  0.41550  1.0000 0.1289779971
H   H35       1.0  0.31250  0.09580  0.41550  1.0000 0.1289779971
H   H36       1.0  0.90420  0.21670  0.41550  1.0000 0.1289779971
H   H37       1.0  0.87930  0.64940  0.42300  1.0000 0.1289779971
H   H38       1.0  0.35060  0.22990  0.42300  1.0000 0.1289779971
H   H39       1.0  0.77010  0.12070  0.42300  1.0000 0.1289779971
H   H40       1.0  0.88550  0.65300  0.22160  1.0000 0.1289779971
H   H41       1.0  0.34700  0.23250  0.22160  1.0000 0.1289779971
H   H42       1.0  0.76750  0.11450  0.22160  1.0000 0.1289779971
H   H43       1.0  0.95530  0.52920  0.70270  1.0000 0.1289779971
H   H44       1.0  0.47080  0.42610  0.70270  1.0000 0.1289779971
H   H45       1.0  0.57390  0.04470  0.70270  1.0000 0.1289779971
H   H46       1.0  0.96030  0.52610  0.50370  1.0000 0.13841493
H   H47       1.0  0.47390  0.43420  0.50370  1.0000 0.13841493
H   H48       1.0  0.56580  0.03970  0.50370  1.0000 0.13841493
H   H49       1.0  0.03500  0.46740  0.48700  1.0000 0.13841493
H   H50       1.0  0.53260  0.56760  0.48700  1.0000 0.13841493
H   H51       1.0  0.43240  0.96500  0.48700  1.0000 0.13841493
H   H52       1.0  0.03520  0.46750  0.69030  1.0000 0.1289779971
H   H53       1.0  0.53250  0.56770  0.69030  1.0000 0.1289779971
H   H54       1.0  0.43230  0.96480  0.69030  1.0000 0.1289779971
H   H55       1.0  0.96090  0.42820  0.11490  1.0000 0.121905836
H   H56       1.0  0.57180  0.53270  0.11490  1.0000 0.121905836
H   H57       1.0  0.46730  0.03910  0.11490  1.0000 0.121905836
H   H58       1.0  0.96150  0.43050  0.32030  1.0000 0.1289779971
H   H59       1.0  0.56950  0.53100  0.32030  1.0000 0.1289779971
H   H60       1.0  0.46900  0.03850  0.32030  1.0000 0.1289779971
H   H61       1.0  0.03270  0.56750  0.32140  1.0000 0.1289779971
H   H62       1.0  0.43250  0.46520  0.32140  1.0000 0.1289779971
H   H63       1.0  0.53480  0.96730  0.32140  1.0000 0.1289779971
H   H64       1.0  0.03600  0.56930  0.11630  1.0000 0.121905836
H   H65       1.0  0.43070  0.46670  0.11630  1.0000 0.121905836
H   H66       1.0  0.53330  0.96400  0.11630  1.0000 0.121905836
H   H67       1.0  0.11480  0.76690  0.63540  1.0000 0.121905836
H   H68       1.0  0.23310  0.34790  0.63540  1.0000 0.121905836
H   H69       1.0  0.65210  0.88520  0.63540  1.0000 0.121905836
H   H70       1.0  0.11780  0.76720  0.43300  1.0000 0.1289779971
H   H71       1.0  0.23280  0.35060  0.43300  1.0000 0.1289779971
H   H72       1.0  0.64940  0.88220  0.43300  1.0000 0.1289779971
H   H73       1.0  0.21510  0.90120  0.44310  1.0000 0.1289779971
H   H74       1.0  0.09880  0.31390  0.44310  1.0000 0.1289779971
H   H75       1.0  0.68610  0.78490  0.44310  1.0000 0.1289779971
H   H76       1.0  0.21110  0.90100  0.64440  1.0000 0.121905836
H   H77       1.0  0.09900  0.31010  0.64440  1.0000 0.121905836
H   H78       1.0  0.68990  0.78890  0.64440  1.0000 0.121905836
H   H79       1.0  0.10220  0.81080  0.05320  1.0000 0.121905836
H   H80       1.0  0.18920  0.29140  0.05320  1.0000 0.121905836
H   H81       1.0  0.70860  0.89780  0.05320  1.0000 0.121905836
H   H82       1.0  0.10100  0.81280  0.25250  1.0000 0.1289779971
H   H83       1.0  0.18720  0.28820  0.25250  1.0000 0.1289779971
H   H84       1.0  0.71180  0.89900  0.25250  1.0000 0.1289779971
H   H85       1.0  0.23670  0.85630  0.26300  1.0000 0.1289779971
H   H86       1.0  0.14370  0.38040  0.26300  1.0000 0.1289779971
H   H87       1.0  0.61960  0.76330  0.26300  1.0000 0.1289779971
H   H88       1.0  0.23330  0.85260  0.06970  1.0000 0.121905836
H   H89       1.0  0.14740  0.38070  0.06970  1.0000 0.121905836
H   H90       1.0  0.61930  0.76670  0.06970  1.0000 0.121905836
C   C1        1.0  0.96954  0.68369  0.94830  1.0000 -0.0113632337
C   C2        1.0  0.31631  0.28585  0.94830  1.0000 -0.0113632337
C   C3        1.0  0.71415  0.03046  0.94830  1.0000 -0.0113632337
C   C4        1.0  0.01495  0.71519  0.91930  1.0000 -0.1273241268
C   C5        1.0  0.28481  0.29976  0.91930  1.0000 -0.1273241268
C   C6        1.0  0.70024  0.98505  0.91930  1.0000 -0.1273241268
C   C7        1.0  0.04564  0.69989  0.89380  1.0000 -0.0408117574
C   C8        1.0  0.30011  0.34575  0.89380  1.0000 -0.0408117574
C   C9        1.0  0.65425  0.95436  0.89380  1.0000 -0.0408117574
C   C10       1.0  0.03092  0.65309  0.89720  1.0000 -0.1084069164
C   C11       1.0  0.34691  0.37783  0.89720  1.0000 -0.1084069164
C   C12       1.0  0.62217  0.96908  0.89720  1.0000 -0.1084069164
C   C13       1.0  0.98551  0.62159  0.92620  1.0000 -0.0113632337
C   C14       1.0  0.37841  0.36392  0.92620  1.0000 -0.0113632337
C   C15       1.0  0.63608  0.01449  0.92620  1.0000 -0.0113632337
C   C16       1.0  0.95482  0.63689  0.95170  1.0000 -0.1240455559
C   C17       1.0  0.36311  0.31793  0.95170  1.0000 -0.1240455559
C   C18       1.0  0.68207  0.04518  0.95170  1.0000 -0.1240455559
C   C19       1.0  0.93240  0.69580  0.97730  1.0000 0.5171909952
C   C20       1.0  0.30420  0.23660  0.97730  1.0000 0.5171909952
C   C21       1.0  0.76340  0.06760  0.97730  1.0000 0.5171909952
C   C22       1.0  0.09230  0.73660  0.86620  1.0000 0.5100732568
C   C23       1.0  0.26340  0.35570  0.86620  1.0000 0.5100732568
C   C24       1.0  0.64430  0.90770  0.86620  1.0000 0.5100732568
C   C25       1.0  0.97050  0.57070  0.92760  1.0000 0.5255723718
C   C26       1.0  0.42930  0.39980  0.92760  1.0000 0.5255723718
C   C27       1.0  0.60020  0.02950  0.92760  1.0000 0.5255723718
C   C28       1.0  0.71346  0.68310  0.94790  1.0000 -0.0113632337
C   C29       1.0  0.31690  0.03036  0.94790  1.0000 -0.0113632337
C   C30       1.0  0.96964  0.28654  0.94790  1.0000 -0.0113632337
C   C31       1.0  0.68141  0.63628  0.94920  1.0000 -0.1084069164
C   C32       1.0  0.36372  0.04513  0.94920  1.0000 -0.1084069164
C   C33       1.0  0.95487  0.31859  0.94920  1.0000 -0.1084069164
C   C34       1.0  0.63540  0.62115  0.92440  1.0000 -0.0113632337
C   C35       1.0  0.37885  0.01425  0.92440  1.0000 -0.0113632337
C   C36       1.0  0.98575  0.36460  0.92440  1.0000 -0.0113632337
C   C37       1.0  0.62145  0.65285  0.89820  1.0000 -0.0975543262
C   C38       1.0  0.34715  0.96860  0.89820  1.0000 -0.0975543262
C   C39       1.0  0.03140  0.37855  0.89820  1.0000 -0.0975543262
C   C40       1.0  0.65351  0.69968  0.89690  1.0000 -0.0902958179
C   C41       1.0  0.30032  0.95383  0.89690  1.0000 -0.0902958179
C   C42       1.0  0.04617  0.34649  0.89690  1.0000 -0.0902958179
C   C43       1.0  0.69951  0.71480  0.92170  1.0000 -0.0902958179
C   C44       1.0  0.28520  0.98471  0.92170  1.0000 -0.0902958179
C   C45       1.0  0.01529  0.30049  0.92170  1.0000 -0.0902958179
C   C46       1.0  0.76380  0.69750  0.97510  1.0000 0.5477764531
C   C47       1.0  0.30250  0.06630  0.97510  1.0000 0.5477764531
C   C48       1.0  0.93370  0.23620  0.97510  1.0000 0.5477764531
C   C49       1.0  0.59810  0.57010  0.92310  1.0000 0.5171909952
C   C50       1.0  0.42990  0.02800  0.92310  1.0000 0.5171909952
C   C51       1.0  0.97200  0.40190  0.92310  1.0000 0.5171909952
C   C52       1.0  0.64170  0.73330  0.87160  1.0000 0.498082511
C   C53       1.0  0.26670  0.90840  0.87160  1.0000 0.498082511
C   C54       1.0  0.09160  0.35830  0.87160  1.0000 0.498082511
C   C55       1.0  0.79440  0.64380  0.75690  1.0000 0.0443666601
C   C56       1.0  0.35620  0.15060  0.75690  1.0000 0.0443666601
C   C57       1.0  0.84940  0.20560  0.75690  1.0000 0.0443666601
C   C58       1.0  0.79730  0.64540  0.63570  1.0000 -0.1800225304
C   C59       1.0  0.35460  0.15190  0.63570  1.0000 -0.1800225304
C   C60       1.0  0.84810  0.20270  0.63570  1.0000 -0.1800225304
C   C61       1.0  0.83786  0.67392  0.57180  1.0000 0.0790891318
C   C62       1.0  0.32608  0.16394  0.57180  1.0000 0.0790891318
C   C63       1.0  0.83606  0.16214  0.57180  1.0000 0.0858158691
C   C64       1.0  0.87640  0.70090  0.63940  1.0000 -0.1976854058
C   C65       1.0  0.29910  0.17550  0.63940  1.0000 -0.1976854058
C   C66       1.0  0.82450  0.12360  0.63940  1.0000 -0.1976854058
C   C67       1.0  0.86980  0.69630  0.75790  1.0000 0.0443666601
C   C68       1.0  0.30370  0.17350  0.75790  1.0000 0.0443666601
C   C69       1.0  0.82650  0.13020  0.75790  1.0000 0.0443666601
C   C70       1.0  0.80820  0.68256  0.25660  1.0000 0.063063794
C   C71       1.0  0.31744  0.12564  0.25660  1.0000 0.063063794
C   C72       1.0  0.87436  0.19180  0.25660  1.0000 0.063063794
C   C73       1.0  0.80430  0.68060  0.37690  1.0000 -0.1800225304
C   C74       1.0  0.31940  0.12370  0.37690  1.0000 -0.1800225304
C   C75       1.0  0.87630  0.19570  0.37690  1.0000 -0.1800225304
C   C76       1.0  0.83130  0.66870  0.44060  1.0000 0.1000779009
C   C77       1.0  0.33130  0.16260  0.44060  1.0000 0.1000779009
C   C78       1.0  0.83740  0.16870  0.44060  1.0000 0.1000779009
C   C79       1.0  0.86080  0.65830  0.37910  1.0000 -0.1800225304
C   C80       1.0  0.34170  0.20250  0.37910  1.0000 -0.1800225304
C   C81       1.0  0.79750  0.13920  0.37910  1.0000 -0.1800225304
C   C82       1.0  0.86460  0.66020  0.25970  1.0000 0.0790891318
C   C83       1.0  0.33980  0.20440  0.25970  1.0000 0.0790891318
C   C84       1.0  0.79560  0.13540  0.25970  1.0000 0.0790891318
C   C85       1.0  0.97170  0.51670  0.66390  1.0000 0.0537065713
C   C86       1.0  0.48330  0.45500  0.66390  1.0000 0.0537065713
C   C87       1.0  0.54500  0.02830  0.66390  1.0000 0.0537065713
C   C88       1.0  0.97620  0.51370  0.54570  1.0000 -0.228630456
C   C89       1.0  0.48630  0.46250  0.54570  1.0000 -0.228630456
C   C90       1.0  0.53750  0.02380  0.54570  1.0000 -0.228630456
C   C91       1.0  0.99680  0.49820  0.46930  1.0000 0.1000779009
C   C92       1.0  0.50180  0.49860  0.46930  1.0000 0.1000779009
C   C93       1.0  0.50140  0.00320  0.46930  1.0000 0.1000779009
C   C94       1.0  0.01930  0.48000  0.52900  1.0000 -0.2092124747
C   C95       1.0  0.52000  0.53930  0.52900  1.0000 -0.2092124747
C   C96       1.0  0.46070  0.98070  0.52900  1.0000 -0.2092124747
C   C97       1.0  0.01900  0.48000  0.65010  1.0000 0.0709351316
C   C98       1.0  0.52000  0.53900  0.65010  1.0000 0.0709351316
C   C99       1.0  0.46100  0.98100  0.65010  1.0000 0.0709351316
C   C100      1.0  0.97570  0.45660  0.15640  1.0000 0.0709351316
C   C101      1.0  0.54340  0.51910  0.15640  1.0000 0.0709351316
C   C102      1.0  0.48090  0.02430  0.15640  1.0000 0.0709351316
C   C103      1.0  0.97620  0.45860  0.27720  1.0000 -0.1705027829
C   C104      1.0  0.54140  0.51760  0.27720  1.0000 -0.1705027829
C   C105      1.0  0.48240  0.02380  0.27720  1.0000 -0.1705027829
C   C106      1.0  0.99696  0.49880  0.33850  1.0000 0.1000779009
C   C107      1.0  0.50120  0.49816  0.33850  1.0000 0.1000779009
C   C108      1.0  0.50184  0.00304  0.33850  1.0000 0.1000779009
C   C109      1.0  0.01850  0.53940  0.27820  1.0000 -0.1705027829
C   C110      1.0  0.46060  0.47910  0.27820  1.0000 -0.1705027829
C   C111      1.0  0.52090  0.98150  0.27820  1.0000 -0.1705027829
C   C112      1.0  0.02030  0.54090  0.15780  1.0000 0.063063794
C   C113      1.0  0.45910  0.47940  0.15780  1.0000 0.063063794
C   C114      1.0  0.52060  0.97970  0.15780  1.0000 0.063063794
C   C115      1.0  0.13550  0.79470  0.59610  1.0000 0.0709351316
C   C116      1.0  0.20530  0.34080  0.59610  1.0000 0.0709351316
C   C117      1.0  0.65920  0.86450  0.59610  1.0000 0.0709351316
C   C118      1.0  0.13700  0.79450  0.47660  1.0000 -0.1705027829
C   C119      1.0  0.20550  0.34250  0.47660  1.0000 -0.1705027829
C   C120      1.0  0.65750  0.86300  0.47660  1.0000 -0.1705027829
C   C121      1.0  0.16721  0.83510  0.41930  1.0000 0.1000779009
C   C122      1.0  0.16490  0.33211  0.41930  1.0000 0.1000779009
C   C123      1.0  0.66789  0.83279  0.41930  1.0000 0.1000779009
C   C124      1.0  0.19430  0.87360  0.48300  1.0000 -0.1648016201
C   C125      1.0  0.12640  0.32070  0.48300  1.0000 -0.1648016201
C   C126      1.0  0.67930  0.80570  0.48300  1.0000 -0.1648016201
C   C127      1.0  0.19210  0.87330  0.60230  1.0000 0.063063794
C   C128      1.0  0.12670  0.31880  0.60230  1.0000 0.063063794
C   C129      1.0  0.68120  0.80790  0.60230  1.0000 0.063063794
C   C130      1.0  0.13050  0.82020  0.09280  1.0000 0.0153308559
C   C131      1.0  0.17980  0.31030  0.09280  1.0000 0.0153308559
C   C132      1.0  0.68970  0.86950  0.09280  1.0000 0.0153308559
C   C133      1.0  0.12960  0.82130  0.21520  1.0000 -0.1893916951
C   C134      1.0  0.17870  0.30830  0.21520  1.0000 -0.1893916951
C   C135      1.0  0.69170  0.87040  0.21520  1.0000 -0.1893916951
C   C136      1.0  0.16840  0.83440  0.28780  1.0000 0.0858158691
C   C137      1.0  0.16560  0.33400  0.28780  1.0000 0.0858158691
C   C138      1.0  0.66600  0.83160  0.28780  1.0000 0.0858158691
C   C139      1.0  0.20810  0.84650  0.22450  1.0000 -0.1976854058
C   C140      1.0  0.15350  0.36160  0.22450  1.0000 -0.1976854058
C   C141      1.0  0.63840  0.79190  0.22450  1.0000 -0.1976854058
C   C142      1.0  0.20440  0.84390  0.10500  1.0000 0.0537065713
C   C143      1.0  0.15610  0.36050  0.10500  1.0000 0.0537065713
C   C144      1.0  0.63950  0.79560  0.10500  1.0000 0.0537065713
N   N1        1.0  0.83212  0.67046  0.83160  1.0000 -0.2421307342
N   N2        1.0  0.32954  0.16166  0.83160  1.0000 -0.2421307342
N   N3        1.0  0.83834  0.16788  0.83160  1.0000 -0.2421307342
N   N4        1.0  0.83813  0.67265  0.19380  1.0000 -0.228630456
N   N5        1.0  0.32735  0.16548  0.19380  1.0000 -0.228630456
N   N6        1.0  0.83452  0.16187  0.19380  1.0000 -0.228630456
N   N7        1.0  0.99606  0.49735  0.71800  1.0000 -0.228630456
N   N8        1.0  0.50265  0.49871  0.71800  1.0000 -0.228630456
N   N9        1.0  0.50129  0.00394  0.71800  1.0000 -0.228630456
N   N10       1.0  0.99807  0.49881  0.09780  1.0000 -0.2092124747
N   N11       1.0  0.50119  0.49926  0.09780  1.0000 -0.2158000843
N   N12       1.0  0.50074  0.00193  0.09780  1.0000 -0.2092124747
N   N13       1.0  0.16279  0.83380  0.66510  1.0000 -0.2421307342
N   N14       1.0  0.16620  0.32899  0.66510  1.0000 -0.2421307342
N   N15       1.0  0.67101  0.83721  0.66510  1.0000 -0.2421307342
N   N16       1.0  0.17040  0.83209  0.01840  1.0000 -0.2490668969
N   N17       1.0  0.16791  0.33831  0.01840  1.0000 -0.2490668969
N   N18       1.0  0.66169  0.82960  0.01840  1.0000 -0.2490668969
O   O1        1.0  0.89592  0.67223  0.00330  1.0000 -0.3927201506
O   O2        1.0  0.32777  0.22369  0.00330  1.0000 -0.3927201506
O   O3        1.0  0.77631  0.10408  0.00330  1.0000 -0.3927201506
O   O4        1.0  0.94870  0.74130  0.97330  1.0000 -0.5192941404
O   O5        1.0  0.25870  0.20740  0.97330  1.0000 -0.5192941404
O   O6        1.0  0.79260  0.05130  0.97330  1.0000 -0.5192941404
O   O7        1.0  0.10406  0.77381  0.86140  1.0000 -0.3784078635
O   O8        1.0  0.22619  0.33025  0.86140  1.0000 -0.3784078635
O   O9        1.0  0.66975  0.89594  0.86140  1.0000 -0.3784078635
O   O10       1.0  0.12501  0.72247  0.83700  1.0000 -0.5578632033
O   O11       1.0  0.27753  0.40254  0.83700  1.0000 -0.5578632033
O   O12       1.0  0.59746  0.87499  0.83700  1.0000 -0.5578632033
O   O13       1.0  0.99668  0.55922  0.90910  1.0000 -0.438775547
O   O14       1.0  0.44078  0.43746  0.90910  1.0000 -0.438775547
O   O15       1.0  0.56254  0.00332  0.90910  1.0000 -0.438775547
O   O16       1.0  0.92830  0.54250  0.95660  1.0000 -0.5192941404
O   O17       1.0  0.45750  0.38580  0.95660  1.0000 -0.5192941404
O   O18       1.0  0.61420  0.07170  0.95660  1.0000 -0.5192941404
O   O19       1.0  0.79240  0.74090  0.97380  1.0000 -0.5395709551
O   O20       1.0  0.25910  0.05150  0.97380  1.0000 -0.5395709551
O   O21       1.0  0.94850  0.20760  0.97380  1.0000 -0.5395709551
O   O22       1.0  0.77563  0.66962  0.99980  1.0000 -0.4911361711
O   O23       1.0  0.33038  0.10601  0.99980  1.0000 -0.4911361711
O   O24       1.0  0.89399  0.22437  0.99980  1.0000 -0.4911361711
O   O25       1.0  0.61390  0.54070  0.95020  1.0000 -0.5498965458
O   O26       1.0  0.45930  0.07320  0.95020  1.0000 -0.5498965458
O   O27       1.0  0.92680  0.38610  0.95020  1.0000 -0.5498965458
O   O28       1.0  0.56120  0.55835  0.90450  1.0000 -0.4085550265
O   O29       1.0  0.44165  0.00285  0.90450  1.0000 -0.4085550265
O   O30       1.0  0.99715  0.43880  0.90450  1.0000 -0.4157809989
O   O31       1.0  0.59760  0.72130  0.84570  1.0000 -0.4911361711
O   O32       1.0  0.27870  0.87630  0.84570  1.0000 -0.4911361711
O   O33       1.0  0.12370  0.40240  0.84570  1.0000 -0.4911361711
O   O34       1.0  0.66647  0.77337  0.86780  1.0000 -0.4085550265
O   O35       1.0  0.22663  0.89310  0.86780  1.0000 -0.4085550265
O   O36       1.0  0.10690  0.33353  0.86780  1.0000 -0.4085550265
