# DDEC6 charges by PACMAN v1.1 (https://github.com/mtap-research/PACMAN-charge/)
data_2003[Cu][rob]3[ASR]3
_chemical_formula_sum              "Cu4 H40 C40 N4 O16"
_cell_length_a       12.4803
_cell_length_b       12.4803
_cell_length_c       8.5212
_cell_angle_alpha    81.257
_cell_angle_beta     98.743
_cell_angle_gamma    116.201

_symmetry_space_group_name_H-M    "P 1"
_symmetry_Int_Tables_number       1

loop_
  _symmetry_equiv_pos_as_xyz
  'x, y, z'

loop_
  _atom_site_type_symbol
  _atom_site_label
  _atom_site_symmetry_multiplicity
  _atom_site_fract_x
  _atom_site_fract_y
  _atom_site_fract_z
  _atom_site_occupancy
  _atom_site_charge
Cu  Cu1       1.0  0.40324  0.00840  0.92470  1.0000 0.7492058096
Cu  Cu2       1.0  0.00840  0.40324  0.57530  1.0000 0.7492058096
Cu  Cu3       1.0  0.59676  0.99160  0.07530  1.0000 0.7492058096
Cu  Cu4       1.0  0.99160  0.59676  0.42470  1.0000 0.7492058096
H   H1        1.0  0.73480  0.34480  0.74850  1.0000 0.142369472
H   H2        1.0  0.34480  0.73480  0.75150  1.0000 0.142369472
H   H3        1.0  0.26520  0.65520  0.25150  1.0000 0.142369472
H   H4        1.0  0.65520  0.26520  0.24850  1.0000 0.142369472
H   H5        1.0  0.64370  0.38630  0.80480  1.0000 0.1297211019
H   H6        1.0  0.38630  0.64370  0.69520  1.0000 0.1297211019
H   H7        1.0  0.35630  0.61370  0.19520  1.0000 0.1297211019
H   H8        1.0  0.61370  0.35630  0.30480  1.0000 0.1297211019
H   H9        1.0  0.76010  0.43170  0.05110  1.0000 0.0941526494
H   H10       1.0  0.43170  0.76010  0.44890  1.0000 0.0941526494
H   H11       1.0  0.23990  0.56830  0.94890  1.0000 0.0941526494
H   H12       1.0  0.56830  0.23990  0.55110  1.0000 0.0941526494
H   H13       1.0  0.84800  0.38100  0.00580  1.0000 0.0992759508
H   H14       1.0  0.38100  0.84800  0.49420  1.0000 0.0992759508
H   H15       1.0  0.15200  0.61900  0.99420  1.0000 0.0992759508
H   H16       1.0  0.61900  0.15200  0.50580  1.0000 0.0992759508
H   H17       1.0  0.93930  0.59230  0.96200  1.0000 0.142369472
H   H18       1.0  0.59230  0.93930  0.53800  1.0000 0.142369472
H   H19       1.0  0.06070  0.40770  0.03800  1.0000 0.142369472
H   H20       1.0  0.40770  0.06070  0.46200  1.0000 0.142369472
H   H21       1.0  0.82440  0.59120  0.84800  1.0000 0.1297211019
H   H22       1.0  0.59120  0.82440  0.65200  1.0000 0.1297211019
H   H23       1.0  0.17560  0.40880  0.15200  1.0000 0.1297211019
H   H24       1.0  0.40880  0.17560  0.34800  1.0000 0.1297211019
H   H25       1.0  0.14250  0.83890  0.82720  1.0000 0.1128943046
H   H26       1.0  0.83890  0.14250  0.67280  1.0000 0.1128943046
H   H27       1.0  0.85750  0.16110  0.17280  1.0000 0.1128943046
H   H28       1.0  0.16110  0.85750  0.32720  1.0000 0.1128943046
H   H29       1.0  0.97950  0.82810  0.65000  1.0000 0.1297211019
H   H30       1.0  0.82810  0.97950  0.85000  1.0000 0.1297211019
H   H31       1.0  0.02050  0.17190  0.35000  1.0000 0.1297211019
H   H32       1.0  0.17190  0.02050  0.15000  1.0000 0.1297211019
H   H33       1.0  0.16650  0.17630  0.50050  1.0000 0.1297211019
H   H34       1.0  0.17630  0.16650  0.99950  1.0000 0.1297211019
H   H35       1.0  0.83350  0.82370  0.49950  1.0000 0.1297211019
H   H36       1.0  0.82370  0.83350  0.00050  1.0000 0.1297211019
H   H37       1.0  0.32460  0.17700  0.68020  1.0000 0.1128943046
H   H38       1.0  0.17700  0.32460  0.81980  1.0000 0.1128943046
H   H39       1.0  0.67540  0.82300  0.31980  1.0000 0.1128943046
H   H40       1.0  0.82300  0.67540  0.18020  1.0000 0.1128943046
C   C1        1.0  0.62269  0.21871  0.90630  1.0000 0.6231114892
C   C2        1.0  0.21871  0.62269  0.59370  1.0000 0.6252644328
C   C3        1.0  0.37731  0.78129  0.09370  1.0000 0.6252644328
C   C4        1.0  0.78129  0.37731  0.40630  1.0000 0.6252644328
C   C5        1.0  0.69758  0.34662  0.84220  1.0000 -0.3286043475
C   C6        1.0  0.34662  0.69758  0.65780  1.0000 -0.3286043475
C   C7        1.0  0.30242  0.65338  0.15780  1.0000 -0.3286043475
C   C8        1.0  0.65338  0.30242  0.34220  1.0000 -0.3286043475
C   C9        1.0  0.79669  0.42251  0.96160  1.0000 -0.0951931807
C   C10       1.0  0.42251  0.79669  0.53840  1.0000 -0.0951931807
C   C11       1.0  0.20331  0.57749  0.03840  1.0000 -0.0946019175
C   C12       1.0  0.57749  0.20331  0.46160  1.0000 -0.0946019175
C   C13       1.0  0.87431  0.54689  0.88270  1.0000 -0.3286043475
C   C14       1.0  0.54689  0.87431  0.61730  1.0000 -0.3286043475
C   C15       1.0  0.12569  0.45311  0.11730  1.0000 -0.3286043475
C   C16       1.0  0.45311  0.12569  0.38270  1.0000 -0.3286043475
C   C17       1.0  0.92896  0.53928  0.74030  1.0000 0.6231114892
C   C18       1.0  0.53928  0.92896  0.75970  1.0000 0.6231114892
C   C19       1.0  0.07104  0.46072  0.25970  1.0000 0.6231114892
C   C20       1.0  0.46072  0.07104  0.24030  1.0000 0.6231114892
C   C21       1.0  0.14745  0.90875  0.76020  1.0000 0.0941526494
C   C22       1.0  0.90875  0.14745  0.73980  1.0000 0.0941526494
C   C23       1.0  0.85255  0.09125  0.23980  1.0000 0.0941526494
C   C24       1.0  0.09125  0.85255  0.26020  1.0000 0.0941526494
C   C25       1.0  0.04943  0.90197  0.65470  1.0000 -0.1847841027
C   C26       1.0  0.90197  0.04943  0.84530  1.0000 -0.1847841027
C   C27       1.0  0.95057  0.09803  0.34530  1.0000 -0.1847841027
C   C28       1.0  0.09803  0.95057  0.15470  1.0000 -0.1847841027
C   C29       1.0  0.05224  0.00176  0.55600  1.0000 0.0992759508
C   C30       1.0  0.00176  0.05224  0.94400  1.0000 0.0992759508
C   C31       1.0  0.94776  0.99824  0.44400  1.0000 0.0992759508
C   C32       1.0  0.99824  0.94776  0.05600  1.0000 0.0992759508
C   C33       1.0  0.15860  0.10540  0.56700  1.0000 -0.1909235748
C   C34       1.0  0.10540  0.15860  0.93300  1.0000 -0.1909235748
C   C35       1.0  0.84140  0.89460  0.43300  1.0000 -0.1909235748
C   C36       1.0  0.89460  0.84140  0.06700  1.0000 -0.1909235748
C   C37       1.0  0.25270  0.10490  0.67480  1.0000 0.0804514629
C   C38       1.0  0.10490  0.25270  0.82520  1.0000 0.0804514629
C   C39       1.0  0.74730  0.89510  0.32520  1.0000 0.0804514629
C   C40       1.0  0.89510  0.74730  0.17480  1.0000 0.0804514629
N   N1        1.0  0.24862  0.00898  0.77200  1.0000 -0.2356163296
N   N2        1.0  0.00898  0.24862  0.72800  1.0000 -0.2356163296
N   N3        1.0  0.75138  0.99102  0.22800  1.0000 -0.2356163296
N   N4        1.0  0.99102  0.75138  0.27200  1.0000 -0.2356163296
O   O1        1.0  0.51115  0.17733  0.86730  1.0000 -0.530479787
O   O2        1.0  0.17733  0.51115  0.63270  1.0000 -0.530479787
O   O3        1.0  0.48885  0.82267  0.13270  1.0000 -0.530479787
O   O4        1.0  0.82267  0.48885  0.36730  1.0000 -0.530479787
O   O5        1.0  0.67568  0.16142  0.98950  1.0000 -0.530479787
O   O6        1.0  0.16142  0.67568  0.51050  1.0000 -0.530479787
O   O7        1.0  0.32432  0.83858  0.01050  1.0000 -0.530479787
O   O8        1.0  0.83858  0.32432  0.48950  1.0000 -0.530479787
O   O9        1.0  0.96174  0.45646  0.74960  1.0000 -0.530479787
O   O10       1.0  0.45646  0.96174  0.75040  1.0000 -0.530479787
O   O11       1.0  0.03826  0.54354  0.25040  1.0000 -0.530479787
O   O12       1.0  0.54354  0.03826  0.24960  1.0000 -0.530479787
O   O13       1.0  0.93732  0.61520  0.62100  1.0000 -0.5388945075
O   O14       1.0  0.61520  0.93732  0.87900  1.0000 -0.5388945075
O   O15       1.0  0.06268  0.38480  0.37900  1.0000 -0.5388945075
O   O16       1.0  0.38480  0.06268  0.12100  1.0000 -0.5388945075
