# DDEC6 charges by PACMAN v1.1 (https://github.com/mtap-research/PACMAN-charge/)
data_2003[Ag][nan]3[ASR]1
_chemical_formula_sum              "Ag16 H120 C88 N32 O40"
_cell_length_a       17.3001
_cell_length_b       17.3001
_cell_length_c       21.431
_cell_angle_alpha    56.2931
_cell_angle_beta     123.707
_cell_angle_gamma    136.162

_symmetry_space_group_name_H-M    "P 1"
_symmetry_Int_Tables_number       1

loop_
  _symmetry_equiv_pos_as_xyz
  'x, y, z'

loop_
  _atom_site_type_symbol
  _atom_site_label
  _atom_site_symmetry_multiplicity
  _atom_site_fract_x
  _atom_site_fract_y
  _atom_site_fract_z
  _atom_site_occupancy
  _atom_site_charge
Ag  Ag1       1.0  0.32011  0.32011  0.25000  1.0000 0.3952107032
Ag  Ag2       1.0  0.67989  0.67989  0.75000  1.0000 0.3930254778
Ag  Ag3       1.0  0.67780  0.67780  0.25000  1.0000 0.3794579853
Ag  Ag4       1.0  0.32220  0.32220  0.75000  1.0000 0.3794579853
Ag  Ag5       1.0  0.80746  0.15492  0.08454  1.0000 0.3309043547
Ag  Ag6       1.0  0.84508  0.19254  0.58454  1.0000 0.3309043547
Ag  Ag7       1.0  0.19254  0.84508  0.91546  1.0000 0.3309043547
Ag  Ag8       1.0  0.15492  0.80746  0.41546  1.0000 0.3309043547
Ag  Ag9       1.0  0.71535  0.25575  0.89358  1.0000 0.418297117
Ag  Ag10      1.0  0.74425  0.28465  0.39358  1.0000 0.418297117
Ag  Ag11      1.0  0.28465  0.74425  0.10642  1.0000 0.418297117
Ag  Ag12      1.0  0.25575  0.71535  0.60642  1.0000 0.418297117
Ag  Ag13      1.0  0.09001  0.31071  0.89804  1.0000 0.307799538
Ag  Ag14      1.0  0.68929  0.90999  0.39804  1.0000 0.307799538
Ag  Ag15      1.0  0.90999  0.68929  0.10196  1.0000 0.307799538
Ag  Ag16      1.0  0.31071  0.09001  0.60196  1.0000 0.307799538
H   H1        1.0  0.46130  0.53630  0.14810  1.0000 0.3630459358
H   H2        1.0  0.46370  0.53870  0.64810  1.0000 0.3630459358
H   H3        1.0  0.53870  0.46370  0.85190  1.0000 0.3630459358
H   H4        1.0  0.53630  0.46130  0.35190  1.0000 0.3630459358
H   H5        1.0  0.52140  0.47620  0.19340  1.0000 0.3630459358
H   H6        1.0  0.52380  0.47860  0.69340  1.0000 0.3630459358
H   H7        1.0  0.47860  0.52380  0.80660  1.0000 0.3630459358
H   H8        1.0  0.47620  0.52140  0.30660  1.0000 0.3630459358
H   H9        1.0  0.80970  0.36450  0.00570  1.0000 0.3497912785
H   H10       1.0  0.63550  0.19030  0.50570  1.0000 0.3497912785
H   H11       1.0  0.19030  0.63550  0.99430  1.0000 0.3497912785
H   H12       1.0  0.36450  0.80970  0.49430  1.0000 0.3497912785
H   H13       1.0  0.67770  0.25470  0.00870  1.0000 0.3794579853
H   H14       1.0  0.74530  0.32230  0.50870  1.0000 0.3794579853
H   H15       1.0  0.32230  0.74530  0.99130  1.0000 0.3794579853
H   H16       1.0  0.25470  0.67770  0.49130  1.0000 0.3794579853
H   H17       1.0  0.93160  0.26680  0.95970  1.0000 0.1099287985
H   H18       1.0  0.73320  0.06840  0.45970  1.0000 0.1099287985
H   H19       1.0  0.06840  0.73320  0.04030  1.0000 0.1099287985
H   H20       1.0  0.26680  0.93160  0.54030  1.0000 0.1099287985
H   H21       1.0  0.95820  0.17880  0.02440  1.0000 0.118297239
H   H22       1.0  0.82120  0.04180  0.52440  1.0000 0.118297239
H   H23       1.0  0.04180  0.82120  0.97560  1.0000 0.118297239
H   H24       1.0  0.17880  0.95820  0.47560  1.0000 0.118297239
H   H25       1.0  0.21800  0.51020  0.96520  1.0000 0.1015294011
H   H26       1.0  0.48980  0.78200  0.46520  1.0000 0.1015294011
H   H27       1.0  0.78200  0.48980  0.03480  1.0000 0.1015294011
H   H28       1.0  0.51020  0.21800  0.53480  1.0000 0.1015294011
H   H29       1.0  0.09140  0.47100  0.92290  1.0000 0.118297239
H   H30       1.0  0.52900  0.90860  0.42290  1.0000 0.118297239
H   H31       1.0  0.90860  0.52900  0.07710  1.0000 0.118297239
H   H32       1.0  0.47100  0.09140  0.57710  1.0000 0.118297239
H   H33       1.0  0.25810  0.37210  0.06430  1.0000 0.1099287985
H   H34       1.0  0.62790  0.74190  0.56430  1.0000 0.1099287985
H   H35       1.0  0.74190  0.62790  0.93570  1.0000 0.1099287985
H   H36       1.0  0.37210  0.25810  0.43570  1.0000 0.1099287985
H   H37       1.0  0.15630  0.24190  0.08770  1.0000 0.118297239
H   H38       1.0  0.75810  0.84370  0.58770  1.0000 0.118297239
H   H39       1.0  0.84370  0.75810  0.91230  1.0000 0.118297239
H   H40       1.0  0.24190  0.15630  0.41230  1.0000 0.118297239
H   H41       1.0  0.04420  0.18400  0.15750  1.0000 0.1099287985
H   H42       1.0  0.81600  0.95580  0.65750  1.0000 0.1099287985
H   H43       1.0  0.95580  0.81600  0.84250  1.0000 0.1099287985
H   H44       1.0  0.18400  0.04420  0.34250  1.0000 0.1099287985
H   H45       1.0  0.07420  0.27500  0.18100  1.0000 0.118297239
H   H46       1.0  0.72500  0.92580  0.68100  1.0000 0.118297239
H   H47       1.0  0.92580  0.72500  0.81900  1.0000 0.118297239
H   H48       1.0  0.27500  0.07420  0.31900  1.0000 0.118297239
H   H49       1.0  0.23120  0.47540  0.14570  1.0000 0.118297239
H   H50       1.0  0.52460  0.76880  0.64570  1.0000 0.118297239
H   H51       1.0  0.76880  0.52460  0.85430  1.0000 0.118297239
H   H52       1.0  0.47540  0.23120  0.35430  1.0000 0.118297239
H   H53       1.0  0.30250  0.51330  0.09910  1.0000 0.0872531862
H   H54       1.0  0.48670  0.69750  0.59910  1.0000 0.0872531862
H   H55       1.0  0.69750  0.48670  0.90090  1.0000 0.0872531862
H   H56       1.0  0.51330  0.30250  0.40090  1.0000 0.0872531862
H   H57       1.0  0.97750  0.40990  0.99380  1.0000 0.1015294011
H   H58       1.0  0.59010  0.02250  0.49380  1.0000 0.1015294011
H   H59       1.0  0.02250  0.59010  0.00620  1.0000 0.1015294011
H   H60       1.0  0.40990  0.97750  0.50620  1.0000 0.1015294011
H   H61       1.0  0.03140  0.41280  0.08010  1.0000 0.1099287985
H   H62       1.0  0.58720  0.96860  0.58010  1.0000 0.1099287985
H   H63       1.0  0.96860  0.58720  0.91990  1.0000 0.1099287985
H   H64       1.0  0.41280  0.03140  0.41990  1.0000 0.1099287985
H   H65       1.0  0.04880  0.70180  0.27460  1.0000 0.1099287985
H   H66       1.0  0.29820  0.95120  0.77460  1.0000 0.1099287985
H   H67       1.0  0.95120  0.29820  0.72540  1.0000 0.1099287985
H   H68       1.0  0.70180  0.04880  0.22540  1.0000 0.1099287985
H   H69       1.0  0.03250  0.79770  0.23650  1.0000 0.118297239
H   H70       1.0  0.20230  0.96750  0.73650  1.0000 0.118297239
H   H71       1.0  0.96750  0.20230  0.76350  1.0000 0.118297239
H   H72       1.0  0.79770  0.03250  0.26350  1.0000 0.118297239
H   H73       1.0  0.83360  0.74200  0.17170  1.0000 0.118297239
H   H74       1.0  0.25800  0.16640  0.67170  1.0000 0.118297239
H   H75       1.0  0.16640  0.25800  0.82830  1.0000 0.118297239
H   H76       1.0  0.74200  0.83360  0.32830  1.0000 0.118297239
H   H77       1.0  0.72960  0.61520  0.16660  1.0000 0.118297239
H   H78       1.0  0.38480  0.27040  0.66667  1.0000 0.118297239
H   H79       1.0  0.27040  0.38480  0.83340  1.0000 0.118297239
H   H80       1.0  0.61520  0.72960  0.33340  1.0000 0.118297239
H   H81       1.0  0.76360  0.47160  0.22510  1.0000 0.118297239
H   H82       1.0  0.52840  0.23640  0.72510  1.0000 0.118297239
H   H83       1.0  0.23640  0.52840  0.77490  1.0000 0.118297239
H   H84       1.0  0.47160  0.76360  0.27490  1.0000 0.118297239
H   H85       1.0  0.88940  0.50780  0.26750  1.0000 0.1099287985
H   H86       1.0  0.49220  0.11060  0.76750  1.0000 0.1099287985
H   H87       1.0  0.11060  0.49220  0.73250  1.0000 0.1099287985
H   H88       1.0  0.50780  0.88940  0.23250  1.0000 0.1099287985
H   H89       1.0  0.73650  0.49290  0.36200  1.0000 0.1099287985
H   H90       1.0  0.50710  0.26350  0.86200  1.0000 0.1099287985
H   H91       1.0  0.26350  0.50710  0.63800  1.0000 0.1099287985
H   H92       1.0  0.49290  0.73650  0.13800  1.0000 0.1099287985
H   H93       1.0  0.67110  0.46310  0.28310  1.0000 0.118297239
H   H94       1.0  0.53690  0.32890  0.78310  1.0000 0.118297239
H   H95       1.0  0.32890  0.53690  0.71690  1.0000 0.118297239
H   H96       1.0  0.46310  0.67110  0.21690  1.0000 0.118297239
H   H97       1.0  0.98980  0.55340  0.38800  1.0000 0.1099287985
H   H98       1.0  0.44660  0.01020  0.88800  1.0000 0.1099287985
H   H99       1.0  0.01020  0.44660  0.61200  1.0000 0.1099287985
H   H100      1.0  0.55340  0.98980  0.11200  1.0000 0.1099287985
H   H101      1.0  0.93160  0.54660  0.42760  1.0000 0.1099287985
H   H102      1.0  0.45340  0.06840  0.92760  1.0000 0.1099287985
H   H103      1.0  0.06840  0.45340  0.57240  1.0000 0.1099287985
H   H104      1.0  0.54660  0.93160  0.07240  1.0000 0.1099287985
H   H105      1.0  0.93590  0.78850  0.29440  1.0000 0.1099287985
H   H106      1.0  0.21150  0.06410  0.79440  1.0000 0.1099287985
H   H107      1.0  0.06410  0.21150  0.70560  1.0000 0.1099287985
H   H108      1.0  0.78850  0.93590  0.20560  1.0000 0.1099287985
H   H109      1.0  0.89740  0.69120  0.36900  1.0000 0.118297239
H   H110      1.0  0.30880  0.10260  0.86900  1.0000 0.118297239
H   H111      1.0  0.10260  0.30880  0.63100  1.0000 0.118297239
H   H112      1.0  0.69120  0.89740  0.13100  1.0000 0.118297239
H   H113      1.0  0.99820  0.57580  0.71350  1.0000 0.1099287985
H   H114      1.0  0.42420  0.00180  0.21350  1.0000 0.1099287985
H   H115      1.0  0.00180  0.42420  0.28650  1.0000 0.1099287985
H   H116      1.0  0.57580  0.99820  0.78650  1.0000 0.1099287985
H   H117      1.0  0.73220  0.65660  0.52640  1.0000 0.118297239
H   H118      1.0  0.34340  0.26780  0.02640  1.0000 0.118297239
H   H119      1.0  0.26780  0.34340  0.47360  1.0000 0.118297239
H   H120      1.0  0.65660  0.73220  0.97360  1.0000 0.118297239
C   C1        1.0  0.98490  0.25710  0.00800  1.0000 -0.0312707676
C   C2        1.0  0.74290  0.01510  0.50800  1.0000 -0.0312707676
C   C3        1.0  0.01510  0.74290  0.99200  1.0000 -0.0312707676
C   C4        1.0  0.25710  0.98490  0.49200  1.0000 -0.0312707676
C   C5        1.0  0.14180  0.45760  0.97200  1.0000 -0.0388374192
C   C6        1.0  0.54240  0.85820  0.47200  1.0000 -0.0388374192
C   C7        1.0  0.85820  0.54240  0.02800  1.0000 -0.0388374192
C   C8        1.0  0.45760  0.14180  0.52800  1.0000 -0.0388374192
C   C9        1.0  0.18220  0.32000  0.07130  1.0000 -0.0388374192
C   C10       1.0  0.68000  0.81780  0.57130  1.0000 -0.0388374192
C   C11       1.0  0.81780  0.68000  0.92870  1.0000 -0.0388374192
C   C12       1.0  0.32000  0.18220  0.42870  1.0000 -0.0388374192
C   C13       1.0  0.07090  0.26230  0.14100  1.0000 -0.0388374192
C   C14       1.0  0.73770  0.92910  0.64100  1.0000 -0.0388374192
C   C15       1.0  0.92910  0.73770  0.85900  1.0000 -0.0388374192
C   C16       1.0  0.26230  0.07090  0.35900  1.0000 -0.0388374192
C   C17       1.0  0.22640  0.46060  0.10610  1.0000 -0.0388374192
C   C18       1.0  0.53940  0.77360  0.60610  1.0000 -0.0312707676
C   C19       1.0  0.77360  0.53940  0.89390  1.0000 -0.0312707676
C   C20       1.0  0.46060  0.22640  0.39390  1.0000 -0.0388374192
C   C21       1.0  0.02980  0.39820  0.04210  1.0000 -0.0312707676
C   C22       1.0  0.60180  0.97020  0.54210  1.0000 -0.0312707676
C   C23       1.0  0.97020  0.60180  0.95790  1.0000 -0.0312707676
C   C24       1.0  0.39820  0.02980  0.45790  1.0000 -0.0312707676
C   C25       1.0  0.99840  0.71720  0.26340  1.0000 -0.0388374192
C   C26       1.0  0.28280  0.00160  0.76340  1.0000 -0.0388374192
C   C27       1.0  0.00160  0.28280  0.73660  1.0000 -0.0388374192
C   C28       1.0  0.71720  0.99840  0.23660  1.0000 -0.0388374192
C   C29       1.0  0.80370  0.66230  0.19900  1.0000 -0.0388374192
C   C30       1.0  0.33770  0.19630  0.69900  1.0000 -0.0388374192
C   C31       1.0  0.19630  0.33770  0.80100  1.0000 -0.0388374192
C   C32       1.0  0.66230  0.80370  0.30100  1.0000 -0.0388374192
C   C33       1.0  0.83710  0.52070  0.25670  1.0000 -0.0388374192
C   C34       1.0  0.47930  0.16290  0.75670  1.0000 -0.0388374192
C   C35       1.0  0.16290  0.47930  0.74330  1.0000 -0.0388374192
C   C36       1.0  0.52070  0.83710  0.24330  1.0000 -0.0388374192
C   C37       1.0  0.74580  0.51240  0.31390  1.0000 -0.0312707676
C   C38       1.0  0.48760  0.25420  0.81390  1.0000 -0.0312707676
C   C39       1.0  0.25420  0.48760  0.68610  1.0000 -0.0312707676
C   C40       1.0  0.51240  0.74580  0.18610  1.0000 -0.0312707676
C   C41       1.0  0.93800  0.56600  0.37840  1.0000 -0.0312707676
C   C42       1.0  0.43400  0.06200  0.87840  1.0000 -0.0312707676
C   C43       1.0  0.06200  0.43400  0.62160  1.0000 -0.0388374192
C   C44       1.0  0.56600  0.93800  0.12160  1.0000 -0.0312707676
C   C45       1.0  0.90490  0.70850  0.32080  1.0000 -0.0388374192
C   C46       1.0  0.29150  0.09510  0.82080  1.0000 -0.0388374192
C   C47       1.0  0.09510  0.29150  0.67920  1.0000 -0.0388374192
C   C48       1.0  0.70850  0.90490  0.17920  1.0000 -0.0388374192
C   C49       1.0  0.84320  0.48000  0.77760  1.0000 0.5472953593
C   C50       1.0  0.52000  0.15680  0.27760  1.0000 0.5472953593
C   C51       1.0  0.15680  0.52000  0.22240  1.0000 0.5472953593
C   C52       1.0  0.48000  0.84320  0.72240  1.0000 0.5472953593
C   C53       1.0  0.04230  0.68170  0.57730  1.0000 0.5472953593
C   C54       1.0  0.31830  0.95770  0.07730  1.0000 0.5472953593
C   C55       1.0  0.95770  0.31830  0.42270  1.0000 0.5472953593
C   C56       1.0  0.68170  0.04230  0.92270  1.0000 0.5472953593
C   C57       1.0  0.87500  0.74000  0.45880  1.0000 0.562406679
C   C58       1.0  0.26000  0.12500  0.95880  1.0000 0.562406679
C   C59       1.0  0.12500  0.26000  0.54120  1.0000 0.562406679
C   C60       1.0  0.74000  0.87500  0.04120  1.0000 0.562406679
C   C61       1.0  0.69880  0.56580  0.66450  1.0000 0.5706507763
C   C62       1.0  0.43420  0.30120  0.16450  1.0000 0.5706507763
C   C63       1.0  0.30120  0.43420  0.33550  1.0000 0.5706507763
C   C64       1.0  0.56580  0.69880  0.83550  1.0000 0.5706507763
C   C65       1.0  0.85700  0.55500  0.69670  1.0000 -0.0491552825
C   C66       1.0  0.44500  0.14300  0.19670  1.0000 -0.0491552825
C   C67       1.0  0.14300  0.44500  0.30330  1.0000 -0.0491552825
C   C68       1.0  0.55500  0.85700  0.80330  1.0000 -0.0491552825
C   C69       1.0  0.94260  0.59120  0.67500  1.0000 -0.1414453822
C   C70       1.0  0.40880  0.05740  0.17500  1.0000 -0.1414453822
C   C71       1.0  0.05740  0.40880  0.32500  1.0000 -0.1414453822
C   C72       1.0  0.59120  0.94260  0.82500  1.0000 -0.1414453822
C   C73       1.0  0.95020  0.64960  0.59850  1.0000 -0.0388374192
C   C74       1.0  0.35040  0.04980  0.09850  1.0000 -0.0388374192
C   C75       1.0  0.04980  0.35040  0.40150  1.0000 -0.0388374192
C   C76       1.0  0.64960  0.95020  0.90150  1.0000 -0.0388374192
C   C77       1.0  0.86990  0.67350  0.54280  1.0000 -0.0194817732
C   C78       1.0  0.32650  0.13010  0.04280  1.0000 -0.0194817732
C   C79       1.0  0.13010  0.32650  0.45720  1.0000 -0.0194817732
C   C80       1.0  0.67350  0.86990  0.95720  1.0000 -0.0194817732
C   C81       1.0  0.78670  0.63970  0.56490  1.0000 -0.1651329944
C   C82       1.0  0.36030  0.21330  0.06490  1.0000 -0.1651329944
C   C83       1.0  0.21330  0.36030  0.43510  1.0000 -0.1626068911
C   C84       1.0  0.63970  0.78670  0.93510  1.0000 -0.1651329944
C   C85       1.0  0.77830  0.58130  0.64140  1.0000 -0.0143583348
C   C86       1.0  0.41870  0.22170  0.14140  1.0000 -0.0194817732
C   C87       1.0  0.22170  0.41870  0.35860  1.0000 -0.0143583348
C   C88       1.0  0.58130  0.77830  0.85860  1.0000 -0.0143583348
N   N1        1.0  0.18732  0.34008  0.13160  1.0000 -0.1626068911
N   N2        1.0  0.65992  0.81268  0.63160  1.0000 -0.1626068911
N   N3        1.0  0.81268  0.65992  0.86840  1.0000 -0.1626068911
N   N4        1.0  0.34008  0.18732  0.36840  1.0000 -0.1626068911
N   N5        1.0  0.10190  0.33710  0.99590  1.0000 -0.152082016
N   N6        1.0  0.66290  0.89810  0.49590  1.0000 -0.152082016
N   N7        1.0  0.89810  0.66290  0.00410  1.0000 -0.152082016
N   N8        1.0  0.33710  0.10190  0.50410  1.0000 -0.152082016
N   N9        1.0  0.98661  0.27719  0.06710  1.0000 -0.152082016
N   N10       1.0  0.72281  0.01339  0.56710  1.0000 -0.152082016
N   N11       1.0  0.01339  0.72281  0.93290  1.0000 -0.152082016
N   N12       1.0  0.27719  0.98661  0.43290  1.0000 -0.152082016
N   N13       1.0  0.14671  0.48049  0.03120  1.0000 -0.1626068911
N   N14       1.0  0.51951  0.85329  0.53120  1.0000 -0.1626068911
N   N15       1.0  0.85329  0.51951  0.96880  1.0000 -0.1626068911
N   N16       1.0  0.48049  0.14671  0.46880  1.0000 -0.1626068911
N   N17       1.0  0.88548  0.64412  0.21370  1.0000 -0.1414453822
N   N18       1.0  0.35588  0.11452  0.71370  1.0000 -0.1414453822
N   N19       1.0  0.11452  0.35588  0.78630  1.0000 -0.1414453822
N   N20       1.0  0.64412  0.88548  0.28630  1.0000 -0.1414453822
N   N21       1.0  0.78979  0.63521  0.27190  1.0000 -0.152082016
N   N22       1.0  0.36479  0.21021  0.77190  1.0000 -0.152082016
N   N23       1.0  0.21021  0.36479  0.72810  1.0000 -0.152082016
N   N24       1.0  0.63521  0.78979  0.22810  1.0000 -0.152082016
N   N25       1.0  0.98677  0.69023  0.33770  1.0000 -0.1414453822
N   N26       1.0  0.30977  0.01323  0.83770  1.0000 -0.1414453822
N   N27       1.0  0.01323  0.30977  0.66230  1.0000 -0.1414453822
N   N28       1.0  0.69023  0.98677  0.16230  1.0000 -0.1414453822
N   N29       1.0  0.82364  0.49076  0.33100  1.0000 -0.1626068911
N   N30       1.0  0.50924  0.17636  0.83100  1.0000 -0.1626068911
N   N31       1.0  0.17636  0.50924  0.66900  1.0000 -0.1626068911
N   N32       1.0  0.49076  0.82364  0.16900  1.0000 -0.1626068911
O   O1        1.0  0.49390  0.50370  0.20070  1.0000 -0.5304325918
O   O2        1.0  0.49630  0.50610  0.70070  1.0000 -0.5304325918
O   O3        1.0  0.50610  0.49630  0.79930  1.0000 -0.524436752
O   O4        1.0  0.50370  0.49390  0.29930  1.0000 -0.524436752
O   O5        1.0  0.74804  0.28516  0.00210  1.0000 -0.7130298863
O   O6        1.0  0.71484  0.25196  0.50210  1.0000 -0.7130298863
O   O7        1.0  0.25196  0.71484  0.99790  1.0000 -0.7130298863
O   O8        1.0  0.28516  0.74804  0.49790  1.0000 -0.7130298863
O   O9        1.0  0.74760  0.41760  0.78750  1.0000 -0.5304325918
O   O10       1.0  0.58240  0.25240  0.28750  1.0000 -0.5304325918
O   O11       1.0  0.25240  0.58240  0.21250  1.0000 -0.5304325918
O   O12       1.0  0.41760  0.74760  0.71250  1.0000 -0.5304325918
O   O13       1.0  0.93010  0.48630  0.83130  1.0000 -0.5975925649
O   O14       1.0  0.51370  0.06990  0.33130  1.0000 -0.5975925649
O   O15       1.0  0.06990  0.51370  0.16870  1.0000 -0.5975925649
O   O16       1.0  0.48630  0.93010  0.66870  1.0000 -0.5975925649
O   O17       1.0  0.14132  0.71948  0.62500  1.0000 -0.5656564335
O   O18       1.0  0.28052  0.85868  0.12500  1.0000 -0.5656564335
O   O19       1.0  0.85868  0.28052  0.37500  1.0000 -0.5656564335
O   O20       1.0  0.71948  0.14132  0.87500  1.0000 -0.5656564335
O   O21       1.0  0.01470  0.66430  0.51670  1.0000 -0.5831971566
O   O22       1.0  0.33570  0.98530  0.01670  1.0000 -0.5831971566
O   O23       1.0  0.98530  0.33570  0.48330  1.0000 -0.5831971566
O   O24       1.0  0.66430  0.01470  0.98330  1.0000 -0.5831971566
O   O25       1.0  0.96320  0.84340  0.44680  1.0000 -0.6127205143
O   O26       1.0  0.15660  0.03680  0.94680  1.0000 -0.6127205143
O   O27       1.0  0.03680  0.15660  0.55320  1.0000 -0.6127205143
O   O28       1.0  0.84340  0.96320  0.05320  1.0000 -0.6127205143
O   O29       1.0  0.78965  0.68895  0.40800  1.0000 -0.6155883322
O   O30       1.0  0.31105  0.21035  0.90800  1.0000 -0.6155883322
O   O31       1.0  0.21035  0.31105  0.59200  1.0000 -0.6155883322
O   O32       1.0  0.68895  0.78965  0.09200  1.0000 -0.6155883322
O   O33       1.0  0.59090  0.49190  0.64140  1.0000 -0.6127205143
O   O34       1.0  0.50810  0.40910  0.14140  1.0000 -0.6127205143
O   O35       1.0  0.40910  0.50810  0.35860  1.0000 -0.6127205143
O   O36       1.0  0.49190  0.59090  0.85860  1.0000 -0.6127205143
O   O37       1.0  0.74690  0.63410  0.69940  1.0000 -0.5975925649
O   O38       1.0  0.36590  0.25310  0.19940  1.0000 -0.5975925649
O   O39       1.0  0.25310  0.36590  0.30060  1.0000 -0.5975925649
O   O40       1.0  0.63410  0.74690  0.80060  1.0000 -0.5975925649
