# DDEC6 charges by PACMAN v1.1 (https://github.com/mtap-research/PACMAN-charge/)
data_2003[Mn][dia]3[ASR]2
_chemical_formula_sum              "Mn12 H24 C24 O48"
_cell_length_a       11.715
_cell_length_b       10.248
_cell_length_c       18.8631
_cell_angle_alpha    90
_cell_angle_beta     126.56
_cell_angle_gamma    90

_symmetry_space_group_name_H-M    "P 1"
_symmetry_Int_Tables_number       1

loop_
  _symmetry_equiv_pos_as_xyz
  'x, y, z'

loop_
  _atom_site_type_symbol
  _atom_site_label
  _atom_site_symmetry_multiplicity
  _atom_site_fract_x
  _atom_site_fract_y
  _atom_site_fract_z
  _atom_site_occupancy
  _atom_site_charge
Mn  Mn1       1.0  0.62477  0.07694  0.86786  1.0000 0.9687750724
Mn  Mn2       1.0  0.37523  0.57694  0.63214  1.0000 0.9687750724
Mn  Mn3       1.0  0.37523  0.92306  0.13214  1.0000 0.9633088893
Mn  Mn4       1.0  0.62477  0.42306  0.36786  1.0000 0.9633088893
Mn  Mn5       1.0  0.42880  0.88794  0.69035  1.0000 0.9687750724
Mn  Mn6       1.0  0.57120  0.38794  0.80965  1.0000 0.9687750724
Mn  Mn7       1.0  0.57120  0.11206  0.30965  1.0000 0.9687750724
Mn  Mn8       1.0  0.42880  0.61206  0.19035  1.0000 0.9687750724
Mn  Mn9       1.0  0.50000  0.00000  0.00000  1.0000 0.9838745184
Mn  Mn10      1.0  0.50000  0.50000  0.50000  1.0000 0.9838745184
Mn  Mn11      1.0  0.00000  0.00000  0.00000  1.0000 0.9896888919
Mn  Mn12      1.0  0.00000  0.50000  0.50000  1.0000 0.9896888919
H   H1        1.0  0.22330  0.95710  0.74260  1.0000 0.1010107651
H   H2        1.0  0.77670  0.45710  0.75740  1.0000 0.1010107651
H   H3        1.0  0.77670  0.04290  0.25740  1.0000 0.1010107651
H   H4        1.0  0.22330  0.54290  0.24260  1.0000 0.1010107651
H   H5        1.0  0.97360  0.28910  0.97380  1.0000 0.1010107651
H   H6        1.0  0.02640  0.78910  0.52620  1.0000 0.1010107651
H   H7        1.0  0.02640  0.71090  0.02620  1.0000 0.1010107651
H   H8        1.0  0.97360  0.21090  0.47380  1.0000 0.1010107651
H   H9        1.0  0.74980  0.79280  0.78200  1.0000 0.1010107651
H   H10       1.0  0.25020  0.29280  0.71800  1.0000 0.1010107651
H   H11       1.0  0.25020  0.20720  0.21800  1.0000 0.1010107651
H   H12       1.0  0.74980  0.70720  0.28200  1.0000 0.1010107651
H   H13       1.0  0.48410  0.23540  0.63240  1.0000 0.1010107651
H   H14       1.0  0.51590  0.73540  0.86760  1.0000 0.1010107651
H   H15       1.0  0.51590  0.76460  0.36760  1.0000 0.1010107651
H   H16       1.0  0.48410  0.26460  0.13240  1.0000 0.1010107651
H   H17       1.0  0.77630  0.86190  0.07860  1.0000 0.1010107651
H   H18       1.0  0.22370  0.36190  0.42140  1.0000 0.1010107651
H   H19       1.0  0.22370  0.13810  0.92140  1.0000 0.1010107651
H   H20       1.0  0.77630  0.63810  0.57860  1.0000 0.1010107651
H   H21       1.0  0.49890  0.37470  0.94580  1.0000 0.094648052
H   H22       1.0  0.50110  0.87470  0.55420  1.0000 0.094648052
H   H23       1.0  0.50110  0.62530  0.05420  1.0000 0.094648052
H   H24       1.0  0.49890  0.12530  0.44580  1.0000 0.1010107651
C   C1        1.0  0.31450  0.97580  0.79410  1.0000 0.4586118678
C   C2        1.0  0.68550  0.47580  0.70590  1.0000 0.4586118678
C   C3        1.0  0.68550  0.02420  0.20590  1.0000 0.4586118678
C   C4        1.0  0.31450  0.52420  0.29410  1.0000 0.4586118678
C   C5        1.0  0.87530  0.27240  0.93780  1.0000 0.4833680353
C   C6        1.0  0.12470  0.77240  0.56220  1.0000 0.4833680353
C   C7        1.0  0.12470  0.72760  0.06220  1.0000 0.4833680353
C   C8        1.0  0.87530  0.22760  0.43780  1.0000 0.4833680353
C   C9        1.0  0.76510  0.85900  0.82130  1.0000 0.4586118678
C   C10       1.0  0.23490  0.35900  0.67870  1.0000 0.4537690468
C   C11       1.0  0.23490  0.14100  0.17870  1.0000 0.4537690468
C   C12       1.0  0.76510  0.64100  0.32130  1.0000 0.4537690468
C   C13       1.0  0.49260  0.16810  0.66910  1.0000 0.4727614782
C   C14       1.0  0.50740  0.66810  0.83090  1.0000 0.4727614782
C   C15       1.0  0.50740  0.83190  0.33090  1.0000 0.4727614782
C   C16       1.0  0.49260  0.33190  0.16910  1.0000 0.4727614782
C   C17       1.0  0.77850  0.90910  0.03670  1.0000 0.4727614782
C   C18       1.0  0.22150  0.40910  0.46330  1.0000 0.4727614782
C   C19       1.0  0.22150  0.09090  0.96330  1.0000 0.4727614782
C   C20       1.0  0.77850  0.59090  0.53670  1.0000 0.4727614782
C   C21       1.0  0.51410  0.28580  0.94170  1.0000 0.4586118678
C   C22       1.0  0.48590  0.78580  0.55830  1.0000 0.4586118678
C   C23       1.0  0.48590  0.71420  0.05830  1.0000 0.4586118678
C   C24       1.0  0.51410  0.21420  0.44170  1.0000 0.4586118678
O   O1        1.0  0.65536  0.91550  0.80496  1.0000 -0.5600689464
O   O2        1.0  0.34464  0.41550  0.69504  1.0000 -0.5600689464
O   O3        1.0  0.34464  0.08450  0.19504  1.0000 -0.5600689464
O   O4        1.0  0.65536  0.58450  0.30496  1.0000 -0.5600689464
O   O5        1.0  0.41289  0.98820  0.78529  1.0000 -0.5600689464
O   O6        1.0  0.58711  0.48820  0.71471  1.0000 -0.5600689464
O   O7        1.0  0.58711  0.01180  0.21471  1.0000 -0.5600689464
O   O8        1.0  0.41289  0.51180  0.28529  1.0000 -0.5600689464
O   O9        1.0  0.55657  0.19550  0.75047  1.0000 -0.5659664386
O   O10       1.0  0.44343  0.69550  0.74953  1.0000 -0.5659664386
O   O11       1.0  0.44343  0.80450  0.24953  1.0000 -0.5659664386
O   O12       1.0  0.55657  0.30450  0.25047  1.0000 -0.5659664386
O   O13       1.0  0.66809  0.97460  0.98059  1.0000 -0.5526808687
O   O14       1.0  0.33191  0.47460  0.51941  1.0000 -0.5526808687
O   O15       1.0  0.33191  0.02540  0.01941  1.0000 -0.5526808687
O   O16       1.0  0.66809  0.52540  0.48059  1.0000 -0.5526808687
O   O17       1.0  0.54575  0.25540  0.88975  1.0000 -0.5659664386
O   O18       1.0  0.45425  0.75540  0.61025  1.0000 -0.5659664386
O   O19       1.0  0.45425  0.74460  0.11025  1.0000 -0.5659664386
O   O20       1.0  0.54575  0.24460  0.38975  1.0000 -0.5659664386
O   O21       1.0  0.44101  0.06140  0.63431  1.0000 -0.4990322795
O   O22       1.0  0.55899  0.56140  0.86569  1.0000 -0.4990322795
O   O23       1.0  0.55899  0.93860  0.36569  1.0000 -0.4990322795
O   O24       1.0  0.44101  0.43860  0.13431  1.0000 -0.4990322795
O   O25       1.0  0.83712  0.15540  0.93512  1.0000 -0.5526808687
O   O26       1.0  0.16288  0.65540  0.56488  1.0000 -0.5526808687
O   O27       1.0  0.16288  0.84460  0.06488  1.0000 -0.5526808687
O   O28       1.0  0.83712  0.34460  0.43512  1.0000 -0.5526808687
O   O29       1.0  0.50180  0.20880  0.98700  1.0000 -0.4990322795
O   O30       1.0  0.49820  0.70880  0.51300  1.0000 -0.4990322795
O   O31       1.0  0.49820  0.79120  0.01300  1.0000 -0.4990322795
O   O32       1.0  0.50180  0.29120  0.48700  1.0000 -0.4990322795
O   O33       1.0  0.79607  0.36620  0.89787  1.0000 -0.4990322795
O   O34       1.0  0.20393  0.86620  0.60213  1.0000 -0.4990322795
O   O35       1.0  0.20393  0.63380  0.10213  1.0000 -0.4990322795
O   O36       1.0  0.79607  0.13380  0.39787  1.0000 -0.4990322795
O   O37       1.0  0.88730  0.90110  0.04190  1.0000 -0.4990322795
O   O38       1.0  0.11270  0.40110  0.45810  1.0000 -0.4990322795
O   O39       1.0  0.11270  0.09890  0.95810  1.0000 -0.4990322795
O   O40       1.0  0.88730  0.59890  0.54190  1.0000 -0.4990322795
O   O41       1.0  0.32563  0.98560  0.86213  1.0000 -0.4861822837
O   O42       1.0  0.67437  0.48560  0.63787  1.0000 -0.4861822837
O   O43       1.0  0.67437  0.01440  0.13787  1.0000 -0.4842418843
O   O44       1.0  0.32563  0.51440  0.36213  1.0000 -0.4861822837
O   O45       1.0  0.88880  0.88180  0.88280  1.0000 -0.4861822837
O   O46       1.0  0.11120  0.38180  0.61720  1.0000 -0.4842418843
O   O47       1.0  0.11120  0.11820  0.11720  1.0000 -0.4842418843
O   O48       1.0  0.88880  0.61820  0.38280  1.0000 -0.4842418843
