# DDEC6 charges by PACMAN v1.1 (https://github.com/mtap-research/PACMAN-charge/)
data_2003[Fe][nan]3[ASR]1
_chemical_formula_sum              "Fe6 P6 H4 C8 O40"
_cell_length_a       9.6367
_cell_length_b       10.176
_cell_length_c       12.6164
_cell_angle_alpha    86.302
_cell_angle_beta     111.12
_cell_angle_gamma    118.2

_symmetry_space_group_name_H-M    "P 1"
_symmetry_Int_Tables_number       1

loop_
  _symmetry_equiv_pos_as_xyz
  'x, y, z'

loop_
  _atom_site_type_symbol
  _atom_site_label
  _atom_site_symmetry_multiplicity
  _atom_site_fract_x
  _atom_site_fract_y
  _atom_site_fract_z
  _atom_site_occupancy
  _atom_site_charge
Fe  Fe1       1.0  0.09655  0.84966  0.66287  1.0000 1.4178182995
Fe  Fe2       1.0  0.90345  0.15034  0.33713  1.0000 1.4178182995
Fe  Fe3       1.0  0.86291  0.07729  0.83298  1.0000 1.4331248319
Fe  Fe4       1.0  0.13709  0.92271  0.16702  1.0000 1.4331248319
Fe  Fe5       1.0  0.26192  0.76842  0.42321  1.0000 1.2330319202
Fe  Fe6       1.0  0.73808  0.23158  0.57679  1.0000 1.2330319202
P   P1        1.0  0.47679  0.97766  0.67773  1.0000 1.5704773581
P   P2        1.0  0.52321  0.02234  0.32227  1.0000 1.5704773581
P   P3        1.0  0.89140  0.03665  0.58315  1.0000 1.5704773581
P   P4        1.0  0.10860  0.96335  0.41685  1.0000 1.5704773581
P   P5        1.0  0.00401  0.83809  0.88819  1.0000 1.5859910762
P   P6        1.0  0.99599  0.16191  0.11181  1.0000 1.5821371591
H   H1        1.0  0.63580  0.86520  0.47440  1.0000 0.4274941599
H   H2        1.0  0.36420  0.13480  0.52560  1.0000 0.4274941599
H   H3        1.0  0.93520  0.59830  0.89470  1.0000 0.4132753527
H   H4        1.0  0.06480  0.40170  0.10530  1.0000 0.4132753527
C   C1        1.0  0.99960  0.53970  0.63580  1.0000 0.4908701346
C   C2        1.0  0.00040  0.46030  0.36420  1.0000 0.4908701346
C   C3        1.0  0.83220  0.54690  0.59800  1.0000 0.4961688882
C   C4        1.0  0.16780  0.45310  0.40200  1.0000 0.4961688882
C   C5        1.0  0.02080  0.39690  0.86900  1.0000 0.4908701346
C   C6        1.0  0.97920  0.60310  0.13100  1.0000 0.4908701346
C   C7        1.0  0.16330  0.35730  0.88160  1.0000 0.4908701346
C   C8        1.0  0.83670  0.64270  0.11840  1.0000 0.4908701346
O   O1        1.0  0.61580  0.97440  0.78520  1.0000 -0.6712701106
O   O2        1.0  0.38420  0.02560  0.21480  1.0000 -0.6712701106
O   O3        1.0  0.34040  0.97110  0.71850  1.0000 -0.6818521703
O   O4        1.0  0.65960  0.02890  0.28150  1.0000 -0.6818521703
O   O5        1.0  0.40880  0.84350  0.59110  1.0000 -0.7715448076
O   O6        1.0  0.59120  0.15650  0.40890  1.0000 -0.7715448076
O   O7        1.0  0.53920  0.12670  0.62740  1.0000 -0.7715448076
O   O8        1.0  0.46080  0.87330  0.37260  1.0000 -0.7715448076
O   O9        1.0  0.04190  0.01370  0.64910  1.0000 -0.6818521703
O   O10       1.0  0.95810  0.98630  0.35090  1.0000 -0.6818521703
O   O11       1.0  0.92580  0.15090  0.49950  1.0000 -0.7752775634
O   O12       1.0  0.07420  0.84910  0.50050  1.0000 -0.7752775634
O   O13       1.0  0.83710  0.09310  0.66340  1.0000 -0.7882317388
O   O14       1.0  0.16290  0.90690  0.33660  1.0000 -0.7882317388
O   O15       1.0  0.73910  0.87910  0.51900  1.0000 -0.5534603084
O   O16       1.0  0.26090  0.12090  0.48100  1.0000 -0.5553364838
O   O17       1.0  0.11430  0.92110  0.00780  1.0000 -0.7187938476
O   O18       1.0  0.88570  0.07890  0.99220  1.0000 -0.7187938476
O   O19       1.0  0.87640  0.89230  0.82400  1.0000 -0.7017243588
O   O20       1.0  0.12360  0.10770  0.17600  1.0000 -0.7017243588
O   O21       1.0  0.11870  0.85020  0.82620  1.0000 -0.7076472724
O   O22       1.0  0.88130  0.14980  0.17380  1.0000 -0.7076472724
O   O23       1.0  0.88900  0.66590  0.89130  1.0000 -0.5954947555
O   O24       1.0  0.11100  0.33410  0.10870  1.0000 -0.5954947555
O   O25       1.0  0.13350  0.66240  0.67310  1.0000 -0.3827250982
O   O26       1.0  0.86650  0.33760  0.32690  1.0000 -0.3827250982
O   O27       1.0  0.98650  0.41200  0.62920  1.0000 -0.4382328326
O   O28       1.0  0.01350  0.58800  0.37080  1.0000 -0.4382328326
O   O29       1.0  0.84920  0.67550  0.61320  1.0000 -0.4062551642
O   O30       1.0  0.15080  0.32450  0.38680  1.0000 -0.4041582728
O   O31       1.0  0.69680  0.42790  0.55900  1.0000 -0.3863182152
O   O32       1.0  0.30320  0.57210  0.44100  1.0000 -0.3863182152
O   O33       1.0  0.87310  0.28510  0.83340  1.0000 -0.4908011639
O   O34       1.0  0.12690  0.71490  0.16660  1.0000 -0.4908011639
O   O35       1.0  0.06150  0.52880  0.89210  1.0000 -0.3520642156
O   O36       1.0  0.93850  0.47120  0.10790  1.0000 -0.3520642156
O   O37       1.0  0.11640  0.21810  0.87090  1.0000 -0.4514070833
O   O38       1.0  0.88360  0.78190  0.12910  1.0000 -0.4514070833
O   O39       1.0  0.30790  0.45960  0.89810  1.0000 -0.2921553636
O   O40       1.0  0.69210  0.54040  0.10190  1.0000 -0.2921553636
