# DDEC6 charges by PACMAN v1.1 (https://github.com/mtap-research/PACMAN-charge/)
data_2003[Cu][nan]3[ASR]1
_chemical_formula_sum              "Cu4 H6 C18 O14"
_cell_length_a       3.4926
_cell_length_b       9.828
_cell_length_c       17.3108
_cell_angle_alpha    90
_cell_angle_beta     97.8615
_cell_angle_gamma    90

_symmetry_space_group_name_H-M    "P 1"
_symmetry_Int_Tables_number       1

loop_
  _symmetry_equiv_pos_as_xyz
  'x, y, z'

loop_
  _atom_site_type_symbol
  _atom_site_label
  _atom_site_symmetry_multiplicity
  _atom_site_fract_x
  _atom_site_fract_y
  _atom_site_fract_z
  _atom_site_occupancy
  _atom_site_charge
Cu  Cu1       1.0  0.85310  0.75905  0.27198  1.0000 1.0455364186
Cu  Cu2       1.0  0.85310  0.24095  0.77198  1.0000 1.0455364186
Cu  Cu3       1.0  0.52266  0.54465  0.39336  1.0000 0.9909492332
Cu  Cu4       1.0  0.52266  0.45535  0.89336  1.0000 0.9909492332
H   H1        1.0  0.89510  0.21700  0.28420  1.0000 0.1433803189
H   H2        1.0  0.89510  0.78300  0.78420  1.0000 0.1433803189
H   H3        1.0  0.04910  0.45750  0.10300  1.0000 0.1433803189
H   H4        1.0  0.04910  0.54250  0.60300  1.0000 0.1433803189
H   H5        1.0  0.17520  0.04980  0.08720  1.0000 0.1346214313
H   H6        1.0  0.17520  0.95020  0.58720  1.0000 0.1346214313
C   C1        1.0  0.03060  0.11290  0.19110  1.0000 -0.0185387743
C   C2        1.0  0.03060  0.88710  0.69110  1.0000 -0.0185387743
C   C3        1.0  0.95040  0.22650  0.23340  1.0000 -0.1054929447
C   C4        1.0  0.95040  0.77350  0.73340  1.0000 -0.1054929447
C   C5        1.0  0.95160  0.35450  0.19960  1.0000 -0.0185387743
C   C6        1.0  0.95160  0.64550  0.69960  1.0000 -0.0185387743
C   C7        1.0  0.04360  0.37100  0.12460  1.0000 -0.1054929447
C   C8        1.0  0.04360  0.62900  0.62460  1.0000 -0.1054929447
C   C9        1.0  0.12880  0.25680  0.08180  1.0000 -0.0082538965
C   C10       1.0  0.12880  0.74320  0.58180  1.0000 -0.0082538965
C   C11       1.0  0.12060  0.12640  0.11530  1.0000 -0.0941001874
C   C12       1.0  0.12060  0.87360  0.61530  1.0000 -0.0941001874
C   C13       1.0  0.99450  0.97480  0.22450  1.0000 0.5211642581
C   C14       1.0  0.99450  0.02520  0.72450  1.0000 0.5211642581
C   C15       1.0  0.85540  0.47460  0.24740  1.0000 0.5800366896
C   C16       1.0  0.85540  0.52540  0.74740  1.0000 0.5800366896
C   C17       1.0  0.24030  0.26900  0.00130  1.0000 0.5608844358
C   C18       1.0  0.24030  0.73100  0.50130  1.0000 0.5608844358
O   O1        1.0  0.87070  0.95980  0.28960  1.0000 -0.4444995326
O   O2        1.0  0.87070  0.04020  0.78960  1.0000 -0.4444995326
O   O3        1.0  0.07440  0.86830  0.18780  1.0000 -0.5076654953
O   O4        1.0  0.07440  0.13170  0.68780  1.0000 -0.5076654953
O   O5        1.0  0.84460  0.59100  0.21440  1.0000 -0.4763996106
O   O6        1.0  0.84460  0.40900  0.71440  1.0000 -0.4763996106
O   O7        1.0  0.47510  0.71220  0.33690  1.0000 -0.8092118901
O   O8        1.0  0.47510  0.28780  0.83690  1.0000 -0.7993727129
O   O9        1.0  0.80990  0.45390  0.31670  1.0000 -0.5851346653
O   O10       1.0  0.80990  0.54610  0.81670  1.0000 -0.5851346653
O   O11       1.0  0.22190  0.39080  0.97300  1.0000 -0.6001837653
O   O12       1.0  0.22190  0.60920  0.47300  1.0000 -0.6001837653
O   O13       1.0  0.34460  0.16820  0.96810  1.0000 -0.351360212
O   O14       1.0  0.34460  0.83180  0.46810  1.0000 -0.351360212
