# DDEC6 charges by PACMAN v1.1 (https://github.com/mtap-research/PACMAN-charge/)
data_2003[Cu][rob]3[ASR]4
_chemical_formula_sum              "Cu4 H48 C44 N4 O16"
_cell_length_a       13.3896
_cell_length_b       13.3896
_cell_length_c       9.059
_cell_angle_alpha    89.0625
_cell_angle_beta     90.9375
_cell_angle_gamma    127.787

_symmetry_space_group_name_H-M    "P 1"
_symmetry_Int_Tables_number       1

loop_
  _symmetry_equiv_pos_as_xyz
  'x, y, z'

loop_
  _atom_site_type_symbol
  _atom_site_label
  _atom_site_symmetry_multiplicity
  _atom_site_fract_x
  _atom_site_fract_y
  _atom_site_fract_z
  _atom_site_occupancy
  _atom_site_charge
Cu  Cu1       1.0  0.56692  0.97892  0.58031  1.0000 0.7331448499
Cu  Cu2       1.0  0.97892  0.56692  0.91969  1.0000 0.7331448499
Cu  Cu3       1.0  0.43308  0.02108  0.41969  1.0000 0.7331448499
Cu  Cu4       1.0  0.02108  0.43308  0.08031  1.0000 0.7331448499
H   H1        1.0  0.81760  0.39680  0.57920  1.0000 0.1397454249
H   H2        1.0  0.39680  0.81760  0.92080  1.0000 0.1397454249
H   H3        1.0  0.18240  0.60320  0.42080  1.0000 0.1397454249
H   H4        1.0  0.60320  0.18240  0.07920  1.0000 0.1397454249
H   H5        1.0  0.85770  0.37470  0.42550  1.0000 0.1397454249
H   H6        1.0  0.37470  0.85770  0.07450  1.0000 0.1397454249
H   H7        1.0  0.14230  0.62530  0.57450  1.0000 0.1397454249
H   H8        1.0  0.62530  0.14230  0.92550  1.0000 0.1397454249
H   H9        1.0  0.72070  0.41970  0.31130  1.0000 0.1006026234
H   H10       1.0  0.41970  0.72070  0.18870  1.0000 0.1006026234
H   H11       1.0  0.27930  0.58030  0.68870  1.0000 0.1006026234
H   H12       1.0  0.58030  0.27930  0.81130  1.0000 0.1006026234
H   H13       1.0  0.72640  0.47560  0.46860  1.0000 0.0864784498
H   H14       1.0  0.47560  0.72640  0.03140  1.0000 0.0864784498
H   H15       1.0  0.27360  0.52440  0.53140  1.0000 0.0864784498
H   H16       1.0  0.52440  0.27360  0.96860  1.0000 0.0864784498
H   H17       1.0  0.95970  0.61610  0.44210  1.0000 0.1397454249
H   H18       1.0  0.61610  0.95970  0.05790  1.0000 0.1397454249
H   H19       1.0  0.04030  0.38390  0.55790  1.0000 0.1397454249
H   H20       1.0  0.38390  0.04030  0.94210  1.0000 0.1397454249
H   H21       1.0  0.88500  0.65000  0.33980  1.0000 0.1189173576
H   H22       1.0  0.65000  0.88500  0.16020  1.0000 0.1189173576
H   H23       1.0  0.11500  0.35000  0.66020  1.0000 0.1189173576
H   H24       1.0  0.35000  0.11500  0.83980  1.0000 0.1189173576
H   H25       1.0  0.80750  0.15710  0.75760  1.0000 0.112236761
H   H26       1.0  0.15710  0.80750  0.74240  1.0000 0.112236761
H   H27       1.0  0.19250  0.84290  0.24240  1.0000 0.112236761
H   H28       1.0  0.84290  0.19250  0.25760  1.0000 0.112236761
H   H29       1.0  0.93810  0.16230  0.92980  1.0000 0.1397454249
H   H30       1.0  0.16230  0.93810  0.57020  1.0000 0.1397454249
H   H31       1.0  0.06190  0.83770  0.07020  1.0000 0.1397454249
H   H32       1.0  0.83770  0.06190  0.42980  1.0000 0.1397454249
H   H33       1.0  0.72840  0.78460  0.89510  1.0000 0.1302244071
H   H34       1.0  0.78460  0.72840  0.60490  1.0000 0.1302244071
H   H35       1.0  0.27160  0.21540  0.10490  1.0000 0.1302244071
H   H36       1.0  0.21540  0.27160  0.39510  1.0000 0.1302244071
H   H37       1.0  0.60680  0.79120  0.71980  1.0000 0.112236761
H   H38       1.0  0.79120  0.60680  0.78020  1.0000 0.112236761
H   H39       1.0  0.39320  0.20880  0.28020  1.0000 0.112236761
H   H40       1.0  0.20880  0.39320  0.21980  1.0000 0.112236761
H   H41       1.0  0.95230  0.02770  0.12120  1.0000 0.1189173576
H   H42       1.0  0.02770  0.95230  0.37880  1.0000 0.1189173576
H   H43       1.0  0.04770  0.97230  0.87880  1.0000 0.1189173576
H   H44       1.0  0.97230  0.04770  0.62120  1.0000 0.1189173576
H   H45       1.0  0.89640  0.88740  0.07380  1.0000 0.1189173576
H   H46       1.0  0.88740  0.89640  0.42620  1.0000 0.1189173576
H   H47       1.0  0.10360  0.11260  0.92620  1.0000 0.1189173576
H   H48       1.0  0.11260  0.10360  0.57380  1.0000 0.1189173576
C   C1        1.0  0.67570  0.23390  0.47960  1.0000 0.6121364165
C   C2        1.0  0.23390  0.67570  0.02040  1.0000 0.6121364165
C   C3        1.0  0.32430  0.76610  0.52040  1.0000 0.6121364165
C   C4        1.0  0.76610  0.32430  0.97960  1.0000 0.6121364165
C   C5        1.0  0.78920  0.36880  0.47620  1.0000 -0.3535391387
C   C6        1.0  0.36880  0.78920  0.02380  1.0000 -0.3535391387
C   C7        1.0  0.21080  0.63120  0.52380  1.0000 -0.3535391387
C   C8        1.0  0.63120  0.21080  0.97620  1.0000 -0.3535391387
C   C9        1.0  0.77280  0.45960  0.40160  1.0000 -0.0868915763
C   C10       1.0  0.45960  0.77280  0.09840  1.0000 -0.0868915763
C   C11       1.0  0.22720  0.54040  0.59840  1.0000 -0.0868915763
C   C12       1.0  0.54040  0.22720  0.90160  1.0000 -0.0868915763
C   C13       1.0  0.89820  0.58580  0.35970  1.0000 -0.3293496813
C   C14       1.0  0.58580  0.89820  0.14030  1.0000 -0.3293496813
C   C15       1.0  0.10180  0.41420  0.64030  1.0000 -0.3293496813
C   C16       1.0  0.41420  0.10180  0.85970  1.0000 -0.3293496813
C   C17       1.0  0.94860  0.56780  0.22470  1.0000 0.6121364165
C   C18       1.0  0.56780  0.94860  0.27530  1.0000 0.6121364165
C   C19       1.0  0.05140  0.43220  0.77530  1.0000 0.6121364165
C   C20       1.0  0.43220  0.05140  0.72470  1.0000 0.6121364165
C   C21       1.0  0.79110  0.07970  0.78660  1.0000 0.0835740645
C   C22       1.0  0.07970  0.79110  0.71340  1.0000 0.0835740645
C   C23       1.0  0.20890  0.92030  0.21340  1.0000 0.0835740645
C   C24       1.0  0.92030  0.20890  0.28660  1.0000 0.0835740645
C   C25       1.0  0.87040  0.08420  0.88750  1.0000 -0.2082022871
C   C26       1.0  0.08420  0.87040  0.61250  1.0000 -0.2082022871
C   C27       1.0  0.12960  0.91580  0.11250  1.0000 -0.2082022871
C   C28       1.0  0.91580  0.12960  0.38750  1.0000 -0.2082022871
C   C29       1.0  0.85040  0.97240  0.92770  1.0000 0.1589347873
C   C30       1.0  0.97240  0.85040  0.57230  1.0000 0.1589347873
C   C31       1.0  0.14960  0.02760  0.07230  1.0000 0.1589347873
C   C32       1.0  0.02760  0.14960  0.42770  1.0000 0.1589347873
C   C33       1.0  0.74830  0.86350  0.86680  1.0000 -0.2082022871
C   C34       1.0  0.86350  0.74830  0.63320  1.0000 -0.2082022871
C   C35       1.0  0.25170  0.13650  0.13320  1.0000 -0.2082022871
C   C36       1.0  0.13650  0.25170  0.36680  1.0000 -0.2082022871
C   C37       1.0  0.67440  0.86780  0.76520  1.0000 0.0634054173
C   C38       1.0  0.86780  0.67440  0.73480  1.0000 0.0634054173
C   C39       1.0  0.32560  0.13220  0.23480  1.0000 0.0634054173
C   C40       1.0  0.13220  0.32560  0.26520  1.0000 0.0634054173
C   C41       1.0  0.93680  0.97420  0.03630  1.0000 -0.2397378307
C   C42       1.0  0.97420  0.93680  0.46370  1.0000 -0.2397378307
C   C43       1.0  0.06320  0.02580  0.96370  1.0000 -0.2397378307
C   C44       1.0  0.02580  0.06320  0.53630  1.0000 -0.2397378307
N   N1        1.0  0.69290  0.97450  0.72680  1.0000 -0.2397378307
N   N2        1.0  0.97450  0.69290  0.77320  1.0000 -0.2397378307
N   N3        1.0  0.30710  0.02550  0.27320  1.0000 -0.2397378307
N   N4        1.0  0.02550  0.30710  0.22680  1.0000 -0.2397378307
O   O1        1.0  0.69000  0.16140  0.54900  1.0000 -0.5399472412
O   O2        1.0  0.16140  0.69000  0.95100  1.0000 -0.5399472412
O   O3        1.0  0.31000  0.83860  0.45100  1.0000 -0.5399472412
O   O4        1.0  0.83860  0.31000  0.04900  1.0000 -0.5399472412
O   O5        1.0  0.57826  0.20014  0.41260  1.0000 -0.4882291551
O   O6        1.0  0.20014  0.57826  0.08740  1.0000 -0.4882291551
O   O7        1.0  0.42174  0.79986  0.58740  1.0000 -0.4882291551
O   O8        1.0  0.79986  0.42174  0.91260  1.0000 -0.4882291551
O   O9        1.0  0.94300  0.61240  0.10550  1.0000 -0.521612912
O   O10       1.0  0.61240  0.94300  0.39450  1.0000 -0.521612912
O   O11       1.0  0.05700  0.38760  0.89450  1.0000 -0.521612912
O   O12       1.0  0.38760  0.05700  0.60550  1.0000 -0.521612912
O   O13       1.0  0.99002  0.50718  0.24020  1.0000 -0.5053947862
O   O14       1.0  0.50718  0.99002  0.25980  1.0000 -0.5053947862
O   O15       1.0  0.00998  0.49282  0.75980  1.0000 -0.5053947862
O   O16       1.0  0.49282  0.00998  0.74020  1.0000 -0.5053947862
