# DDEC6 charges by PACMAN v1.1 (https://github.com/mtap-research/PACMAN-charge/)
data_2003[Cd][pcu]3[ASR]2
_chemical_formula_sum              "Cd2 H16 C28 S6 N12"
_cell_length_a       15.0578
_cell_length_b       15.0578
_cell_length_c       7.358
_cell_angle_alpha    81.502
_cell_angle_beta     98.498
_cell_angle_gamma    141.225

_symmetry_space_group_name_H-M    "P 1"
_symmetry_Int_Tables_number       1

loop_
  _symmetry_equiv_pos_as_xyz
  'x, y, z'

loop_
  _atom_site_type_symbol
  _atom_site_label
  _atom_site_symmetry_multiplicity
  _atom_site_fract_x
  _atom_site_fract_y
  _atom_site_fract_z
  _atom_site_occupancy
  _atom_site_charge
Cd  Cd1       1.0  0.00000  0.50000  0.00000  1.0000 0.7237020524
Cd  Cd2       1.0  0.50000  0.00000  0.50000  1.0000 0.7237020524
H   H1        1.0  0.20200  0.52560  0.82380  1.0000 0.116945626
H   H2        1.0  0.47440  0.79800  0.32380  1.0000 0.116945626
H   H3        1.0  0.79800  0.47440  0.17620  1.0000 0.116945626
H   H4        1.0  0.52560  0.20200  0.67620  1.0000 0.116945626
H   H5        1.0  0.23050  0.40510  0.75970  1.0000 0.1317142339
H   H6        1.0  0.59490  0.76950  0.25970  1.0000 0.1317142339
H   H7        1.0  0.76950  0.59490  0.24030  1.0000 0.1317142339
H   H8        1.0  0.40510  0.23050  0.74030  1.0000 0.1317142339
H   H9        1.0  0.82580  0.04180  0.87620  1.0000 0.1364092471
H   H10       1.0  0.95820  0.17420  0.37620  1.0000 0.1364092471
H   H11       1.0  0.17420  0.95820  0.12380  1.0000 0.1364092471
H   H12       1.0  0.04180  0.82580  0.62380  1.0000 0.1364092471
H   H13       1.0  0.81010  0.17310  0.94380  1.0000 0.1063341738
H   H14       1.0  0.82690  0.18990  0.44380  1.0000 0.1063341738
H   H15       1.0  0.18990  0.82690  0.05620  1.0000 0.1063341738
H   H16       1.0  0.17310  0.81010  0.55620  1.0000 0.1063341738
C   C1        1.0  0.12619  0.42701  0.83900  1.0000 0.0976513492
C   C2        1.0  0.57299  0.87381  0.33900  1.0000 0.0976513492
C   C3        1.0  0.87381  0.57299  0.16100  1.0000 0.0976513492
C   C4        1.0  0.42701  0.12619  0.66100  1.0000 0.0976513492
C   C5        1.0  0.14404  0.35536  0.79860  1.0000 -0.1948885231
C   C6        1.0  0.64464  0.85596  0.29860  1.0000 -0.1958679377
C   C7        1.0  0.85596  0.64464  0.20140  1.0000 -0.1948885231
C   C8        1.0  0.35536  0.14404  0.70140  1.0000 -0.1948885231
C   C9        1.0  0.03161  0.20819  0.81670  1.0000 0.0913805009
C   C10       1.0  0.79181  0.96839  0.31670  1.0000 0.0913805009
C   C11       1.0  0.96839  0.79181  0.18330  1.0000 0.0913805009
C   C12       1.0  0.20819  0.03161  0.68330  1.0000 0.0913805009
C   C13       1.0  0.90498  0.14042  0.86820  1.0000 -0.1604377686
C   C14       1.0  0.85958  0.09502  0.36820  1.0000 -0.1604377686
C   C15       1.0  0.09502  0.85958  0.13180  1.0000 -0.1604377686
C   C16       1.0  0.14042  0.90498  0.63180  1.0000 -0.1604377686
C   C17       1.0  0.89642  0.22058  0.90840  1.0000 0.0913805009
C   C18       1.0  0.77942  0.10358  0.40840  1.0000 0.0913805009
C   C19       1.0  0.10358  0.77942  0.09160  1.0000 0.0913805009
C   C20       1.0  0.22058  0.89642  0.59160  1.0000 0.0913805009
C   C21       1.0  0.05015  0.12965  0.77990  1.0000 0.0976513492
C   C22       1.0  0.87035  0.94985  0.27990  1.0000 0.0976513492
C   C23       1.0  0.94985  0.87035  0.22010  1.0000 0.0976513492
C   C24       1.0  0.12965  0.05015  0.72010  1.0000 0.0976513492
C   C25       1.0  0.79307  0.34993  0.60650  1.0000 0.2739753814
C   C26       1.0  0.65007  0.20693  0.10650  1.0000 0.2739753814
C   C27       1.0  0.20693  0.65007  0.39350  1.0000 0.2739753814
C   C28       1.0  0.34993  0.79307  0.89350  1.0000 0.2739753814
S   S1        1.0  0.21413  0.21413  0.75000  1.0000 0.0778174789
S   S2        1.0  0.78587  0.78587  0.25000  1.0000 0.0778174789
S   S3        1.0  0.91305  0.51621  0.65913  1.0000 -0.3200502901
S   S4        1.0  0.48379  0.08695  0.15913  1.0000 -0.3200502901
S   S5        1.0  0.08695  0.48379  0.34087  1.0000 -0.3200502901
S   S6        1.0  0.51621  0.91305  0.84087  1.0000 -0.3200502901
N   N1        1.0  0.00585  0.36255  0.89870  1.0000 -0.2200900225
N   N2        1.0  0.63745  0.99415  0.39870  1.0000 -0.2200900225
N   N3        1.0  0.99415  0.63745  0.10130  1.0000 -0.2200900225
N   N4        1.0  0.36255  0.00585  0.60130  1.0000 -0.2200900225
N   N5        1.0  0.94685  0.99315  0.76710  1.0000 -0.1958679377
N   N6        1.0  0.00685  0.05315  0.26710  1.0000 -0.1958679377
N   N7        1.0  0.05315  0.00685  0.23290  1.0000 -0.1958679377
N   N8        1.0  0.99315  0.94685  0.73290  1.0000 -0.1958679377
N   N9        1.0  0.70869  0.23351  0.57040  1.0000 -0.4526227324
N   N10       1.0  0.76649  0.29131  0.07040  1.0000 -0.4526227324
N   N11       1.0  0.29131  0.76649  0.42960  1.0000 -0.4526227324
N   N12       1.0  0.23351  0.70869  0.92960  1.0000 -0.4526227324
