# DDEC6 charges by PACMAN v1.1 (https://github.com/mtap-research/PACMAN-charge/)
data_2003[Cu][usf]3[ASR]1
_chemical_formula_sum              "Cu12 H132 C204 N12 O48"
_cell_length_a       18.5557
_cell_length_b       18.5557
_cell_length_c       18.5557
_cell_angle_alpha    109.662
_cell_angle_beta     109.662
_cell_angle_gamma    109.662

_symmetry_space_group_name_H-M    "P 1"
_symmetry_Int_Tables_number       1

loop_
  _symmetry_equiv_pos_as_xyz
  'x, y, z'

loop_
  _atom_site_type_symbol
  _atom_site_label
  _atom_site_symmetry_multiplicity
  _atom_site_fract_x
  _atom_site_fract_y
  _atom_site_fract_z
  _atom_site_occupancy
  _atom_site_charge
Cu  Cu1       1.0  0.48791  0.55262  0.05952  1.0000 0.7804409748
Cu  Cu2       1.0  0.55262  0.05952  0.48791  1.0000 0.7804409748
Cu  Cu3       1.0  0.05952  0.48791  0.55262  1.0000 0.7804409748
Cu  Cu4       1.0  0.01209  0.44048  0.94738  1.0000 0.7804409748
Cu  Cu5       1.0  0.94738  0.01209  0.44048  1.0000 0.7804409748
Cu  Cu6       1.0  0.44048  0.94738  0.01209  1.0000 0.7804409748
Cu  Cu7       1.0  0.51209  0.44738  0.94048  1.0000 0.7804409748
Cu  Cu8       1.0  0.44738  0.94048  0.51209  1.0000 0.7804409748
Cu  Cu9       1.0  0.94048  0.51209  0.44738  1.0000 0.7804409748
Cu  Cu10      1.0  0.98791  0.55952  0.05262  1.0000 0.7804409748
Cu  Cu11      1.0  0.05262  0.98791  0.55952  1.0000 0.7804409748
Cu  Cu12      1.0  0.55952  0.05262  0.98791  1.0000 0.7804409748
H   H1        1.0  0.61330  0.73400  0.21160  1.0000 0.0991484273
H   H2        1.0  0.73400  0.21160  0.61330  1.0000 0.0991484273
H   H3        1.0  0.21160  0.61330  0.73400  1.0000 0.0991484273
H   H4        1.0  0.88670  0.28840  0.76600  1.0000 0.0991484273
H   H5        1.0  0.76600  0.88670  0.28840  1.0000 0.0991484273
H   H6        1.0  0.28840  0.76600  0.88670  1.0000 0.0991484273
H   H7        1.0  0.38670  0.26600  0.78840  1.0000 0.0991484273
H   H8        1.0  0.26600  0.78840  0.38670  1.0000 0.0991484273
H   H9        1.0  0.78840  0.38670  0.26600  1.0000 0.0991484273
H   H10       1.0  0.11330  0.71160  0.23400  1.0000 0.0991484273
H   H11       1.0  0.23400  0.11330  0.71160  1.0000 0.0991484273
H   H12       1.0  0.71160  0.23400  0.11330  1.0000 0.0991484273
H   H13       1.0  0.34010  0.50940  0.09620  1.0000 0.1292942891
H   H14       1.0  0.50940  0.09620  0.34010  1.0000 0.1292942891
H   H15       1.0  0.09620  0.34010  0.50940  1.0000 0.1292942891
H   H16       1.0  0.15990  0.40380  0.99060  1.0000 0.1292942891
H   H17       1.0  0.99060  0.15990  0.40380  1.0000 0.1292942891
H   H18       1.0  0.40380  0.99060  0.15990  1.0000 0.1292942891
H   H19       1.0  0.65990  0.49060  0.90380  1.0000 0.1292942891
H   H20       1.0  0.49060  0.90380  0.65990  1.0000 0.1292942891
H   H21       1.0  0.90380  0.65990  0.49060  1.0000 0.1292942891
H   H22       1.0  0.84010  0.59620  0.00940  1.0000 0.1292942891
H   H23       1.0  0.00940  0.84010  0.59620  1.0000 0.1292942891
H   H24       1.0  0.59620  0.00940  0.84010  1.0000 0.1292942891
H   H25       1.0  0.65400  0.83600  0.35240  1.0000 0.1292942891
H   H26       1.0  0.83600  0.35240  0.65400  1.0000 0.1292942891
H   H27       1.0  0.35240  0.65400  0.83600  1.0000 0.1292942891
H   H28       1.0  0.84600  0.14760  0.66400  1.0000 0.1292942891
H   H29       1.0  0.66400  0.84600  0.14760  1.0000 0.1292942891
H   H30       1.0  0.14760  0.66400  0.84600  1.0000 0.1292942891
H   H31       1.0  0.34600  0.16400  0.64760  1.0000 0.1292942891
H   H32       1.0  0.16400  0.64760  0.34600  1.0000 0.1292942891
H   H33       1.0  0.64760  0.34600  0.16400  1.0000 0.1292942891
H   H34       1.0  0.15400  0.85240  0.33600  1.0000 0.1292942891
H   H35       1.0  0.33600  0.15400  0.85240  1.0000 0.1292942891
H   H36       1.0  0.85240  0.33600  0.15400  1.0000 0.1292942891
H   H37       1.0  0.24080  0.47970  0.14600  1.0000 0.1111398635
H   H38       1.0  0.47970  0.14600  0.24080  1.0000 0.1111398635
H   H39       1.0  0.14600  0.24080  0.47970  1.0000 0.1111398635
H   H40       1.0  0.25920  0.35400  0.02030  1.0000 0.1111398635
H   H41       1.0  0.02030  0.25920  0.35400  1.0000 0.1111398635
H   H42       1.0  0.35400  0.02030  0.25920  1.0000 0.1111398635
H   H43       1.0  0.75920  0.52030  0.85400  1.0000 0.1111398635
H   H44       1.0  0.52030  0.85400  0.75920  1.0000 0.1111398635
H   H45       1.0  0.85400  0.75920  0.52030  1.0000 0.1111398635
H   H46       1.0  0.74080  0.64600  0.97970  1.0000 0.1111398635
H   H47       1.0  0.97970  0.74080  0.64600  1.0000 0.1111398635
H   H48       1.0  0.64600  0.97970  0.74080  1.0000 0.1111398635
H   H49       1.0  0.41130  0.70370  0.37970  1.0000 0.1292942891
H   H50       1.0  0.70370  0.37970  0.41130  1.0000 0.1292942891
H   H51       1.0  0.37970  0.41130  0.70370  1.0000 0.1292942891
H   H52       1.0  0.08870  0.12030  0.79630  1.0000 0.1292942891
H   H53       1.0  0.79630  0.08870  0.12030  1.0000 0.1292942891
H   H54       1.0  0.12030  0.79630  0.08870  1.0000 0.1292942891
H   H55       1.0  0.58870  0.29630  0.62030  1.0000 0.1292942891
H   H56       1.0  0.29630  0.62030  0.58870  1.0000 0.1292942891
H   H57       1.0  0.62030  0.58870  0.29630  1.0000 0.1292942891
H   H58       1.0  0.91130  0.87970  0.20370  1.0000 0.1292942891
H   H59       1.0  0.20370  0.91130  0.87970  1.0000 0.1292942891
H   H60       1.0  0.87970  0.20370  0.91130  1.0000 0.1292942891
H   H61       1.0  0.55850  0.80410  0.40600  1.0000 0.121563216
H   H62       1.0  0.80410  0.40600  0.55850  1.0000 0.121563216
H   H63       1.0  0.40600  0.55850  0.80410  1.0000 0.121563216
H   H64       1.0  0.94150  0.09400  0.69590  1.0000 0.121563216
H   H65       1.0  0.69590  0.94150  0.09400  1.0000 0.121563216
H   H66       1.0  0.09400  0.69590  0.94150  1.0000 0.121563216
H   H67       1.0  0.44150  0.19590  0.59400  1.0000 0.121563216
H   H68       1.0  0.19590  0.59400  0.44150  1.0000 0.121563216
H   H69       1.0  0.59400  0.44150  0.19590  1.0000 0.121563216
H   H70       1.0  0.05850  0.90600  0.30410  1.0000 0.121563216
H   H71       1.0  0.30410  0.05850  0.90600  1.0000 0.121563216
H   H72       1.0  0.90600  0.30410  0.05850  1.0000 0.121563216
H   H73       1.0  0.27650  0.57790  0.28690  1.0000 0.1111398635
H   H74       1.0  0.57790  0.28690  0.27650  1.0000 0.1111398635
H   H75       1.0  0.28690  0.27650  0.57790  1.0000 0.1111398635
H   H76       1.0  0.22350  0.21310  0.92210  1.0000 0.1111398635
H   H77       1.0  0.92210  0.22350  0.21310  1.0000 0.1111398635
H   H78       1.0  0.21310  0.92210  0.22350  1.0000 0.1111398635
H   H79       1.0  0.72350  0.42210  0.71310  1.0000 0.1111398635
H   H80       1.0  0.42210  0.71310  0.72350  1.0000 0.1111398635
H   H81       1.0  0.71310  0.72350  0.42210  1.0000 0.1111398635
H   H82       1.0  0.77650  0.78690  0.07790  1.0000 0.1111398635
H   H83       1.0  0.07790  0.77650  0.78690  1.0000 0.1111398635
H   H84       1.0  0.78690  0.07790  0.77650  1.0000 0.1111398635
H   H85       1.0  0.77120  0.72880  0.25000  1.0000 0.121563216
H   H86       1.0  0.72880  0.25000  0.77120  1.0000 0.121563216
H   H87       1.0  0.25000  0.77120  0.72880  1.0000 0.121563216
H   H88       1.0  0.22880  0.27120  0.75000  1.0000 0.121563216
H   H89       1.0  0.27120  0.75000  0.22880  1.0000 0.121563216
H   H90       1.0  0.75000  0.22880  0.27120  1.0000 0.121563216
H   H91       1.0  0.78070  0.51000  0.13230  1.0000 0.121563216
H   H92       1.0  0.51000  0.13230  0.78070  1.0000 0.121563216
H   H93       1.0  0.13230  0.78070  0.51000  1.0000 0.121563216
H   H94       1.0  0.71930  0.36770  0.99000  1.0000 0.121563216
H   H95       1.0  0.99000  0.71930  0.36770  1.0000 0.121563216
H   H96       1.0  0.36770  0.99000  0.71930  1.0000 0.121563216
H   H97       1.0  0.21930  0.49000  0.86770  1.0000 0.121563216
H   H98       1.0  0.49000  0.86770  0.21930  1.0000 0.121563216
H   H99       1.0  0.86770  0.21930  0.49000  1.0000 0.121563216
H   H100      1.0  0.28070  0.63230  0.01000  1.0000 0.121563216
H   H101      1.0  0.01000  0.28070  0.63230  1.0000 0.121563216
H   H102      1.0  0.63230  0.01000  0.28070  1.0000 0.121563216
H   H103      1.0  0.92290  0.57710  0.25000  1.0000 0.121563216
H   H104      1.0  0.57710  0.25000  0.92290  1.0000 0.121563216
H   H105      1.0  0.25000  0.92290  0.57710  1.0000 0.121563216
H   H106      1.0  0.07710  0.42290  0.75000  1.0000 0.121563216
H   H107      1.0  0.42290  0.75000  0.07710  1.0000 0.121563216
H   H108      1.0  0.75000  0.07710  0.42290  1.0000 0.121563216
H   H109      1.0  0.62380  0.63730  0.86250  1.0000 0.1292942891
H   H110      1.0  0.63730  0.86250  0.62380  1.0000 0.1292942891
H   H111      1.0  0.86250  0.62380  0.63730  1.0000 0.1292942891
H   H112      1.0  0.87620  0.63750  0.86270  1.0000 0.1292942891
H   H113      1.0  0.86270  0.87620  0.63750  1.0000 0.1292942891
H   H114      1.0  0.63750  0.86270  0.87620  1.0000 0.1292942891
H   H115      1.0  0.37620  0.36270  0.13750  1.0000 0.1292942891
H   H116      1.0  0.36270  0.13750  0.37620  1.0000 0.1292942891
H   H117      1.0  0.13750  0.37620  0.36270  1.0000 0.1292942891
H   H118      1.0  0.12380  0.36250  0.13730  1.0000 0.1292942891
H   H119      1.0  0.13730  0.12380  0.36250  1.0000 0.1292942891
H   H120      1.0  0.36250  0.13730  0.12380  1.0000 0.1292942891
H   H121      1.0  0.51596  0.75000  0.98404  1.0000 0.1292942891
H   H122      1.0  0.75000  0.98404  0.51596  1.0000 0.1292942891
H   H123      1.0  0.98404  0.51596  0.75000  1.0000 0.1292942891
H   H124      1.0  0.48404  0.25000  0.01596  1.0000 0.1292942891
H   H125      1.0  0.25000  0.01596  0.48404  1.0000 0.1292942891
H   H126      1.0  0.01596  0.48404  0.25000  1.0000 0.1292942891
H   H127      1.0  0.66946  0.75000  0.83054  1.0000 0.121563216
H   H128      1.0  0.75000  0.83054  0.66946  1.0000 0.121563216
H   H129      1.0  0.83054  0.66946  0.75000  1.0000 0.121563216
H   H130      1.0  0.33054  0.25000  0.16946  1.0000 0.121563216
H   H131      1.0  0.25000  0.16946  0.33054  1.0000 0.121563216
H   H132      1.0  0.16946  0.33054  0.25000  1.0000 0.121563216
C   C1        1.0  0.43840  0.62690  0.20890  1.0000 0.192270162
C   C2        1.0  0.62690  0.20890  0.43840  1.0000 0.192270162
C   C3        1.0  0.20890  0.43840  0.62690  1.0000 0.192270162
C   C4        1.0  0.06160  0.29110  0.87310  1.0000 0.192270162
C   C5        1.0  0.87310  0.06160  0.29110  1.0000 0.192270162
C   C6        1.0  0.29110  0.87310  0.06160  1.0000 0.192270162
C   C7        1.0  0.56160  0.37310  0.79110  1.0000 0.192270162
C   C8        1.0  0.37310  0.79110  0.56160  1.0000 0.192270162
C   C9        1.0  0.79110  0.56160  0.37310  1.0000 0.192270162
C   C10       1.0  0.93840  0.70890  0.12690  1.0000 0.192270162
C   C11       1.0  0.12690  0.93840  0.70890  1.0000 0.192270162
C   C12       1.0  0.70890  0.12690  0.93840  1.0000 0.192270162
C   C13       1.0  0.57280  0.72040  0.23210  1.0000 0.0943048247
C   C14       1.0  0.72040  0.23210  0.57280  1.0000 0.0943048247
C   C15       1.0  0.23210  0.57280  0.72040  1.0000 0.0943048247
C   C16       1.0  0.92720  0.26790  0.77960  1.0000 0.0943048247
C   C17       1.0  0.77960  0.92720  0.26790  1.0000 0.0943048247
C   C18       1.0  0.26790  0.77960  0.92720  1.0000 0.0943048247
C   C19       1.0  0.42720  0.27960  0.76790  1.0000 0.0943048247
C   C20       1.0  0.27960  0.76790  0.42720  1.0000 0.0943048247
C   C21       1.0  0.76790  0.42720  0.27960  1.0000 0.0943048247
C   C22       1.0  0.07280  0.73210  0.22040  1.0000 0.0943048247
C   C23       1.0  0.22040  0.07280  0.73210  1.0000 0.0943048247
C   C24       1.0  0.73210  0.22040  0.07280  1.0000 0.0943048247
C   C25       1.0  0.35590  0.55000  0.15410  1.0000 -0.1665166258
C   C26       1.0  0.55000  0.15410  0.35590  1.0000 -0.1665166258
C   C27       1.0  0.15410  0.35590  0.55000  1.0000 -0.1665166258
C   C28       1.0  0.14410  0.34590  0.95000  1.0000 -0.1665166258
C   C29       1.0  0.95000  0.14410  0.34590  1.0000 -0.1665166258
C   C30       1.0  0.34590  0.95000  0.14410  1.0000 -0.1665166258
C   C31       1.0  0.64410  0.45000  0.84590  1.0000 -0.1665166258
C   C32       1.0  0.45000  0.84590  0.64410  1.0000 -0.1665166258
C   C33       1.0  0.84590  0.64410  0.45000  1.0000 -0.1665166258
C   C34       1.0  0.85590  0.65410  0.05000  1.0000 -0.1665166258
C   C35       1.0  0.05000  0.85590  0.65410  1.0000 -0.1665166258
C   C36       1.0  0.65410  0.05000  0.85590  1.0000 -0.1665166258
C   C37       1.0  0.46090  0.68700  0.29520  1.0000 0.0425495466
C   C38       1.0  0.68700  0.29520  0.46090  1.0000 0.0425495466
C   C39       1.0  0.29520  0.46090  0.68700  1.0000 0.0425495466
C   C40       1.0  0.03910  0.20480  0.81300  1.0000 0.0425495466
C   C41       1.0  0.81300  0.03910  0.20480  1.0000 0.0425495466
C   C42       1.0  0.20480  0.81300  0.03910  1.0000 0.0425495466
C   C43       1.0  0.53910  0.31300  0.70480  1.0000 0.0425495466
C   C44       1.0  0.31300  0.70480  0.53910  1.0000 0.0425495466
C   C45       1.0  0.70480  0.53910  0.31300  1.0000 0.0425495466
C   C46       1.0  0.96090  0.79520  0.18700  1.0000 0.0425495466
C   C47       1.0  0.18700  0.96090  0.79520  1.0000 0.0425495466
C   C48       1.0  0.79520  0.18700  0.96090  1.0000 0.0425495466
C   C49       1.0  0.59830  0.78220  0.31700  1.0000 -0.1627006992
C   C50       1.0  0.78220  0.31700  0.59830  1.0000 -0.1627006992
C   C51       1.0  0.31700  0.59830  0.78220  1.0000 -0.1627006992
C   C52       1.0  0.90170  0.18300  0.71780  1.0000 -0.1627006992
C   C53       1.0  0.71780  0.90170  0.18300  1.0000 -0.1627006992
C   C54       1.0  0.18300  0.71780  0.90170  1.0000 -0.1627006992
C   C55       1.0  0.40170  0.21780  0.68300  1.0000 -0.1627006992
C   C56       1.0  0.21780  0.68300  0.40170  1.0000 -0.1627006992
C   C57       1.0  0.68300  0.40170  0.21780  1.0000 -0.1627006992
C   C58       1.0  0.09830  0.81700  0.28220  1.0000 -0.1627006992
C   C59       1.0  0.28220  0.09830  0.81700  1.0000 -0.1627006992
C   C60       1.0  0.81700  0.28220  0.09830  1.0000 -0.1627006992
C   C61       1.0  0.29720  0.53260  0.18370  1.0000 -0.0824590747
C   C62       1.0  0.53260  0.18370  0.29720  1.0000 -0.0824590747
C   C63       1.0  0.18370  0.29720  0.53260  1.0000 -0.0824590747
C   C64       1.0  0.20280  0.31630  0.96740  1.0000 -0.0824590747
C   C65       1.0  0.96740  0.20280  0.31630  1.0000 -0.0824590747
C   C66       1.0  0.31630  0.96740  0.20280  1.0000 -0.0824590747
C   C67       1.0  0.70280  0.46740  0.81630  1.0000 -0.0824590747
C   C68       1.0  0.46740  0.81630  0.70280  1.0000 -0.0824590747
C   C69       1.0  0.81630  0.70280  0.46740  1.0000 -0.0824590747
C   C70       1.0  0.79720  0.68370  0.03260  1.0000 -0.0824590747
C   C71       1.0  0.03260  0.79720  0.68370  1.0000 -0.0824590747
C   C72       1.0  0.68370  0.03260  0.79720  1.0000 -0.0824590747
C   C73       1.0  0.39730  0.66480  0.32190  1.0000 -0.1257273135
C   C74       1.0  0.66480  0.32190  0.39730  1.0000 -0.1257273135
C   C75       1.0  0.32190  0.39730  0.66480  1.0000 -0.1257273135
C   C76       1.0  0.10270  0.17810  0.83520  1.0000 -0.1257273135
C   C77       1.0  0.83520  0.10270  0.17810  1.0000 -0.1257273135
C   C78       1.0  0.17810  0.83520  0.10270  1.0000 -0.1257273135
C   C79       1.0  0.60270  0.33520  0.67810  1.0000 -0.1257273135
C   C80       1.0  0.33520  0.67810  0.60270  1.0000 -0.1257273135
C   C81       1.0  0.67810  0.60270  0.33520  1.0000 -0.1257273135
C   C82       1.0  0.89730  0.82190  0.16480  1.0000 -0.1257273135
C   C83       1.0  0.16480  0.89730  0.82190  1.0000 -0.1257273135
C   C84       1.0  0.82190  0.16480  0.89730  1.0000 -0.1257273135
C   C85       1.0  0.54180  0.76360  0.34770  1.0000 -0.0824590747
C   C86       1.0  0.76360  0.34770  0.54180  1.0000 -0.0824590747
C   C87       1.0  0.34770  0.54180  0.76360  1.0000 -0.0824590747
C   C88       1.0  0.95820  0.15230  0.73640  1.0000 -0.0824590747
C   C89       1.0  0.73640  0.95820  0.15230  1.0000 -0.0824590747
C   C90       1.0  0.15230  0.73640  0.95820  1.0000 -0.0824590747
C   C91       1.0  0.45820  0.23640  0.65230  1.0000 -0.0824590747
C   C92       1.0  0.23640  0.65230  0.45820  1.0000 -0.0824590747
C   C93       1.0  0.65230  0.45820  0.23640  1.0000 -0.0824590747
C   C94       1.0  0.04180  0.84770  0.26360  1.0000 -0.0824590747
C   C95       1.0  0.26360  0.04180  0.84770  1.0000 -0.0824590747
C   C96       1.0  0.84770  0.26360  0.04180  1.0000 -0.0824590747
C   C97       1.0  0.31840  0.59090  0.26800  1.0000 -0.0990463663
C   C98       1.0  0.59090  0.26800  0.31840  1.0000 -0.0990463663
C   C99       1.0  0.26800  0.31840  0.59090  1.0000 -0.0990463663
C   C100      1.0  0.18160  0.23200  0.90910  1.0000 -0.0990463663
C   C101      1.0  0.90910  0.18160  0.23200  1.0000 -0.0990463663
C   C102      1.0  0.23200  0.90910  0.18160  1.0000 -0.0990463663
C   C103      1.0  0.68160  0.40910  0.73200  1.0000 -0.0990463663
C   C104      1.0  0.40910  0.73200  0.68160  1.0000 -0.0990463663
C   C105      1.0  0.73200  0.68160  0.40910  1.0000 -0.0990463663
C   C106      1.0  0.81840  0.76800  0.09090  1.0000 -0.0990463663
C   C107      1.0  0.09090  0.81840  0.76800  1.0000 -0.0990463663
C   C108      1.0  0.76800  0.09090  0.81840  1.0000 -0.0990463663
C   C109      1.0  0.66490  0.56710  0.11060  1.0000 0.5640354838
C   C110      1.0  0.56710  0.11060  0.66490  1.0000 0.5640354838
C   C111      1.0  0.11060  0.66490  0.56710  1.0000 0.5640354838
C   C112      1.0  0.83510  0.38940  0.93290  1.0000 0.5640354838
C   C113      1.0  0.93290  0.83510  0.38940  1.0000 0.5640354838
C   C114      1.0  0.38940  0.93290  0.83510  1.0000 0.5640354838
C   C115      1.0  0.33510  0.43290  0.88940  1.0000 0.5640354838
C   C116      1.0  0.43290  0.88940  0.33510  1.0000 0.5640354838
C   C117      1.0  0.88940  0.33510  0.43290  1.0000 0.5640354838
C   C118      1.0  0.16490  0.61060  0.06710  1.0000 0.5640354838
C   C119      1.0  0.06710  0.16490  0.61060  1.0000 0.5640354838
C   C120      1.0  0.61060  0.06710  0.16490  1.0000 0.5640354838
C   C121      1.0  0.76080  0.61270  0.18180  1.0000 -0.0161289901
C   C122      1.0  0.61270  0.18180  0.76080  1.0000 -0.0161289901
C   C123      1.0  0.18180  0.76080  0.61270  1.0000 -0.0161289901
C   C124      1.0  0.73920  0.31820  0.88730  1.0000 -0.0161289901
C   C125      1.0  0.88730  0.73920  0.31820  1.0000 -0.0161289901
C   C126      1.0  0.31820  0.88730  0.73920  1.0000 -0.0161289901
C   C127      1.0  0.23920  0.38730  0.81820  1.0000 -0.0161289901
C   C128      1.0  0.38730  0.81820  0.23920  1.0000 -0.0161289901
C   C129      1.0  0.81820  0.23920  0.38730  1.0000 -0.0161289901
C   C130      1.0  0.26080  0.68180  0.11270  1.0000 -0.0161289901
C   C131      1.0  0.11270  0.26080  0.68180  1.0000 -0.0161289901
C   C132      1.0  0.68180  0.11270  0.26080  1.0000 -0.0161289901
C   C133      1.0  0.80250  0.69750  0.25000  1.0000 -0.119475987
C   C134      1.0  0.69750  0.25000  0.80250  1.0000 -0.119475987
C   C135      1.0  0.25000  0.80250  0.69750  1.0000 -0.119475987
C   C136      1.0  0.19750  0.30250  0.75000  1.0000 -0.119475987
C   C137      1.0  0.30250  0.75000  0.19750  1.0000 -0.119475987
C   C138      1.0  0.75000  0.19750  0.30250  1.0000 -0.119475987
C   C139      1.0  0.80710  0.56810  0.18070  1.0000 -0.0990463663
C   C140      1.0  0.56810  0.18070  0.80710  1.0000 -0.0990463663
C   C141      1.0  0.18070  0.80710  0.56810  1.0000 -0.0990463663
C   C142      1.0  0.69290  0.31930  0.93190  1.0000 -0.0990463663
C   C143      1.0  0.93190  0.69290  0.31930  1.0000 -0.0990463663
C   C144      1.0  0.31930  0.93190  0.69290  1.0000 -0.0990463663
C   C145      1.0  0.19290  0.43190  0.81930  1.0000 -0.0990463663
C   C146      1.0  0.43190  0.81930  0.19290  1.0000 -0.0990463663
C   C147      1.0  0.81930  0.19290  0.43190  1.0000 -0.0990463663
C   C148      1.0  0.30710  0.68070  0.06810  1.0000 -0.0990463663
C   C149      1.0  0.06810  0.30710  0.68070  1.0000 -0.0990463663
C   C150      1.0  0.68070  0.06810  0.30710  1.0000 -0.0990463663
C   C151      1.0  0.89160  0.60840  0.25000  1.0000 -0.0824590747
C   C152      1.0  0.60840  0.25000  0.89160  1.0000 -0.0824590747
C   C153      1.0  0.25000  0.89160  0.60840  1.0000 -0.0824590747
C   C154      1.0  0.10840  0.39160  0.75000  1.0000 -0.0824590747
C   C155      1.0  0.39160  0.75000  0.10840  1.0000 -0.0824590747
C   C156      1.0  0.75000  0.10840  0.39160  1.0000 -0.0824590747
C   C157      1.0  0.54510  0.61780  0.95860  1.0000 0.5530541028
C   C158      1.0  0.61780  0.95860  0.54510  1.0000 0.5530541028
C   C159      1.0  0.95860  0.54510  0.61780  1.0000 0.5530541028
C   C160      1.0  0.95490  0.54140  0.88220  1.0000 0.5530541028
C   C161      1.0  0.88220  0.95490  0.54140  1.0000 0.5530541028
C   C162      1.0  0.54140  0.88220  0.95490  1.0000 0.5530541028
C   C163      1.0  0.45490  0.38220  0.04140  1.0000 0.5530541028
C   C164      1.0  0.38220  0.04140  0.45490  1.0000 0.5530541028
C   C165      1.0  0.04140  0.45490  0.38220  1.0000 0.5530541028
C   C166      1.0  0.04510  0.45860  0.11780  1.0000 0.5530541028
C   C167      1.0  0.11780  0.04510  0.45860  1.0000 0.5530541028
C   C168      1.0  0.45860  0.11780  0.04510  1.0000 0.5530541028
C   C169      1.0  0.56970  0.68570  0.93150  1.0000 -0.028498417
C   C170      1.0  0.68570  0.93150  0.56970  1.0000 -0.028498417
C   C171      1.0  0.93150  0.56970  0.68570  1.0000 -0.028498417
C   C172      1.0  0.93030  0.56850  0.81430  1.0000 -0.028498417
C   C173      1.0  0.81430  0.93030  0.56850  1.0000 -0.028498417
C   C174      1.0  0.56850  0.81430  0.93030  1.0000 -0.028498417
C   C175      1.0  0.43030  0.31430  0.06850  1.0000 -0.028498417
C   C176      1.0  0.31430  0.06850  0.43030  1.0000 -0.028498417
C   C177      1.0  0.06850  0.43030  0.31430  1.0000 -0.028498417
C   C178      1.0  0.06970  0.43150  0.18570  1.0000 -0.028498417
C   C179      1.0  0.18570  0.06970  0.43150  1.0000 -0.028498417
C   C180      1.0  0.43150  0.18570  0.06970  1.0000 -0.028498417
C   C181      1.0  0.61230  0.68440  0.88240  1.0000 -0.1086984576
C   C182      1.0  0.68440  0.88240  0.61230  1.0000 -0.1086984576
C   C183      1.0  0.88240  0.61230  0.68440  1.0000 -0.1086984576
C   C184      1.0  0.88770  0.61760  0.81560  1.0000 -0.1086984576
C   C185      1.0  0.81560  0.88770  0.61760  1.0000 -0.1086984576
C   C186      1.0  0.61760  0.81560  0.88770  1.0000 -0.1086984576
C   C187      1.0  0.38770  0.31560  0.11760  1.0000 -0.1086984576
C   C188      1.0  0.31560  0.11760  0.38770  1.0000 -0.1086984576
C   C189      1.0  0.11760  0.38770  0.31560  1.0000 -0.1086984576
C   C190      1.0  0.11230  0.38240  0.18440  1.0000 -0.1086984576
C   C191      1.0  0.18440  0.11230  0.38240  1.0000 -0.1086984576
C   C192      1.0  0.38240  0.18440  0.11230  1.0000 -0.1086984576
C   C193      1.0  0.54726  0.75000  0.95274  1.0000 -0.1360655441
C   C194      1.0  0.75000  0.95274  0.54726  1.0000 -0.1360655441
C   C195      1.0  0.95274  0.54726  0.75000  1.0000 -0.1360655441
C   C196      1.0  0.45274  0.25000  0.04726  1.0000 -0.1360655441
C   C197      1.0  0.25000  0.04726  0.45274  1.0000 -0.1360655441
C   C198      1.0  0.04726  0.45274  0.25000  1.0000 -0.1360655441
C   C199      1.0  0.63816  0.75000  0.86184  1.0000 -0.0990463663
C   C200      1.0  0.75000  0.86184  0.63816  1.0000 -0.0990463663
C   C201      1.0  0.86184  0.63816  0.75000  1.0000 -0.0990463663
C   C202      1.0  0.36184  0.25000  0.13816  1.0000 -0.0990463663
C   C203      1.0  0.25000  0.13816  0.36184  1.0000 -0.0990463663
C   C204      1.0  0.13816  0.36184  0.25000  1.0000 -0.0990463663
N   N1        1.0  0.49720  0.64480  0.17840  1.0000 -0.2932433897
N   N2        1.0  0.64480  0.17840  0.49720  1.0000 -0.2932433897
N   N3        1.0  0.17840  0.49720  0.64480  1.0000 -0.2932433897
N   N4        1.0  0.00280  0.32160  0.85520  1.0000 -0.2932433897
N   N5        1.0  0.85520  0.00280  0.32160  1.0000 -0.2932433897
N   N6        1.0  0.32160  0.85520  0.00280  1.0000 -0.2932433897
N   N7        1.0  0.50280  0.35520  0.82160  1.0000 -0.2932433897
N   N8        1.0  0.35520  0.82160  0.50280  1.0000 -0.2932433897
N   N9        1.0  0.82160  0.50280  0.35520  1.0000 -0.2932433897
N   N10       1.0  0.99720  0.67840  0.14480  1.0000 -0.2932433897
N   N11       1.0  0.14480  0.99720  0.67840  1.0000 -0.2932433897
N   N12       1.0  0.67840  0.14480  0.99720  1.0000 -0.2932433897
O   O1        1.0  0.61730  0.59410  0.13150  1.0000 -0.5341552063
O   O2        1.0  0.59410  0.13150  0.61730  1.0000 -0.5341552063
O   O3        1.0  0.13150  0.61730  0.59410  1.0000 -0.5341552063
O   O4        1.0  0.88270  0.36850  0.90590  1.0000 -0.5341552063
O   O5        1.0  0.90590  0.88270  0.36850  1.0000 -0.5341552063
O   O6        1.0  0.36850  0.90590  0.88270  1.0000 -0.5341552063
O   O7        1.0  0.38270  0.40590  0.86850  1.0000 -0.5341552063
O   O8        1.0  0.40590  0.86850  0.38270  1.0000 -0.5341552063
O   O9        1.0  0.86850  0.38270  0.40590  1.0000 -0.5341552063
O   O10       1.0  0.11730  0.63150  0.09410  1.0000 -0.5341552063
O   O11       1.0  0.09410  0.11730  0.63150  1.0000 -0.5341552063
O   O12       1.0  0.63150  0.09410  0.11730  1.0000 -0.5341552063
O   O13       1.0  0.52380  0.63500  0.01760  1.0000 -0.5085850571
O   O14       1.0  0.63500  0.01760  0.52380  1.0000 -0.5085850571
O   O15       1.0  0.01760  0.52380  0.63500  1.0000 -0.5085850571
O   O16       1.0  0.97620  0.48240  0.86500  1.0000 -0.5085850571
O   O17       1.0  0.86500  0.97620  0.48240  1.0000 -0.5085850571
O   O18       1.0  0.48240  0.86500  0.97620  1.0000 -0.5085850571
O   O19       1.0  0.47620  0.36500  0.98240  1.0000 -0.5085850571
O   O20       1.0  0.36500  0.98240  0.47620  1.0000 -0.5085850571
O   O21       1.0  0.98240  0.47620  0.36500  1.0000 -0.5085850571
O   O22       1.0  0.02380  0.51760  0.13500  1.0000 -0.5085850571
O   O23       1.0  0.13500  0.02380  0.51760  1.0000 -0.5085850571
O   O24       1.0  0.51760  0.13500  0.02380  1.0000 -0.5085850571
O   O25       1.0  0.54700  0.54790  0.92010  1.0000 -0.5210052246
O   O26       1.0  0.54790  0.92010  0.54700  1.0000 -0.5210052246
O   O27       1.0  0.92010  0.54700  0.54790  1.0000 -0.5210052246
O   O28       1.0  0.95300  0.57990  0.95210  1.0000 -0.5210052246
O   O29       1.0  0.95210  0.95300  0.57990  1.0000 -0.5210052246
O   O30       1.0  0.57990  0.95210  0.95300  1.0000 -0.5210052246
O   O31       1.0  0.45300  0.45210  0.07990  1.0000 -0.5210052246
O   O32       1.0  0.45210  0.07990  0.45300  1.0000 -0.5210052246
O   O33       1.0  0.07990  0.45300  0.45210  1.0000 -0.5210052246
O   O34       1.0  0.04700  0.42010  0.04790  1.0000 -0.5210052246
O   O35       1.0  0.04790  0.04700  0.42010  1.0000 -0.5210052246
O   O36       1.0  0.42010  0.04790  0.04700  1.0000 -0.5210052246
O   O37       1.0  0.63610  0.50360  0.03520  1.0000 -0.5085850571
O   O38       1.0  0.50360  0.03520  0.63610  1.0000 -0.5085850571
O   O39       1.0  0.03520  0.63610  0.50360  1.0000 -0.5085850571
O   O40       1.0  0.86390  0.46480  0.99640  1.0000 -0.5085850571
O   O41       1.0  0.99640  0.86390  0.46480  1.0000 -0.5085850571
O   O42       1.0  0.46480  0.99640  0.86390  1.0000 -0.5085850571
O   O43       1.0  0.36390  0.49640  0.96480  1.0000 -0.5085850571
O   O44       1.0  0.49640  0.96480  0.36390  1.0000 -0.5085850571
O   O45       1.0  0.96480  0.36390  0.49640  1.0000 -0.5085850571
O   O46       1.0  0.13610  0.53520  0.00360  1.0000 -0.5085850571
O   O47       1.0  0.00360  0.13610  0.53520  1.0000 -0.5085850571
O   O48       1.0  0.53520  0.00360  0.13610  1.0000 -0.5085850571
