# DDEC6 charges by PACMAN v1.1 (https://github.com/mtap-research/PACMAN-charge/)
data_2004[Cd][rob]3[ASR]1
_chemical_formula_sum              "Cd4 H48 C72 N16 O16"
_cell_length_a       13.9973
_cell_length_b       13.9973
_cell_length_c       13.983
_cell_angle_alpha    75.7356
_cell_angle_beta     104.264
_cell_angle_gamma    132.767

_symmetry_space_group_name_H-M    "P 1"
_symmetry_Int_Tables_number       1

loop_
  _symmetry_equiv_pos_as_xyz
  'x, y, z'

loop_
  _atom_site_type_symbol
  _atom_site_label
  _atom_site_symmetry_multiplicity
  _atom_site_fract_x
  _atom_site_fract_y
  _atom_site_fract_z
  _atom_site_occupancy
  _atom_site_charge
Cd  Cd1       1.0  0.54536  0.09684  0.36723  1.0000 0.8221052237
Cd  Cd2       1.0  0.09684  0.54536  0.13277  1.0000 0.8221052237
Cd  Cd3       1.0  0.45464  0.90316  0.63277  1.0000 0.8221052237
Cd  Cd4       1.0  0.90316  0.45464  0.86723  1.0000 0.8221052237
H   H1        1.0  0.57100  0.21200  0.78330  1.0000 0.1214001331
H   H2        1.0  0.21200  0.57100  0.71670  1.0000 0.1214001331
H   H3        1.0  0.42900  0.78800  0.21670  1.0000 0.1214001331
H   H4        1.0  0.78800  0.42900  0.28330  1.0000 0.1214001331
H   H5        1.0  0.37060  0.04900  0.84350  1.0000 0.1026127706
H   H6        1.0  0.04900  0.37060  0.65650  1.0000 0.1026127706
H   H7        1.0  0.62940  0.95100  0.15650  1.0000 0.1026127706
H   H8        1.0  0.95100  0.62940  0.34350  1.0000 0.1026127706
H   H9        1.0  0.23050  0.91170  0.37030  1.0000 0.1026127706
H   H10       1.0  0.91170  0.23050  0.12970  1.0000 0.1026127706
H   H11       1.0  0.76950  0.08830  0.62970  1.0000 0.1026127706
H   H12       1.0  0.08830  0.76950  0.87030  1.0000 0.1026127706
H   H13       1.0  0.07160  0.91520  0.38130  1.0000 0.1214001331
H   H14       1.0  0.91520  0.07160  0.11870  1.0000 0.1214001331
H   H15       1.0  0.92840  0.08480  0.61870  1.0000 0.1214001331
H   H16       1.0  0.08480  0.92840  0.88130  1.0000 0.1214001331
H   H17       1.0  0.34970  0.30950  0.36910  1.0000 0.1309075005
H   H18       1.0  0.30950  0.34970  0.13090  1.0000 0.1309075005
H   H19       1.0  0.65030  0.69050  0.63090  1.0000 0.1309075005
H   H20       1.0  0.69050  0.65030  0.86910  1.0000 0.1309075005
H   H21       1.0  0.50170  0.29250  0.36110  1.0000 0.1026127706
H   H22       1.0  0.29250  0.50170  0.13890  1.0000 0.1026127706
H   H23       1.0  0.49830  0.70750  0.63890  1.0000 0.1026127706
H   H24       1.0  0.70750  0.49830  0.86110  1.0000 0.1026127706
H   H25       1.0  0.70940  0.85040  0.37590  1.0000 0.1309075005
H   H26       1.0  0.85040  0.70940  0.12410  1.0000 0.1309075005
H   H27       1.0  0.29060  0.14960  0.62410  1.0000 0.1309075005
H   H28       1.0  0.14960  0.29060  0.87590  1.0000 0.1309075005
H   H29       1.0  0.56890  0.88550  0.37360  1.0000 0.1026127706
H   H30       1.0  0.88550  0.56890  0.12640  1.0000 0.1026127706
H   H31       1.0  0.43110  0.11450  0.62640  1.0000 0.1026127706
H   H32       1.0  0.11450  0.43110  0.87360  1.0000 0.1026127706
H   H33       1.0  0.85790  0.26570  0.37180  1.0000 0.1026127706
H   H34       1.0  0.26570  0.85790  0.12820  1.0000 0.1026127706
H   H35       1.0  0.14210  0.73430  0.62820  1.0000 0.1026127706
H   H36       1.0  0.73430  0.14210  0.87180  1.0000 0.1026127706
H   H37       1.0  0.00720  0.24380  0.37200  1.0000 0.1309075005
H   H38       1.0  0.24380  0.00720  0.12800  1.0000 0.1309075005
H   H39       1.0  0.99280  0.75620  0.62800  1.0000 0.1309075005
H   H40       1.0  0.75620  0.99280  0.87200  1.0000 0.1309075005
H   H41       1.0  0.13660  0.21200  0.37660  1.0000 0.1214001331
H   H42       1.0  0.21200  0.13660  0.12340  1.0000 0.1214001331
H   H43       1.0  0.86340  0.78800  0.62340  1.0000 0.1214001331
H   H44       1.0  0.78800  0.86340  0.87660  1.0000 0.1214001331
H   H45       1.0  0.93620  0.94200  0.38040  1.0000 0.1109274077
H   H46       1.0  0.94200  0.93620  0.11960  1.0000 0.1109274077
H   H47       1.0  0.06380  0.05800  0.61960  1.0000 0.1109274077
H   H48       1.0  0.05800  0.06380  0.88040  1.0000 0.1109274077
C   C1        1.0  0.54010  0.17190  0.04120  1.0000 0.0619887509
C   C2        1.0  0.17190  0.54010  0.45880  1.0000 0.0619887509
C   C3        1.0  0.45990  0.82810  0.95880  1.0000 0.0619887509
C   C4        1.0  0.82810  0.45990  0.54120  1.0000 0.0619887509
C   C5        1.0  0.66370  0.26030  0.01040  1.0000 0.0385931101
C   C6        1.0  0.26030  0.66370  0.48960  1.0000 0.0385931101
C   C7        1.0  0.33630  0.73970  0.98960  1.0000 0.0385931101
C   C8        1.0  0.73970  0.33630  0.51040  1.0000 0.0385931101
C   C9        1.0  0.56610  0.19990  0.85200  1.0000 0.0203590267
C   C10       1.0  0.19990  0.56610  0.64800  1.0000 0.0203590267
C   C11       1.0  0.43390  0.80010  0.14800  1.0000 0.0203590267
C   C12       1.0  0.80010  0.43390  0.35200  1.0000 0.0203590267
C   C13       1.0  0.44530  0.10470  0.88800  1.0000 0.0385931101
C   C14       1.0  0.10470  0.44530  0.61200  1.0000 0.0385931101
C   C15       1.0  0.55470  0.89530  0.11200  1.0000 0.0385931101
C   C16       1.0  0.89530  0.55470  0.38800  1.0000 0.0385931101
C   C17       1.0  0.52150  0.16050  0.14600  1.0000 0.5210387655
C   C18       1.0  0.16050  0.52150  0.35400  1.0000 0.5210387655
C   C19       1.0  0.47850  0.83950  0.85400  1.0000 0.5210387655
C   C20       1.0  0.83950  0.47850  0.64600  1.0000 0.5210387655
C   C21       1.0  0.78640  0.33360  0.08300  1.0000 0.5091180749
C   C22       1.0  0.33360  0.78640  0.41700  1.0000 0.5091180749
C   C23       1.0  0.21360  0.66640  0.91700  1.0000 0.5091180749
C   C24       1.0  0.66640  0.21360  0.58300  1.0000 0.5091180749
C   C25       1.0  0.25570  0.99430  0.37050  1.0000 0.0654135145
C   C26       1.0  0.99430  0.25570  0.12950  1.0000 0.0654135145
C   C27       1.0  0.74430  0.00570  0.62950  1.0000 0.0654135145
C   C28       1.0  0.00570  0.74430  0.87050  1.0000 0.0654135145
C   C29       1.0  0.15930  0.99470  0.37700  1.0000 -0.1918490134
C   C30       1.0  0.99470  0.15930  0.12300  1.0000 -0.1918490134
C   C31       1.0  0.84070  0.00530  0.62300  1.0000 -0.1918490134
C   C32       1.0  0.00530  0.84070  0.87700  1.0000 -0.1918490134
C   C33       1.0  0.19230  0.11170  0.37800  1.0000 0.137821684
C   C34       1.0  0.11170  0.19230  0.12200  1.0000 0.137821684
C   C35       1.0  0.80770  0.88830  0.62200  1.0000 0.137821684
C   C36       1.0  0.88830  0.80770  0.87800  1.0000 0.137821684
C   C37       1.0  0.32240  0.22560  0.37000  1.0000 -0.2036441095
C   C38       1.0  0.22560  0.32240  0.13000  1.0000 -0.2036441095
C   C39       1.0  0.67760  0.77440  0.63000  1.0000 -0.2036441095
C   C40       1.0  0.77440  0.67760  0.87000  1.0000 -0.2036441095
C   C41       1.0  0.41310  0.21490  0.36500  1.0000 0.0883234091
C   C42       1.0  0.21490  0.41310  0.13500  1.0000 0.0883234091
C   C43       1.0  0.58690  0.78510  0.63500  1.0000 0.0883234091
C   C44       1.0  0.78510  0.58690  0.86500  1.0000 0.0883234091
C   C45       1.0  0.87620  0.04780  0.37540  1.0000 0.1468512811
C   C46       1.0  0.04780  0.87620  0.12460  1.0000 0.1468512811
C   C47       1.0  0.12380  0.95220  0.62460  1.0000 0.1468512811
C   C48       1.0  0.95220  0.12380  0.87540  1.0000 0.1468512811
C   C49       1.0  0.74170  0.93630  0.37500  1.0000 -0.206055706
C   C50       1.0  0.93630  0.74170  0.12500  1.0000 -0.206055706
C   C51       1.0  0.25830  0.06370  0.62500  1.0000 -0.206055706
C   C52       1.0  0.06370  0.25830  0.87500  1.0000 -0.206055706
C   C53       1.0  0.65980  0.95820  0.37370  1.0000 0.0654135145
C   C54       1.0  0.95820  0.65980  0.12630  1.0000 0.0654135145
C   C55       1.0  0.34020  0.04180  0.62630  1.0000 0.0654135145
C   C56       1.0  0.04180  0.34020  0.87370  1.0000 0.0654135145
C   C57       1.0  0.82850  0.18150  0.37200  1.0000 0.1109274077
C   C58       1.0  0.18150  0.82850  0.12800  1.0000 0.1026127706
C   C59       1.0  0.17150  0.81850  0.62800  1.0000 0.1026127706
C   C60       1.0  0.81850  0.17150  0.87200  1.0000 0.1109274077
C   C61       1.0  0.91730  0.16870  0.37300  1.0000 -0.1918490134
C   C62       1.0  0.16870  0.91730  0.12700  1.0000 -0.1918490134
C   C63       1.0  0.08270  0.83130  0.62700  1.0000 -0.1918490134
C   C64       1.0  0.83130  0.08270  0.87300  1.0000 -0.1918490134
C   C65       1.0  0.10230  0.12570  0.37700  1.0000 -0.1519199959
C   C66       1.0  0.12570  0.10230  0.12300  1.0000 -0.1519199959
C   C67       1.0  0.89770  0.87430  0.62300  1.0000 -0.1519199959
C   C68       1.0  0.87430  0.89770  0.87700  1.0000 -0.1519199959
C   C69       1.0  0.97120  0.02880  0.37800  1.0000 -0.1519199959
C   C70       1.0  0.02880  0.97120  0.12200  1.0000 -0.1519199959
C   C71       1.0  0.02880  0.97120  0.62200  1.0000 -0.1519199959
C   C72       1.0  0.97120  0.02880  0.87800  1.0000 -0.1519199959
N   N1        1.0  0.43060  0.08940  0.98290  1.0000 -0.2410706706
N   N2        1.0  0.08940  0.43060  0.51710  1.0000 -0.2410706706
N   N3        1.0  0.56940  0.91060  0.01710  1.0000 -0.2410706706
N   N4        1.0  0.91060  0.56940  0.48290  1.0000 -0.2410706706
N   N5        1.0  0.67880  0.27680  0.91430  1.0000 -0.2410706706
N   N6        1.0  0.27680  0.67880  0.58570  1.0000 -0.2410706706
N   N7        1.0  0.32120  0.72320  0.08570  1.0000 -0.2410706706
N   N8        1.0  0.72320  0.32120  0.41430  1.0000 -0.2410706706
N   N9        1.0  0.38220  0.10180  0.36430  1.0000 -0.2410706706
N   N10       1.0  0.10180  0.38220  0.13570  1.0000 -0.2410706706
N   N11       1.0  0.61780  0.89820  0.63570  1.0000 -0.2410706706
N   N12       1.0  0.89820  0.61780  0.86430  1.0000 -0.2410706706
N   N13       1.0  0.70240  0.07840  0.37240  1.0000 -0.229780288
N   N14       1.0  0.07840  0.70240  0.12760  1.0000 -0.229780288
N   N15       1.0  0.29760  0.92160  0.62760  1.0000 -0.229780288
N   N16       1.0  0.92160  0.29760  0.87240  1.0000 -0.229780288
O   O1        1.0  0.50560  0.07040  0.20510  1.0000 -0.5035325937
O   O2        1.0  0.07040  0.50560  0.29490  1.0000 -0.5035325937
O   O3        1.0  0.49440  0.92960  0.79490  1.0000 -0.5035325937
O   O4        1.0  0.92960  0.49440  0.70510  1.0000 -0.5035325937
O   O5        1.0  0.52270  0.23930  0.16700  1.0000 -0.5035325937
O   O6        1.0  0.23930  0.52270  0.33300  1.0000 -0.5035325937
O   O7        1.0  0.47730  0.76070  0.83300  1.0000 -0.5035325937
O   O8        1.0  0.76070  0.47730  0.66700  1.0000 -0.5035325937
O   O9        1.0  0.77740  0.31660  0.16630  1.0000 -0.4272556357
O   O10       1.0  0.31660  0.77740  0.33370  1.0000 -0.4272556357
O   O11       1.0  0.22260  0.68340  0.83370  1.0000 -0.4272556357
O   O12       1.0  0.68340  0.22260  0.66630  1.0000 -0.4272556357
O   O13       1.0  0.89130  0.41650  0.04360  1.0000 -0.5187527589
O   O14       1.0  0.41650  0.89130  0.45640  1.0000 -0.5187527589
O   O15       1.0  0.10870  0.58350  0.95640  1.0000 -0.5187527589
O   O16       1.0  0.58350  0.10870  0.54360  1.0000 -0.5187527589
