# DDEC6 charges by PACMAN v1.1 (https://github.com/mtap-research/PACMAN-charge/)
data_2004[Cu][sqc]3[ASR]1
_chemical_formula_sum              "Cu12 H72 C96 N48 O24"
_cell_length_a       15.7217
_cell_length_b       15.7217
_cell_length_c       15.7217
_cell_angle_alpha    94.2344
_cell_angle_beta     94.2344
_cell_angle_gamma    94.2344

_symmetry_space_group_name_H-M    "P 1"
_symmetry_Int_Tables_number       1

loop_
  _symmetry_equiv_pos_as_xyz
  'x, y, z'

loop_
  _atom_site_type_symbol
  _atom_site_label
  _atom_site_symmetry_multiplicity
  _atom_site_fract_x
  _atom_site_fract_y
  _atom_site_fract_z
  _atom_site_occupancy
  _atom_site_charge
Cu  Cu1       1.0  0.73253  0.26747  0.50000  1.0000 0.7399357395
Cu  Cu2       1.0  0.26747  0.50000  0.73253  1.0000 0.7399357395
Cu  Cu3       1.0  0.50000  0.73253  0.26747  1.0000 0.7399357395
Cu  Cu4       1.0  0.26747  0.73253  0.50000  1.0000 0.7399357395
Cu  Cu5       1.0  0.73253  0.50000  0.26747  1.0000 0.7399357395
Cu  Cu6       1.0  0.50000  0.26747  0.73253  1.0000 0.7399357395
Cu  Cu7       1.0  0.00000  0.24654  0.75346  1.0000 0.7399357395
Cu  Cu8       1.0  0.24654  0.75346  0.00000  1.0000 0.7399357395
Cu  Cu9       1.0  0.75346  0.00000  0.24654  1.0000 0.7345972496
Cu  Cu10      1.0  0.00000  0.75346  0.24654  1.0000 0.7345972496
Cu  Cu11      1.0  0.75346  0.24654  0.00000  1.0000 0.7399357395
Cu  Cu12      1.0  0.24654  0.00000  0.75346  1.0000 0.7345972496
H   H1        1.0  0.05585  0.23250  0.56941  1.0000 0.1225264806
H   H2        1.0  0.94415  0.43059  0.76750  1.0000 0.1225264806
H   H3        1.0  0.23250  0.56941  0.05585  1.0000 0.1225264806
H   H4        1.0  0.56941  0.05585  0.23250  1.0000 0.1225264806
H   H5        1.0  0.43059  0.76750  0.94415  1.0000 0.1225264806
H   H6        1.0  0.76750  0.94415  0.43059  1.0000 0.1225264806
H   H7        1.0  0.94415  0.76750  0.43059  1.0000 0.1225264806
H   H8        1.0  0.05585  0.56941  0.23250  1.0000 0.1225264806
H   H9        1.0  0.76750  0.43059  0.94415  1.0000 0.1225264806
H   H10       1.0  0.43059  0.94415  0.76750  1.0000 0.1225264806
H   H11       1.0  0.56941  0.23250  0.05585  1.0000 0.1225264806
H   H12       1.0  0.23250  0.05585  0.56941  1.0000 0.1225264806
H   H13       1.0  0.77574  0.45893  0.59950  1.0000 0.1225264806
H   H14       1.0  0.22426  0.40050  0.54107  1.0000 0.1225264806
H   H15       1.0  0.45893  0.59950  0.77574  1.0000 0.1225264806
H   H16       1.0  0.59950  0.77574  0.45893  1.0000 0.1225264806
H   H17       1.0  0.40050  0.54107  0.22426  1.0000 0.1225264806
H   H18       1.0  0.54107  0.22426  0.40050  1.0000 0.1225264806
H   H19       1.0  0.22426  0.54107  0.40050  1.0000 0.1225264806
H   H20       1.0  0.77574  0.59950  0.45893  1.0000 0.1225264806
H   H21       1.0  0.54107  0.40050  0.22426  1.0000 0.1225264806
H   H22       1.0  0.40050  0.22426  0.54107  1.0000 0.1225264806
H   H23       1.0  0.59950  0.45893  0.77574  1.0000 0.1225264806
H   H24       1.0  0.45893  0.77574  0.59950  1.0000 0.1225264806
H   H25       1.0  0.85055  0.50409  0.85066  1.0000 0.138239139
H   H26       1.0  0.14945  0.14934  0.49591  1.0000 0.138239139
H   H27       1.0  0.50409  0.85066  0.85055  1.0000 0.138239139
H   H28       1.0  0.85066  0.85055  0.50409  1.0000 0.138239139
H   H29       1.0  0.14934  0.49591  0.14945  1.0000 0.138239139
H   H30       1.0  0.49591  0.14945  0.14934  1.0000 0.138239139
H   H31       1.0  0.47147  0.28676  0.28619  1.0000 0.138239139
H   H32       1.0  0.52853  0.71381  0.71324  1.0000 0.138239139
H   H33       1.0  0.28676  0.28619  0.47147  1.0000 0.138239139
H   H34       1.0  0.28619  0.47147  0.28676  1.0000 0.138239139
H   H35       1.0  0.71381  0.71324  0.52853  1.0000 0.138239139
H   H36       1.0  0.71324  0.52853  0.71381  1.0000 0.138239139
H   H37       1.0  0.90444  0.09625  0.76052  1.0000 0.1225264806
H   H38       1.0  0.09556  0.23948  0.90375  1.0000 0.1225264806
H   H39       1.0  0.09625  0.76052  0.90444  1.0000 0.1225264806
H   H40       1.0  0.76052  0.90444  0.09625  1.0000 0.1225264806
H   H41       1.0  0.23948  0.90375  0.09556  1.0000 0.1225264806
H   H42       1.0  0.90375  0.09556  0.23948  1.0000 0.1225264806
H   H43       1.0  0.09556  0.90375  0.23948  1.0000 0.1225264806
H   H44       1.0  0.90444  0.76052  0.09625  1.0000 0.1225264806
H   H45       1.0  0.90375  0.23948  0.09556  1.0000 0.1225264806
H   H46       1.0  0.23948  0.09556  0.90375  1.0000 0.1225264806
H   H47       1.0  0.76052  0.09625  0.90444  1.0000 0.1225264806
H   H48       1.0  0.09625  0.90444  0.76052  1.0000 0.1225264806
H   H49       1.0  0.72020  0.08338  0.56298  1.0000 0.1225264806
H   H50       1.0  0.27980  0.43702  0.91662  1.0000 0.1225264806
H   H51       1.0  0.08338  0.56298  0.72020  1.0000 0.1225264806
H   H52       1.0  0.56298  0.72020  0.08338  1.0000 0.1225264806
H   H53       1.0  0.43702  0.91662  0.27980  1.0000 0.1225264806
H   H54       1.0  0.91662  0.27980  0.43702  1.0000 0.1225264806
H   H55       1.0  0.27980  0.91662  0.43702  1.0000 0.1225264806
H   H56       1.0  0.72020  0.56298  0.08338  1.0000 0.1225264806
H   H57       1.0  0.91662  0.43702  0.27980  1.0000 0.1225264806
H   H58       1.0  0.43702  0.27980  0.91662  1.0000 0.1225264806
H   H59       1.0  0.56298  0.08338  0.72020  1.0000 0.1225264806
H   H60       1.0  0.08338  0.72020  0.56298  1.0000 0.1225264806
H   H61       1.0  0.78710  0.02160  0.67930  1.0000 0.138239139
H   H62       1.0  0.21290  0.32070  0.97840  1.0000 0.138239139
H   H63       1.0  0.02160  0.67930  0.78710  1.0000 0.138239139
H   H64       1.0  0.67930  0.78710  0.02160  1.0000 0.138239139
H   H65       1.0  0.32070  0.97840  0.21290  1.0000 0.138239139
H   H66       1.0  0.97840  0.21290  0.32070  1.0000 0.138239139
H   H67       1.0  0.21290  0.97840  0.32070  1.0000 0.138239139
H   H68       1.0  0.78710  0.67930  0.02160  1.0000 0.138239139
H   H69       1.0  0.97840  0.32070  0.21290  1.0000 0.138239139
H   H70       1.0  0.32070  0.21290  0.97840  1.0000 0.138239139
H   H71       1.0  0.67930  0.02160  0.78710  1.0000 0.138239139
H   H72       1.0  0.02160  0.78710  0.67930  1.0000 0.138239139
C   C1        1.0  0.08936  0.19463  0.59921  1.0000 0.1225264806
C   C2        1.0  0.91064  0.40079  0.80537  1.0000 0.1225264806
C   C3        1.0  0.19463  0.59921  0.08936  1.0000 0.1225264806
C   C4        1.0  0.59921  0.08936  0.19463  1.0000 0.1225264806
C   C5        1.0  0.40079  0.80537  0.91064  1.0000 0.1225264806
C   C6        1.0  0.80537  0.91064  0.40079  1.0000 0.1225264806
C   C7        1.0  0.91064  0.80537  0.40079  1.0000 0.1225264806
C   C8        1.0  0.08936  0.59921  0.19463  1.0000 0.1225264806
C   C9        1.0  0.80537  0.40079  0.91064  1.0000 0.1225264806
C   C10       1.0  0.40079  0.91064  0.80537  1.0000 0.1225264806
C   C11       1.0  0.59921  0.19463  0.08936  1.0000 0.1225264806
C   C12       1.0  0.19463  0.08936  0.59921  1.0000 0.1225264806
C   C13       1.0  0.72928  0.43076  0.62439  1.0000 0.1311047114
C   C14       1.0  0.27072  0.37561  0.56924  1.0000 0.1311047114
C   C15       1.0  0.43076  0.62439  0.72928  1.0000 0.1311047114
C   C16       1.0  0.62439  0.72928  0.43076  1.0000 0.1311047114
C   C17       1.0  0.37561  0.56924  0.27072  1.0000 0.1311047114
C   C18       1.0  0.56924  0.27072  0.37561  1.0000 0.1311047114
C   C19       1.0  0.27072  0.56924  0.37561  1.0000 0.1311047114
C   C20       1.0  0.72928  0.62439  0.43076  1.0000 0.1311047114
C   C21       1.0  0.56924  0.37561  0.27072  1.0000 0.1311047114
C   C22       1.0  0.37561  0.27072  0.56924  1.0000 0.1311047114
C   C23       1.0  0.62439  0.43076  0.72928  1.0000 0.1311047114
C   C24       1.0  0.43076  0.72928  0.62439  1.0000 0.1311047114
C   C25       1.0  0.86761  0.26920  0.86743  1.0000 0.5975863097
C   C26       1.0  0.13239  0.13257  0.73080  1.0000 0.5975863097
C   C27       1.0  0.26920  0.86743  0.86761  1.0000 0.5975863097
C   C28       1.0  0.86743  0.86761  0.26920  1.0000 0.5975863097
C   C29       1.0  0.13257  0.73080  0.13239  1.0000 0.5975863097
C   C30       1.0  0.73080  0.13239  0.13257  1.0000 0.5975863097
C   C31       1.0  0.85491  0.44456  0.85489  1.0000 -0.2307382289
C   C32       1.0  0.14509  0.14511  0.55544  1.0000 -0.2307382289
C   C33       1.0  0.44456  0.85489  0.85491  1.0000 -0.2307382289
C   C34       1.0  0.85489  0.85491  0.44456  1.0000 -0.2307382289
C   C35       1.0  0.14511  0.55544  0.14509  1.0000 -0.2307382289
C   C36       1.0  0.55544  0.14509  0.14511  1.0000 -0.2307382289
C   C37       1.0  0.69363  0.37034  0.37030  1.0000 0.5975863097
C   C38       1.0  0.30637  0.62970  0.62966  1.0000 0.5975863097
C   C39       1.0  0.37034  0.37030  0.69363  1.0000 0.5975863097
C   C40       1.0  0.37030  0.69363  0.37034  1.0000 0.5975863097
C   C41       1.0  0.62970  0.62966  0.30637  1.0000 0.5975863097
C   C42       1.0  0.62966  0.30637  0.62970  1.0000 0.5975863097
C   C43       1.0  0.52777  0.30795  0.30749  1.0000 -0.2465485298
C   C44       1.0  0.47223  0.69251  0.69205  1.0000 -0.2465485298
C   C45       1.0  0.30795  0.30749  0.52777  1.0000 -0.2465485298
C   C46       1.0  0.30749  0.52777  0.30795  1.0000 -0.2465485298
C   C47       1.0  0.69251  0.69205  0.47223  1.0000 -0.2465485298
C   C48       1.0  0.69205  0.47223  0.69251  1.0000 -0.2465485298
C   C49       1.0  0.87739  0.12122  0.71349  1.0000 0.1068206976
C   C50       1.0  0.12261  0.28651  0.87878  1.0000 0.1068206976
C   C51       1.0  0.12122  0.71349  0.87739  1.0000 0.1068206976
C   C52       1.0  0.71349  0.87739  0.12122  1.0000 0.1068206976
C   C53       1.0  0.28651  0.87878  0.12261  1.0000 0.1068206976
C   C54       1.0  0.87878  0.12261  0.28651  1.0000 0.1068206976
C   C55       1.0  0.12261  0.87878  0.28651  1.0000 0.1068206976
C   C56       1.0  0.87739  0.71349  0.12122  1.0000 0.1068206976
C   C57       1.0  0.87878  0.28651  0.12261  1.0000 0.1068206976
C   C58       1.0  0.28651  0.12261  0.87878  1.0000 0.1068206976
C   C59       1.0  0.71349  0.12122  0.87739  1.0000 0.1068206976
C   C60       1.0  0.12122  0.87739  0.71349  1.0000 0.1068206976
C   C61       1.0  0.76765  0.11358  0.59582  1.0000 0.1311047114
C   C62       1.0  0.23235  0.40418  0.88642  1.0000 0.1311047114
C   C63       1.0  0.11358  0.59582  0.76765  1.0000 0.1311047114
C   C64       1.0  0.59582  0.76765  0.11358  1.0000 0.1311047114
C   C65       1.0  0.40418  0.88642  0.23235  1.0000 0.1311047114
C   C66       1.0  0.88642  0.23235  0.40418  1.0000 0.1311047114
C   C67       1.0  0.23235  0.88642  0.40418  1.0000 0.1311047114
C   C68       1.0  0.76765  0.59582  0.11358  1.0000 0.1311047114
C   C69       1.0  0.88642  0.40418  0.23235  1.0000 0.1311047114
C   C70       1.0  0.40418  0.23235  0.88642  1.0000 0.1311047114
C   C71       1.0  0.59582  0.11358  0.76765  1.0000 0.1311047114
C   C72       1.0  0.11358  0.76765  0.59582  1.0000 0.1311047114
C   C73       1.0  0.86758  0.23929  0.62329  1.0000 0.5975863097
C   C74       1.0  0.13242  0.37671  0.76071  1.0000 0.5948370335
C   C75       1.0  0.23929  0.62329  0.86758  1.0000 0.5948370335
C   C76       1.0  0.62329  0.86758  0.23929  1.0000 0.5975863097
C   C77       1.0  0.37671  0.76071  0.13242  1.0000 0.5948370335
C   C78       1.0  0.76071  0.13242  0.37671  1.0000 0.5975863097
C   C79       1.0  0.13242  0.76071  0.37671  1.0000 0.5975863097
C   C80       1.0  0.86758  0.62329  0.23929  1.0000 0.5975863097
C   C81       1.0  0.76071  0.37671  0.13242  1.0000 0.5975863097
C   C82       1.0  0.37671  0.13242  0.76071  1.0000 0.5975863097
C   C83       1.0  0.62329  0.23929  0.86758  1.0000 0.5975863097
C   C84       1.0  0.23929  0.86758  0.62329  1.0000 0.5948370335
C   C85       1.0  0.80750  0.07677  0.66511  1.0000 -0.2307382289
C   C86       1.0  0.19250  0.33489  0.92323  1.0000 -0.2307382289
C   C87       1.0  0.07677  0.66511  0.80750  1.0000 -0.2307382289
C   C88       1.0  0.66511  0.80750  0.07677  1.0000 -0.2307382289
C   C89       1.0  0.33489  0.92323  0.19250  1.0000 -0.2307382289
C   C90       1.0  0.92323  0.19250  0.33489  1.0000 -0.2307382289
C   C91       1.0  0.19250  0.92323  0.33489  1.0000 -0.2307382289
C   C92       1.0  0.80750  0.66511  0.07677  1.0000 -0.2307382289
C   C93       1.0  0.92323  0.33489  0.19250  1.0000 -0.2307382289
C   C94       1.0  0.33489  0.19250  0.92323  1.0000 -0.2307382289
C   C95       1.0  0.66511  0.07677  0.80750  1.0000 -0.2307382289
C   C96       1.0  0.07677  0.80750  0.66511  1.0000 -0.2307382289
N   N1        1.0  0.18814  0.08303  0.68703  1.0000 -0.3934529287
N   N2        1.0  0.81186  0.31297  0.91697  1.0000 -0.3934529287
N   N3        1.0  0.08303  0.68703  0.18814  1.0000 -0.3934529287
N   N4        1.0  0.68703  0.18814  0.08303  1.0000 -0.3934529287
N   N5        1.0  0.31297  0.91697  0.81186  1.0000 -0.3934529287
N   N6        1.0  0.91697  0.81186  0.31297  1.0000 -0.3934529287
N   N7        1.0  0.81186  0.91697  0.31297  1.0000 -0.3934529287
N   N8        1.0  0.18814  0.68703  0.08303  1.0000 -0.3934529287
N   N9        1.0  0.91697  0.31297  0.81186  1.0000 -0.3934529287
N   N10       1.0  0.31297  0.81186  0.91697  1.0000 -0.3934529287
N   N11       1.0  0.68703  0.08303  0.18814  1.0000 -0.3934529287
N   N12       1.0  0.08303  0.18814  0.68703  1.0000 -0.3934529287
N   N13       1.0  0.69808  0.34783  0.59299  1.0000 -0.3978536216
N   N14       1.0  0.30192  0.40701  0.65217  1.0000 -0.3978536216
N   N15       1.0  0.34783  0.59299  0.69808  1.0000 -0.3978536216
N   N16       1.0  0.59299  0.69808  0.34783  1.0000 -0.3978536216
N   N17       1.0  0.40701  0.65217  0.30192  1.0000 -0.3978536216
N   N18       1.0  0.65217  0.30192  0.40701  1.0000 -0.3978536216
N   N19       1.0  0.30192  0.65217  0.40701  1.0000 -0.3978536216
N   N20       1.0  0.69808  0.59299  0.34783  1.0000 -0.3978536216
N   N21       1.0  0.65217  0.40701  0.30192  1.0000 -0.3978536216
N   N22       1.0  0.40701  0.30192  0.65217  1.0000 -0.3978536216
N   N23       1.0  0.59299  0.34783  0.69808  1.0000 -0.3978536216
N   N24       1.0  0.34783  0.69808  0.59299  1.0000 -0.3978536216
N   N25       1.0  0.79769  0.19484  0.57491  1.0000 -0.4068022681
N   N26       1.0  0.20231  0.42509  0.80516  1.0000 -0.4068022681
N   N27       1.0  0.19484  0.57491  0.79769  1.0000 -0.4068022681
N   N28       1.0  0.57491  0.79769  0.19484  1.0000 -0.4068022681
N   N29       1.0  0.42509  0.80516  0.20231  1.0000 -0.4068022681
N   N30       1.0  0.80516  0.20231  0.42509  1.0000 -0.4068022681
N   N31       1.0  0.20231  0.80516  0.42509  1.0000 -0.4068022681
N   N32       1.0  0.79769  0.57491  0.19484  1.0000 -0.4068022681
N   N33       1.0  0.80516  0.42509  0.20231  1.0000 -0.4068022681
N   N34       1.0  0.42509  0.20231  0.80516  1.0000 -0.4068022681
N   N35       1.0  0.57491  0.19484  0.79769  1.0000 -0.4068022681
N   N36       1.0  0.19484  0.79769  0.57491  1.0000 -0.4068022681
N   N37       1.0  0.90743  0.20248  0.69258  1.0000 -0.3823535331
N   N38       1.0  0.09257  0.30742  0.79752  1.0000 -0.3823535331
N   N39       1.0  0.20248  0.69258  0.90743  1.0000 -0.3823535331
N   N40       1.0  0.69258  0.90743  0.20248  1.0000 -0.3823535331
N   N41       1.0  0.30742  0.79752  0.09257  1.0000 -0.3823535331
N   N42       1.0  0.79752  0.09257  0.30742  1.0000 -0.3823535331
N   N43       1.0  0.09257  0.79752  0.30742  1.0000 -0.3823535331
N   N44       1.0  0.90743  0.69258  0.20248  1.0000 -0.3823535331
N   N45       1.0  0.79752  0.30742  0.09257  1.0000 -0.3823535331
N   N46       1.0  0.30742  0.09257  0.79752  1.0000 -0.3823535331
N   N47       1.0  0.69258  0.20248  0.90743  1.0000 -0.3823535331
N   N48       1.0  0.20248  0.90743  0.69258  1.0000 -0.3823535331
O   O1        1.0  0.87302  0.19086  0.87331  1.0000 -0.5660001082
O   O2        1.0  0.12698  0.12669  0.80914  1.0000 -0.5660001082
O   O3        1.0  0.19086  0.87331  0.87302  1.0000 -0.5660001082
O   O4        1.0  0.87331  0.87302  0.19086  1.0000 -0.5660001082
O   O5        1.0  0.12669  0.80914  0.12698  1.0000 -0.5660001082
O   O6        1.0  0.80914  0.12698  0.12669  1.0000 -0.5660001082
O   O7        1.0  0.76771  0.39824  0.39834  1.0000 -0.585061765
O   O8        1.0  0.23229  0.60166  0.60176  1.0000 -0.585061765
O   O9        1.0  0.39824  0.39834  0.76771  1.0000 -0.585061765
O   O10       1.0  0.39834  0.76771  0.39824  1.0000 -0.5845628145
O   O11       1.0  0.60166  0.60176  0.23229  1.0000 -0.585061765
O   O12       1.0  0.60176  0.23229  0.60166  1.0000 -0.585061765
O   O13       1.0  0.89443  0.31189  0.60463  1.0000 -0.5660001082
O   O14       1.0  0.10557  0.39537  0.68811  1.0000 -0.5660001082
O   O15       1.0  0.31189  0.60463  0.89443  1.0000 -0.5646588567
O   O16       1.0  0.60463  0.89443  0.31189  1.0000 -0.5660001082
O   O17       1.0  0.39537  0.68811  0.10557  1.0000 -0.5646588567
O   O18       1.0  0.68811  0.10557  0.39537  1.0000 -0.5660001082
O   O19       1.0  0.10557  0.68811  0.39537  1.0000 -0.5660001082
O   O20       1.0  0.89443  0.60463  0.31189  1.0000 -0.5660001082
O   O21       1.0  0.68811  0.39537  0.10557  1.0000 -0.5660001082
O   O22       1.0  0.39537  0.10557  0.68811  1.0000 -0.5660001082
O   O23       1.0  0.60463  0.31189  0.89443  1.0000 -0.5646588567
O   O24       1.0  0.31189  0.89443  0.60463  1.0000 -0.5660001082
