# DDEC6 charges by PACMAN v1.1 (https://github.com/mtap-research/PACMAN-charge/)
data_2004[Cu][dia]3[ASR]1
_chemical_formula_sum              "Cu4 H64 C96 N32 O8"
_cell_length_a       13.4623
_cell_length_b       13.4623
_cell_length_c       25.1103
_cell_angle_alpha    105.549
_cell_angle_beta     105.549
_cell_angle_gamma    90

_symmetry_space_group_name_H-M    "P 1"
_symmetry_Int_Tables_number       1

loop_
  _symmetry_equiv_pos_as_xyz
  'x, y, z'

loop_
  _atom_site_type_symbol
  _atom_site_label
  _atom_site_symmetry_multiplicity
  _atom_site_fract_x
  _atom_site_fract_y
  _atom_site_fract_z
  _atom_site_occupancy
  _atom_site_charge
Cu  Cu1       1.0  0.59658  0.34658  0.19315  1.0000 0.260810686
Cu  Cu2       1.0  0.40342  0.65342  0.80685  1.0000 0.260810686
Cu  Cu3       1.0  0.84658  0.09658  0.69315  1.0000 0.260810686
Cu  Cu4       1.0  0.15342  0.90342  0.30685  1.0000 0.260810686
H   H1        1.0  0.41767  0.23538  0.09975  1.0000 0.0812249136
H   H2        1.0  0.58233  0.76462  0.90025  1.0000 0.0812249136
H   H3        1.0  0.68207  0.36437  0.09975  1.0000 0.0812249136
H   H4        1.0  0.31793  0.63563  0.90025  1.0000 0.0812249136
H   H5        1.0  0.86437  0.91767  0.59975  1.0000 0.0812249136
H   H6        1.0  0.13563  0.08233  0.40025  1.0000 0.0812249136
H   H7        1.0  0.73538  0.18207  0.59975  1.0000 0.0812249136
H   H8        1.0  0.26462  0.81793  0.40025  1.0000 0.0812249136
H   H9        1.0  0.30712  0.26008  0.00862  1.0000 0.1294133319
H   H10       1.0  0.69288  0.73992  0.99138  1.0000 0.1294133319
H   H11       1.0  0.70150  0.24854  0.00862  1.0000 0.1294133319
H   H12       1.0  0.29850  0.75146  0.99138  1.0000 0.1294133319
H   H13       1.0  0.74854  0.80712  0.50862  1.0000 0.1294133319
H   H14       1.0  0.25146  0.19288  0.49138  1.0000 0.1294133319
H   H15       1.0  0.76008  0.20150  0.50862  1.0000 0.1294133319
H   H16       1.0  0.23992  0.79850  0.49138  1.0000 0.1294133319
H   H17       1.0  0.44109  0.57831  0.06512  1.0000 0.12364693
H   H18       1.0  0.55891  0.42169  0.93488  1.0000 0.12364693
H   H19       1.0  0.62403  0.98681  0.06512  1.0000 0.12364693
H   H20       1.0  0.37597  0.01319  0.93488  1.0000 0.12364693
H   H21       1.0  0.48681  0.94109  0.56512  1.0000 0.12364693
H   H22       1.0  0.51319  0.05891  0.43488  1.0000 0.12364693
H   H23       1.0  0.07831  0.12403  0.56512  1.0000 0.12364693
H   H24       1.0  0.92169  0.87597  0.43488  1.0000 0.12364693
H   H25       1.0  0.54653  0.53918  0.15657  1.0000 0.0812249136
H   H26       1.0  0.45347  0.46082  0.84343  1.0000 0.0812249136
H   H27       1.0  0.61004  0.11739  0.15657  1.0000 0.0812249136
H   H28       1.0  0.38996  0.88261  0.84343  1.0000 0.0812249136
H   H29       1.0  0.61739  0.04653  0.65657  1.0000 0.0812249136
H   H30       1.0  0.38261  0.95347  0.34343  1.0000 0.0812249136
H   H31       1.0  0.03918  0.11004  0.65657  1.0000 0.0812249136
H   H32       1.0  0.96082  0.88996  0.34343  1.0000 0.0812249136
H   H33       1.0  0.13551  0.19389  0.88256  1.0000 0.1294133319
H   H34       1.0  0.86449  0.80611  0.11744  1.0000 0.1294133319
H   H35       1.0  0.74705  0.18868  0.88256  1.0000 0.1294133319
H   H36       1.0  0.25295  0.81132  0.11744  1.0000 0.1294133319
H   H37       1.0  0.68868  0.63551  0.38256  1.0000 0.1294133319
H   H38       1.0  0.31132  0.36449  0.61744  1.0000 0.1294133319
H   H39       1.0  0.69389  0.24705  0.38256  1.0000 0.1294133319
H   H40       1.0  0.30611  0.75295  0.61744  1.0000 0.1294133319
H   H41       1.0  0.00633  0.07606  0.79739  1.0000 0.0812249136
H   H42       1.0  0.99367  0.92394  0.20261  1.0000 0.0812249136
H   H43       1.0  0.79105  0.22133  0.79739  1.0000 0.0812249136
H   H44       1.0  0.20895  0.77867  0.20261  1.0000 0.0812249136
H   H45       1.0  0.72133  0.50633  0.29739  1.0000 0.0812249136
H   H46       1.0  0.27867  0.49367  0.70261  1.0000 0.0812249136
H   H47       1.0  0.57606  0.29105  0.29739  1.0000 0.0812249136
H   H48       1.0  0.42394  0.70895  0.70261  1.0000 0.0812249136
H   H49       1.0  0.93048  0.31221  0.71929  1.0000 0.0880557066
H   H50       1.0  0.06952  0.68779  0.28071  1.0000 0.0880557066
H   H51       1.0  0.78881  0.90709  0.71929  1.0000 0.0880557066
H   H52       1.0  0.21119  0.09291  0.28071  1.0000 0.0880557066
H   H53       1.0  0.40709  0.43048  0.21929  1.0000 0.0880557066
H   H54       1.0  0.59291  0.56952  0.78071  1.0000 0.0880557066
H   H55       1.0  0.81221  0.28881  0.21929  1.0000 0.0880557066
H   H56       1.0  0.18779  0.71119  0.78071  1.0000 0.0880557066
H   H57       1.0  0.05474  0.44328  0.80307  1.0000 0.12364693
H   H58       1.0  0.94526  0.55672  0.19693  1.0000 0.12364693
H   H59       1.0  0.74833  0.85979  0.80307  1.0000 0.12364693
H   H60       1.0  0.25167  0.14021  0.19693  1.0000 0.12364693
H   H61       1.0  0.35979  0.55474  0.30307  1.0000 0.12364693
H   H62       1.0  0.64021  0.44526  0.69693  1.0000 0.12364693
H   H63       1.0  0.94328  0.24833  0.30307  1.0000 0.12364693
H   H64       1.0  0.05672  0.75167  0.69693  1.0000 0.12364693
C   C1        1.0  0.41924  0.31024  0.09062  1.0000 0.0880557066
C   C2        1.0  0.58076  0.68976  0.90938  1.0000 0.0880557066
C   C3        1.0  0.67137  0.28038  0.09062  1.0000 0.0880557066
C   C4        1.0  0.32863  0.71962  0.90938  1.0000 0.0880557066
C   C5        1.0  0.78038  0.91924  0.59062  1.0000 0.0880557066
C   C6        1.0  0.21962  0.08076  0.40938  1.0000 0.0880557066
C   C7        1.0  0.81024  0.17137  0.59062  1.0000 0.0880557066
C   C8        1.0  0.18976  0.82863  0.40938  1.0000 0.0880557066
C   C9        1.0  0.35879  0.32469  0.03976  1.0000 -0.1604741829
C   C10       1.0  0.64121  0.67531  0.96024  1.0000 -0.1604741829
C   C11       1.0  0.68097  0.21507  0.03976  1.0000 -0.1604741829
C   C12       1.0  0.31903  0.78493  0.96024  1.0000 -0.1604741829
C   C13       1.0  0.71507  0.85879  0.53976  1.0000 -0.1604741829
C   C14       1.0  0.28493  0.14121  0.46024  1.0000 -0.1604741829
C   C15       1.0  0.82469  0.18097  0.53976  1.0000 -0.1604741829
C   C16       1.0  0.17531  0.81903  0.46024  1.0000 -0.1604741829
C   C17       1.0  0.36438  0.42301  0.02969  1.0000 0.0357616307
C   C18       1.0  0.63562  0.57699  0.97031  1.0000 0.0357616307
C   C19       1.0  0.66531  0.10667  0.02969  1.0000 0.0357616307
C   C20       1.0  0.33469  0.89333  0.97031  1.0000 0.0357616307
C   C21       1.0  0.60667  0.86438  0.52969  1.0000 0.0357616307
C   C22       1.0  0.39333  0.13562  0.47031  1.0000 0.0357616307
C   C23       1.0  0.92301  0.16531  0.52969  1.0000 0.0357616307
C   C24       1.0  0.07699  0.83469  0.47031  1.0000 0.0357616307
C   C25       1.0  0.43425  0.50204  0.07217  1.0000 -0.1604741829
C   C26       1.0  0.56575  0.49796  0.92783  1.0000 -0.1604741829
C   C27       1.0  0.63792  0.07013  0.07217  1.0000 -0.1604741829
C   C28       1.0  0.36208  0.92987  0.92783  1.0000 -0.1604741829
C   C29       1.0  0.57013  0.93425  0.57217  1.0000 -0.1604741829
C   C30       1.0  0.42987  0.06575  0.42783  1.0000 -0.1604741829
C   C31       1.0  0.00204  0.13792  0.57217  1.0000 -0.1604741829
C   C32       1.0  0.99796  0.86208  0.42783  1.0000 -0.1604741829
C   C33       1.0  0.49127  0.48090  0.12220  1.0000 0.0812249136
C   C34       1.0  0.50873  0.51910  0.87780  1.0000 0.0812249136
C   C35       1.0  0.63093  0.14130  0.12220  1.0000 0.0812249136
C   C36       1.0  0.36907  0.85870  0.87780  1.0000 0.0812249136
C   C37       1.0  0.64130  0.99127  0.62220  1.0000 0.0812249136
C   C38       1.0  0.35870  0.00873  0.37780  1.0000 0.0812249136
C   C39       1.0  0.98090  0.13093  0.62220  1.0000 0.0812249136
C   C40       1.0  0.01910  0.86907  0.37780  1.0000 0.0812249136
C   C41       1.0  0.30071  0.43931  0.97764  1.0000 0.2707259982
C   C42       1.0  0.69929  0.56069  0.02236  1.0000 0.2707259982
C   C43       1.0  0.67693  0.03833  0.97764  1.0000 0.2707259982
C   C44       1.0  0.32307  0.96167  0.02236  1.0000 0.2707259982
C   C45       1.0  0.53833  0.80071  0.47764  1.0000 0.2707259982
C   C46       1.0  0.46167  0.19929  0.52236  1.0000 0.2707259982
C   C47       1.0  0.93931  0.17693  0.47764  1.0000 0.2707259982
C   C48       1.0  0.06069  0.82307  0.52236  1.0000 0.2707259982
C   C49       1.0  0.18413  0.39574  0.89512  1.0000 0.260810686
C   C50       1.0  0.81587  0.60426  0.10488  1.0000 0.260810686
C   C51       1.0  0.71099  0.99938  0.89512  1.0000 0.260810686
C   C52       1.0  0.28901  0.00062  0.10488  1.0000 0.260810686
C   C53       1.0  0.49938  0.68413  0.39512  1.0000 0.260810686
C   C54       1.0  0.50062  0.31587  0.60488  1.0000 0.260810686
C   C55       1.0  0.89574  0.21099  0.39512  1.0000 0.260810686
C   C56       1.0  0.10426  0.78901  0.60488  1.0000 0.260810686
C   C57       1.0  0.10736  0.32837  0.84863  1.0000 0.0455751183
C   C58       1.0  0.89264  0.67163  0.15137  1.0000 0.0455751183
C   C59       1.0  0.74127  0.02026  0.84863  1.0000 0.0455751183
C   C60       1.0  0.25873  0.97974  0.15137  1.0000 0.0455751183
C   C61       1.0  0.52026  0.60736  0.34863  1.0000 0.0455751183
C   C62       1.0  0.47974  0.39264  0.65137  1.0000 0.0455751183
C   C63       1.0  0.82837  0.24127  0.34863  1.0000 0.0455751183
C   C64       1.0  0.17163  0.75873  0.65137  1.0000 0.0455751183
C   C65       1.0  0.09111  0.22334  0.84748  1.0000 -0.1768479207
C   C66       1.0  0.90889  0.77666  0.15252  1.0000 -0.1768479207
C   C67       1.0  0.75637  0.12414  0.84748  1.0000 -0.1768479207
C   C68       1.0  0.24363  0.87586  0.15252  1.0000 -0.1768479207
C   C69       1.0  0.62414  0.59111  0.34748  1.0000 -0.1768479207
C   C70       1.0  0.37586  0.40889  0.65252  1.0000 -0.1768479207
C   C71       1.0  0.72334  0.25637  0.34748  1.0000 -0.1768479207
C   C72       1.0  0.27666  0.74363  0.65252  1.0000 -0.1768479207
C   C73       1.0  0.02186  0.15755  0.80019  1.0000 0.0812249136
C   C74       1.0  0.97814  0.84245  0.19981  1.0000 0.0812249136
C   C75       1.0  0.77833  0.14264  0.80019  1.0000 0.0812249136
C   C76       1.0  0.22167  0.85736  0.19981  1.0000 0.0812249136
C   C77       1.0  0.64264  0.52186  0.30019  1.0000 0.0812249136
C   C78       1.0  0.35736  0.47814  0.69981  1.0000 0.0812249136
C   C79       1.0  0.65755  0.27833  0.30019  1.0000 0.0812249136
C   C80       1.0  0.34245  0.72167  0.69981  1.0000 0.0812249136
C   C81       1.0  0.97900  0.29036  0.75638  1.0000 0.0712790751
C   C82       1.0  0.02100  0.70964  0.24362  1.0000 0.0712790751
C   C83       1.0  0.77738  0.96602  0.75638  1.0000 0.0712790751
C   C84       1.0  0.22262  0.03398  0.24362  1.0000 0.0712790751
C   C85       1.0  0.46602  0.47900  0.25638  1.0000 0.0712790751
C   C86       1.0  0.53398  0.52100  0.74362  1.0000 0.0712790751
C   C87       1.0  0.79036  0.27738  0.25638  1.0000 0.0712790751
C   C88       1.0  0.20964  0.72262  0.74362  1.0000 0.0712790751
C   C89       1.0  0.04641  0.36181  0.80228  1.0000 -0.1660247118
C   C90       1.0  0.95359  0.63819  0.19772  1.0000 -0.1660247118
C   C91       1.0  0.75587  0.94046  0.80228  1.0000 -0.1660247118
C   C92       1.0  0.24413  0.05954  0.19772  1.0000 -0.1660247118
C   C93       1.0  0.44046  0.54641  0.30228  1.0000 -0.1660247118
C   C94       1.0  0.55954  0.45359  0.69772  1.0000 -0.1660247118
C   C95       1.0  0.86181  0.25587  0.30228  1.0000 -0.1660247118
C   C96       1.0  0.13819  0.74413  0.69772  1.0000 -0.1660247118
N   N1        1.0  0.48291  0.38710  0.13293  1.0000 -0.2436955393
N   N2        1.0  0.51709  0.61290  0.86707  1.0000 -0.2436955393
N   N3        1.0  0.65002  0.24583  0.13293  1.0000 -0.2436955393
N   N4        1.0  0.34998  0.75417  0.86707  1.0000 -0.2436955393
N   N5        1.0  0.74583  0.98291  0.63293  1.0000 -0.2436955393
N   N6        1.0  0.25417  0.01709  0.36707  1.0000 -0.2436955393
N   N7        1.0  0.88710  0.15002  0.63293  1.0000 -0.2436955393
N   N8        1.0  0.11290  0.84998  0.36707  1.0000 -0.2436955393
N   N9        1.0  0.29628  0.52033  0.95609  1.0000 -0.2690809042
N   N10       1.0  0.70372  0.47967  0.04391  1.0000 -0.2690809042
N   N11       1.0  0.65981  0.93576  0.95609  1.0000 -0.2690809042
N   N12       1.0  0.34019  0.06424  0.04391  1.0000 -0.2690809042
N   N13       1.0  0.43576  0.79628  0.45609  1.0000 -0.2690809042
N   N14       1.0  0.56424  0.20372  0.54391  1.0000 -0.2690809042
N   N15       1.0  0.02033  0.15981  0.45609  1.0000 -0.2690809042
N   N16       1.0  0.97967  0.84019  0.54391  1.0000 -0.2690809042
N   N17       1.0  0.22157  0.49219  0.90272  1.0000 -0.2820704551
N   N18       1.0  0.77843  0.50781  0.09728  1.0000 -0.2820704551
N   N19       1.0  0.68116  0.91053  0.90272  1.0000 -0.2820704551
N   N20       1.0  0.31884  0.08947  0.09728  1.0000 -0.2820704551
N   N21       1.0  0.41053  0.72157  0.40272  1.0000 -0.2820704551
N   N22       1.0  0.58947  0.27843  0.59728  1.0000 -0.2820704551
N   N23       1.0  0.99219  0.18116  0.40272  1.0000 -0.2820704551
N   N24       1.0  0.00781  0.81884  0.59728  1.0000 -0.2820704551
N   N25       1.0  0.96882  0.18705  0.75317  1.0000 -0.2436955393
N   N26       1.0  0.03118  0.81295  0.24683  1.0000 -0.2436955393
N   N27       1.0  0.78435  0.06612  0.75317  1.0000 -0.2436955393
N   N28       1.0  0.21565  0.93388  0.24683  1.0000 -0.2436955393
N   N29       1.0  0.56612  0.46882  0.25317  1.0000 -0.2436955393
N   N30       1.0  0.43388  0.53118  0.74683  1.0000 -0.2436955393
N   N31       1.0  0.68705  0.28435  0.25317  1.0000 -0.2436955393
N   N32       1.0  0.31295  0.71565  0.74683  1.0000 -0.2436955393
O   O1        1.0  0.23128  0.35750  0.94104  1.0000 -0.2005509202
O   O2        1.0  0.76872  0.64250  0.05896  1.0000 -0.2005509202
O   O3        1.0  0.70976  0.08354  0.94104  1.0000 -0.2005509202
O   O4        1.0  0.29024  0.91646  0.05896  1.0000 -0.2005509202
O   O5        1.0  0.58354  0.73128  0.44104  1.0000 -0.2005509202
O   O6        1.0  0.41646  0.26872  0.55896  1.0000 -0.2005509202
O   O7        1.0  0.85750  0.20976  0.44104  1.0000 -0.2005509202
O   O8        1.0  0.14250  0.79024  0.55896  1.0000 -0.2005509202
