# DDEC6 charges by PACMAN v1.1 (https://github.com/mtap-research/PACMAN-charge/)
data_2004[La][nan]3[ASR]1
_chemical_formula_sum              "La4 H80 C96 N16 O32"
_cell_length_a       19.9653
_cell_length_b       17.2172
_cell_length_c       14.8704
_cell_angle_alpha    76.568
_cell_angle_beta     57.0101
_cell_angle_gamma    46.4219

_symmetry_space_group_name_H-M    "P 1"
_symmetry_Int_Tables_number       1

loop_
  _symmetry_equiv_pos_as_xyz
  'x, y, z'

loop_
  _atom_site_type_symbol
  _atom_site_label
  _atom_site_symmetry_multiplicity
  _atom_site_fract_x
  _atom_site_fract_y
  _atom_site_fract_z
  _atom_site_occupancy
  _atom_site_charge
La  La1       1.0  0.40034  0.09966  0.09966  1.0000 1.8909622536
La  La2       1.0  0.09966  0.40034  0.40034  1.0000 1.8909622536
La  La3       1.0  0.15034  0.84966  0.84966  1.0000 1.8909622536
La  La4       1.0  0.84966  0.15034  0.15034  1.0000 1.8909622536
H   H1        1.0  0.85370  0.86590  0.98410  1.0000 0.1379873438
H   H2        1.0  0.29630  0.98410  0.86590  1.0000 0.1379873438
H   H3        1.0  0.98410  0.29630  0.85370  1.0000 0.1379873438
H   H4        1.0  0.86590  0.85370  0.29630  1.0000 0.1379873438
H   H5        1.0  0.38410  0.39630  0.95370  1.0000 0.1379873438
H   H6        1.0  0.26590  0.95370  0.39630  1.0000 0.1379873438
H   H7        1.0  0.95370  0.26590  0.38410  1.0000 0.1379873438
H   H8        1.0  0.39630  0.38410  0.26590  1.0000 0.1379873438
H   H9        1.0  0.72840  0.88840  0.97720  1.0000 0.1283785135
H   H10       1.0  0.40600  0.97720  0.88840  1.0000 0.1283785135
H   H11       1.0  0.97720  0.40600  0.72840  1.0000 0.1283785135
H   H12       1.0  0.88840  0.72840  0.40600  1.0000 0.1283785135
H   H13       1.0  0.36160  0.52160  0.84400  1.0000 0.1283785135
H   H14       1.0  0.27280  0.84400  0.52160  1.0000 0.1283785135
H   H15       1.0  0.84400  0.27280  0.36160  1.0000 0.1283785135
H   H16       1.0  0.52160  0.36160  0.27280  1.0000 0.1283785135
H   H17       1.0  0.53070  0.68510  0.24230  1.0000 0.1379873438
H   H18       1.0  0.54190  0.24230  0.68510  1.0000 0.1379873438
H   H19       1.0  0.24230  0.54190  0.53070  1.0000 0.1379873438
H   H20       1.0  0.68510  0.53070  0.54190  1.0000 0.1379873438
H   H21       1.0  0.56490  0.71930  0.70810  1.0000 0.1379873438
H   H22       1.0  0.00770  0.70810  0.71930  1.0000 0.1379873438
H   H23       1.0  0.70810  0.00770  0.56490  1.0000 0.1379873438
H   H24       1.0  0.71930  0.56490  0.00770  1.0000 0.1379873438
H   H25       1.0  0.53230  0.79150  0.11850  1.0000 0.1283785135
H   H26       1.0  0.55770  0.11850  0.79150  1.0000 0.1283785135
H   H27       1.0  0.11850  0.55770  0.53230  1.0000 0.1283785135
H   H28       1.0  0.79150  0.53230  0.55770  1.0000 0.1283785135
H   H29       1.0  0.45850  0.71770  0.69230  1.0000 0.1283785135
H   H30       1.0  0.13150  0.69230  0.71770  1.0000 0.1283785135
H   H31       1.0  0.69230  0.13150  0.45850  1.0000 0.1283785135
H   H32       1.0  0.71770  0.45850  0.13150  1.0000 0.1283785135
H   H33       1.0  0.56690  0.20010  0.97350  1.0000 0.1283785135
H   H34       1.0  0.25950  0.97350  0.20010  1.0000 0.1283785135
H   H35       1.0  0.97350  0.25950  0.56690  1.0000 0.1283785135
H   H36       1.0  0.20010  0.56690  0.25950  1.0000 0.1283785135
H   H37       1.0  0.04990  0.68310  0.99050  1.0000 0.1283785135
H   H38       1.0  0.27650  0.99050  0.68310  1.0000 0.1283785135
H   H39       1.0  0.99050  0.27650  0.04990  1.0000 0.1283785135
H   H40       1.0  0.68310  0.04990  0.27650  1.0000 0.1283785135
H   H41       1.0  0.68360  0.18560  0.99000  1.0000 0.1379873438
H   H42       1.0  0.14080  0.99000  0.18560  1.0000 0.1379873438
H   H43       1.0  0.99000  0.14080  0.68360  1.0000 0.1379873438
H   H44       1.0  0.18560  0.68360  0.14080  1.0000 0.1379873438
H   H45       1.0  0.06440  0.56640  0.10920  1.0000 0.1379873438
H   H46       1.0  0.26000  0.10920  0.56640  1.0000 0.1379873438
H   H47       1.0  0.10920  0.26000  0.06440  1.0000 0.1379873438
H   H48       1.0  0.56640  0.06440  0.26000  1.0000 0.1379873438
H   H49       1.0  0.56250  0.80990  0.39550  1.0000 0.1379873438
H   H50       1.0  0.23210  0.39550  0.80990  1.0000 0.1379873438
H   H51       1.0  0.39550  0.23210  0.56250  1.0000 0.1379873438
H   H52       1.0  0.80990  0.56250  0.23210  1.0000 0.1379873438
H   H53       1.0  0.44010  0.68750  0.01790  1.0000 0.1379873438
H   H54       1.0  0.85450  0.01790  0.68750  1.0000 0.1379873438
H   H55       1.0  0.01790  0.85450  0.44010  1.0000 0.1379873438
H   H56       1.0  0.68750  0.44010  0.85450  1.0000 0.1379873438
H   H57       1.0  0.50220  0.65140  0.42100  1.0000 0.1283785135
H   H58       1.0  0.42540  0.42100  0.65140  1.0000 0.1283785135
H   H59       1.0  0.42100  0.42540  0.50220  1.0000 0.1283785135
H   H60       1.0  0.65140  0.50220  0.42540  1.0000 0.1283785135
H   H61       1.0  0.59860  0.74780  0.82460  1.0000 0.1283785135
H   H62       1.0  0.82900  0.82460  0.74780  1.0000 0.1283785135
H   H63       1.0  0.82460  0.82900  0.59860  1.0000 0.1283785135
H   H64       1.0  0.74780  0.59860  0.82900  1.0000 0.1283785135
H   H65       1.0  0.51420  0.69840  0.48380  1.0000 0.1182918504
H   H66       1.0  0.30360  0.48380  0.69840  1.0000 0.1182918504
H   H67       1.0  0.48380  0.30360  0.51420  1.0000 0.1182918504
H   H68       1.0  0.69840  0.51420  0.30360  1.0000 0.1182918504
H   H69       1.0  0.55160  0.73580  0.94640  1.0000 0.1182918504
H   H70       1.0  0.76620  0.94640  0.73580  1.0000 0.1182918504
H   H71       1.0  0.94640  0.76620  0.55160  1.0000 0.1182918504
H   H72       1.0  0.73580  0.55160  0.76620  1.0000 0.1182918504
H   H73       1.0  0.56870  0.91070  0.26590  1.0000 0.1283785135
H   H74       1.0  0.25470  0.26590  0.91070  1.0000 0.1283785135
H   H75       1.0  0.26590  0.25470  0.56870  1.0000 0.1283785135
H   H76       1.0  0.91070  0.56870  0.25470  1.0000 0.1283785135
H   H77       1.0  0.33930  0.68130  0.99530  1.0000 0.1283785135
H   H78       1.0  0.98410  0.99530  0.68130  1.0000 0.1283785135
H   H79       1.0  0.99530  0.98410  0.33930  1.0000 0.1283785135
H   H80       1.0  0.68130  0.33930  0.98410  1.0000 0.1283785135
C   C1        1.0  0.78439  0.02279  0.98445  1.0000 -0.0062533911
C   C2        1.0  0.20837  0.98445  0.02279  1.0000 -0.0062533911
C   C3        1.0  0.98445  0.20837  0.78439  1.0000 -0.0062533911
C   C4        1.0  0.02279  0.78439  0.20837  1.0000 -0.0062533911
C   C5        1.0  0.22721  0.46561  0.04163  1.0000 -0.0062533911
C   C6        1.0  0.26555  0.04163  0.46561  1.0000 -0.0062533911
C   C7        1.0  0.04163  0.26555  0.22721  1.0000 -0.0062533911
C   C8        1.0  0.46561  0.22721  0.26555  1.0000 -0.0062533911
C   C9        1.0  0.86521  0.01055  0.98789  1.0000 0.5941680551
C   C10       1.0  0.13635  0.98789  0.01055  1.0000 0.5941680551
C   C11       1.0  0.98789  0.13635  0.86521  1.0000 0.5941680551
C   C12       1.0  0.01055  0.86521  0.13635  1.0000 0.5941680551
C   C13       1.0  0.23945  0.38479  0.11365  1.0000 0.5941680551
C   C14       1.0  0.26211  0.11365  0.38479  1.0000 0.5941680551
C   C15       1.0  0.11365  0.26211  0.23945  1.0000 0.5941680551
C   C16       1.0  0.38479  0.23945  0.26211  1.0000 0.5941680551
C   C17       1.0  0.79604  0.93424  0.98204  1.0000 -0.1690425302
C   C18       1.0  0.28768  0.98204  0.93424  1.0000 -0.1690425302
C   C19       1.0  0.98204  0.28768  0.79604  1.0000 -0.1690425302
C   C20       1.0  0.93424  0.79604  0.28768  1.0000 -0.1690425302
C   C21       1.0  0.31576  0.45396  0.96232  1.0000 -0.1690425302
C   C22       1.0  0.26796  0.96232  0.45396  1.0000 -0.1690425302
C   C23       1.0  0.96232  0.26796  0.31576  1.0000 -0.1690425302
C   C24       1.0  0.45396  0.31576  0.26796  1.0000 -0.1690425302
C   C25       1.0  0.72180  0.94750  0.97652  1.0000 -0.0501626157
C   C26       1.0  0.35418  0.97652  0.94750  1.0000 -0.0501626157
C   C27       1.0  0.97652  0.35418  0.72180  1.0000 -0.0501626157
C   C28       1.0  0.94750  0.72180  0.35418  1.0000 -0.0501626157
C   C29       1.0  0.30250  0.52820  0.89582  1.0000 -0.0501626157
C   C30       1.0  0.27348  0.89582  0.52820  1.0000 -0.0501626157
C   C31       1.0  0.89582  0.27348  0.30250  1.0000 -0.0501626157
C   C32       1.0  0.52820  0.30250  0.27348  1.0000 -0.0501626157
C   C33       1.0  0.53897  0.73037  0.24815  1.0000 -0.2164475087
C   C34       1.0  0.48251  0.24815  0.73037  1.0000 -0.2164475087
C   C35       1.0  0.24815  0.48251  0.53897  1.0000 -0.2164475087
C   C36       1.0  0.73037  0.53897  0.48251  1.0000 -0.2164475087
C   C37       1.0  0.51963  0.71103  0.76749  1.0000 -0.2164475087
C   C38       1.0  0.00185  0.76749  0.71103  1.0000 -0.2164475087
C   C39       1.0  0.76749  0.00185  0.51963  1.0000 -0.2164475087
C   C40       1.0  0.71103  0.51963  0.00185  1.0000 -0.2164475087
C   C41       1.0  0.54031  0.79357  0.17369  1.0000 -0.0501626157
C   C42       1.0  0.49243  0.17369  0.79357  1.0000 -0.0501626157
C   C43       1.0  0.17369  0.49243  0.54031  1.0000 -0.0501626157
C   C44       1.0  0.79357  0.54031  0.49243  1.0000 -0.0501626157
C   C45       1.0  0.45643  0.70969  0.75757  1.0000 -0.0501626157
C   C46       1.0  0.07631  0.75757  0.70969  1.0000 -0.0501626157
C   C47       1.0  0.75757  0.07631  0.45643  1.0000 -0.0501626157
C   C48       1.0  0.70969  0.45643  0.07631  1.0000 -0.0501626157
C   C49       1.0  0.62532  0.13256  0.97556  1.0000 -0.0620174575
C   C50       1.0  0.26656  0.97556  0.13256  1.0000 -0.0620174575
C   C51       1.0  0.97556  0.26656  0.62532  1.0000 -0.0620174575
C   C52       1.0  0.13256  0.62532  0.26656  1.0000 -0.0620174575
C   C53       1.0  0.11744  0.62468  0.98344  1.0000 -0.0620174575
C   C54       1.0  0.27444  0.98344  0.62468  1.0000 -0.0620174575
C   C55       1.0  0.98344  0.27444  0.11744  1.0000 -0.0620174575
C   C56       1.0  0.62468  0.11744  0.27444  1.0000 -0.0620174575
C   C57       1.0  0.69579  0.12365  0.98425  1.0000 -0.1690425302
C   C58       1.0  0.19631  0.98425  0.12365  1.0000 -0.1690425302
C   C59       1.0  0.98425  0.19631  0.69579  1.0000 -0.1690425302
C   C60       1.0  0.12365  0.69579  0.19631  1.0000 -0.1690425302
C   C61       1.0  0.12635  0.55421  0.05369  1.0000 -0.1690425302
C   C62       1.0  0.26575  0.05369  0.55421  1.0000 -0.1690425302
C   C63       1.0  0.05369  0.26575  0.12635  1.0000 -0.1690425302
C   C64       1.0  0.55421  0.12635  0.26575  1.0000 -0.1690425302
C   C65       1.0  0.55842  0.80342  0.33858  1.0000 -0.2040565859
C   C66       1.0  0.29958  0.33858  0.80342  1.0000 -0.2040565859
C   C67       1.0  0.33858  0.29958  0.55842  1.0000 -0.2040565859
C   C68       1.0  0.80342  0.55842  0.29958  1.0000 -0.2040565859
C   C69       1.0  0.44658  0.69158  0.95042  1.0000 -0.2040565859
C   C70       1.0  0.91142  0.95042  0.69158  1.0000 -0.2040565859
C   C71       1.0  0.95042  0.91142  0.44658  1.0000 -0.2040565859
C   C72       1.0  0.69158  0.44658  0.91142  1.0000 -0.2040565859
C   C73       1.0  0.54949  0.73165  0.33213  1.0000 0.1283785135
C   C74       1.0  0.38673  0.33213  0.73165  1.0000 0.1283785135
C   C75       1.0  0.33213  0.38673  0.54949  1.0000 0.1283785135
C   C76       1.0  0.73165  0.54949  0.38673  1.0000 0.1283785135
C   C77       1.0  0.51835  0.70051  0.86327  1.0000 0.1283785135
C   C78       1.0  0.91787  0.86327  0.70051  1.0000 0.1283785135
C   C79       1.0  0.86327  0.91787  0.51835  1.0000 0.1283785135
C   C80       1.0  0.70051  0.51835  0.91787  1.0000 0.1283785135
C   C81       1.0  0.54800  0.66058  0.41250  1.0000 -0.24707928
C   C82       1.0  0.37892  0.41250  0.66058  1.0000 -0.24707928
C   C83       1.0  0.41250  0.37892  0.54800  1.0000 -0.24707928
C   C84       1.0  0.66058  0.54800  0.37892  1.0000 -0.24707928
C   C85       1.0  0.58942  0.70200  0.87108  1.0000 -0.24707928
C   C86       1.0  0.83750  0.87108  0.70200  1.0000 -0.24707928
C   C87       1.0  0.87108  0.83750  0.58942  1.0000 -0.24707928
C   C88       1.0  0.70200  0.58942  0.83750  1.0000 -0.24707928
C   C89       1.0  0.56117  0.86441  0.26151  1.0000 -0.0620174575
C   C90       1.0  0.31291  0.26151  0.86441  1.0000 -0.0620174575
C   C91       1.0  0.26151  0.31291  0.56117  1.0000 -0.0620174575
C   C92       1.0  0.86441  0.56117  0.31291  1.0000 -0.0620174575
C   C93       1.0  0.38559  0.68883  0.93709  1.0000 -0.0620174575
C   C94       1.0  0.98849  0.93709  0.68883  1.0000 -0.0620174575
C   C95       1.0  0.93709  0.98849  0.38559  1.0000 -0.0620174575
C   C96       1.0  0.68883  0.38559  0.98849  1.0000 -0.0620174575
N   N1        1.0  0.64065  0.04431  0.97023  1.0000 0.3092224181
N   N2        1.0  0.34481  0.97023  0.04431  1.0000 0.3092224181
N   N3        1.0  0.97023  0.34481  0.64065  1.0000 0.3092224181
N   N4        1.0  0.04431  0.64065  0.34481  1.0000 0.3092224181
N   N5        1.0  0.20569  0.60935  0.90519  1.0000 0.3092224181
N   N6        1.0  0.27977  0.90519  0.60935  1.0000 0.3092224181
N   N7        1.0  0.90519  0.27977  0.20569  1.0000 0.3092224181
N   N8        1.0  0.60935  0.20569  0.27977  1.0000 0.3092224181
N   N9        1.0  0.55317  0.85881  0.17937  1.0000 0.3158408806
N   N10       1.0  0.40865  0.17937  0.85881  1.0000 0.3158408806
N   N11       1.0  0.17937  0.40865  0.55317  1.0000 0.3158408806
N   N12       1.0  0.85881  0.55317  0.40865  1.0000 0.3158408806
N   N13       1.0  0.39119  0.69683  0.84135  1.0000 0.3158408806
N   N14       1.0  0.07063  0.84135  0.69683  1.0000 0.3158408806
N   N15       1.0  0.84135  0.07063  0.39119  1.0000 0.3158408806
N   N16       1.0  0.69683  0.39119  0.07063  1.0000 0.3158408806
O   O1        1.0  0.57510  0.05404  0.95650  1.0000 -0.5713405206
O   O2        1.0  0.41436  0.95650  0.05404  1.0000 -0.5713405206
O   O3        1.0  0.95650  0.41436  0.57510  1.0000 -0.5713405206
O   O4        1.0  0.05404  0.57510  0.41436  1.0000 -0.5713405206
O   O5        1.0  0.19596  0.67490  0.83564  1.0000 -0.575559099
O   O6        1.0  0.29350  0.83564  0.67490  1.0000 -0.575559099
O   O7        1.0  0.83564  0.29350  0.19596  1.0000 -0.5713405206
O   O8        1.0  0.67490  0.19596  0.29350  1.0000 -0.5713405206
O   O9        1.0  0.55602  0.91860  0.10648  1.0000 -0.5713405206
O   O10       1.0  0.41890  0.10648  0.91860  1.0000 -0.5713405206
O   O11       1.0  0.10648  0.41890  0.55602  1.0000 -0.5713405206
O   O12       1.0  0.91860  0.55602  0.41890  1.0000 -0.5635215356
O   O13       1.0  0.33140  0.69398  0.83110  1.0000 -0.5635215356
O   O14       1.0  0.14352  0.83110  0.69398  1.0000 -0.5635215356
O   O15       1.0  0.83110  0.14352  0.33140  1.0000 -0.5635215356
O   O16       1.0  0.69398  0.33140  0.14352  1.0000 -0.5635215356
O   O17       1.0  0.96208  0.91914  0.94222  1.0000 -0.6045097902
O   O18       1.0  0.17656  0.94222  0.91914  1.0000 -0.6045097902
O   O19       1.0  0.94222  0.17656  0.96208  1.0000 -0.6045097902
O   O20       1.0  0.91914  0.96208  0.17656  1.0000 -0.6045097902
O   O21       1.0  0.33086  0.28792  0.07344  1.0000 -0.6045097902
O   O22       1.0  0.30778  0.07344  0.28792  1.0000 -0.6045097902
O   O23       1.0  0.07344  0.30778  0.33086  1.0000 -0.6045097902
O   O24       1.0  0.28792  0.33086  0.30778  1.0000 -0.6045097902
O   O25       1.0  0.82721  0.09469  0.03645  1.0000 -0.6255842044
O   O26       1.0  0.04165  0.03645  0.09469  1.0000 -0.6255842044
O   O27       1.0  0.03645  0.04165  0.82721  1.0000 -0.6255842044
O   O28       1.0  0.09469  0.82721  0.04165  1.0000 -0.6255842044
O   O29       1.0  0.15531  0.42279  0.20835  1.0000 -0.6255842044
O   O30       1.0  0.21355  0.20835  0.42279  1.0000 -0.6255842044
O   O31       1.0  0.20835  0.21355  0.15531  1.0000 -0.6255842044
O   O32       1.0  0.42279  0.15531  0.21355  1.0000 -0.6255842044
