# DDEC6 charges by PACMAN v1.1 (https://github.com/mtap-research/PACMAN-charge/)
data_2004[Mn][bnn]3[ASR]2
_chemical_formula_sum              "Mn2 H12 C24 N4 O8"
_cell_length_a       9.42123
_cell_length_b       9.42123
_cell_length_c       9.2494
_cell_angle_alpha    67.1297
_cell_angle_beta     112.87
_cell_angle_gamma    78.7262

_symmetry_space_group_name_H-M    "P 1"
_symmetry_Int_Tables_number       1

loop_
  _symmetry_equiv_pos_as_xyz
  'x, y, z'

loop_
  _atom_site_type_symbol
  _atom_site_label
  _atom_site_symmetry_multiplicity
  _atom_site_fract_x
  _atom_site_fract_y
  _atom_site_fract_z
  _atom_site_occupancy
  _atom_site_charge
Mn  Mn1       1.0  0.96520  0.96520  0.75000  1.0000 0.916452024
Mn  Mn2       1.0  0.03480  0.03480  0.25000  1.0000 0.9148821568
H   H1        1.0  0.50920  0.73600  0.67760  1.0000 0.1398560776
H   H2        1.0  0.73600  0.50920  0.82240  1.0000 0.1398560776
H   H3        1.0  0.49080  0.26400  0.32240  1.0000 0.1398560776
H   H4        1.0  0.26400  0.49080  0.17760  1.0000 0.1398560776
H   H5        1.0  0.39060  0.13120  0.74890  1.0000 0.1398560776
H   H6        1.0  0.13120  0.39060  0.75110  1.0000 0.1398560776
H   H7        1.0  0.60940  0.86880  0.25110  1.0000 0.1398560776
H   H8        1.0  0.86880  0.60940  0.24890  1.0000 0.1398560776
H   H9        1.0  0.64650  0.14330  0.78590  1.0000 0.1165256685
H   H10       1.0  0.14330  0.64650  0.71410  1.0000 0.1165256685
H   H11       1.0  0.35350  0.85670  0.21410  1.0000 0.1165256685
H   H12       1.0  0.85670  0.35350  0.28590  1.0000 0.1165256685
C   C1        1.0  0.69262  0.82282  0.74320  1.0000 0.1620503402
C   C2        1.0  0.82282  0.69262  0.75680  1.0000 0.1620503402
C   C3        1.0  0.30738  0.17718  0.25680  1.0000 0.1620503402
C   C4        1.0  0.17718  0.30738  0.24320  1.0000 0.1620503402
C   C5        1.0  0.53676  0.81796  0.70430  1.0000 -0.2037465537
C   C6        1.0  0.81796  0.53676  0.79570  1.0000 -0.2037465537
C   C7        1.0  0.46324  0.18204  0.29570  1.0000 -0.2037465537
C   C8        1.0  0.18204  0.46324  0.20430  1.0000 -0.2037465537
C   C9        1.0  0.42094  0.93414  0.70480  1.0000 0.0308988205
C   C10       1.0  0.93414  0.42094  0.79520  1.0000 0.0308988205
C   C11       1.0  0.57906  0.06586  0.29520  1.0000 0.0308988205
C   C12       1.0  0.06586  0.57906  0.20480  1.0000 0.0308988205
C   C13       1.0  0.46466  0.05366  0.74160  1.0000 -0.1653418878
C   C14       1.0  0.05366  0.46466  0.75840  1.0000 -0.1653418878
C   C15       1.0  0.53534  0.94634  0.25840  1.0000 -0.1653418878
C   C16       1.0  0.94634  0.53534  0.24160  1.0000 -0.1653418878
C   C17       1.0  0.61926  0.05746  0.76760  1.0000 0.0964612624
C   C18       1.0  0.05746  0.61926  0.73240  1.0000 0.0964612624
C   C19       1.0  0.38074  0.94254  0.23240  1.0000 0.0964612624
C   C20       1.0  0.94254  0.38074  0.26760  1.0000 0.0964612624
C   C21       1.0  0.25505  0.92185  0.66950  1.0000 0.5690957642
C   C22       1.0  0.92185  0.25505  0.83050  1.0000 0.5690957642
C   C23       1.0  0.74495  0.07815  0.33050  1.0000 0.5690957642
C   C24       1.0  0.07815  0.74495  0.16950  1.0000 0.5690957642
N   N1        1.0  0.73223  0.94437  0.76780  1.0000 -0.2727978492
N   N2        1.0  0.94437  0.73223  0.73220  1.0000 -0.2727978492
N   N3        1.0  0.26777  0.05563  0.23220  1.0000 -0.2727978492
N   N4        1.0  0.05563  0.26777  0.26780  1.0000 -0.2727978492
O   O1        1.0  0.20592  0.93442  0.77440  1.0000 -0.5226121211
O   O2        1.0  0.93442  0.20592  0.72560  1.0000 -0.5226121211
O   O3        1.0  0.79408  0.06558  0.22560  1.0000 -0.5226121211
O   O4        1.0  0.06558  0.79408  0.27440  1.0000 -0.5226121211
O   O5        1.0  0.18310  0.89188  0.54590  1.0000 -0.5480791444
O   O6        1.0  0.89188  0.18310  0.95410  1.0000 -0.5480791444
O   O7        1.0  0.81690  0.10812  0.45410  1.0000 -0.5480791444
O   O8        1.0  0.10812  0.81690  0.04590  1.0000 -0.5480791444
