# DDEC6 charges by PACMAN v1.1 (https://github.com/mtap-research/PACMAN-charge/)
data_2004[Ag][pts]3[ASR]1
_chemical_formula_sum              "Ag8 H128 C192 S8 N32"
_cell_length_a       23.8632
_cell_length_b       23.8632
_cell_length_c       23.8632
_cell_angle_alpha    123.628
_cell_angle_beta     123.628
_cell_angle_gamma    83.8238

_symmetry_space_group_name_H-M    "P 1"
_symmetry_Int_Tables_number       1

loop_
  _symmetry_equiv_pos_as_xyz
  'x, y, z'

loop_
  _atom_site_type_symbol
  _atom_site_label
  _atom_site_symmetry_multiplicity
  _atom_site_fract_x
  _atom_site_fract_y
  _atom_site_fract_z
  _atom_site_occupancy
  _atom_site_charge
Ag  Ag1       1.0  0.58857  0.08857  0.17714  1.0000 0.2007985529
Ag  Ag2       1.0  0.83857  0.16143  0.00000  1.0000 0.2007985529
Ag  Ag3       1.0  0.16143  0.83857  0.00000  1.0000 0.2007985529
Ag  Ag4       1.0  0.91143  0.41143  0.82286  1.0000 0.2007985529
Ag  Ag5       1.0  0.16143  0.16143  0.32286  1.0000 0.2007985529
Ag  Ag6       1.0  0.91143  0.08857  0.50000  1.0000 0.2007985529
Ag  Ag7       1.0  0.58857  0.41143  0.50000  1.0000 0.2007985529
Ag  Ag8       1.0  0.83857  0.83857  0.67714  1.0000 0.2007985529
H   H1        1.0  0.70390  0.05810  0.14240  1.0000 0.0932563427
H   H2        1.0  0.80810  0.16570  0.85420  1.0000 0.0932563427
H   H3        1.0  0.31150  0.95390  0.14580  1.0000 0.0932563427
H   H4        1.0  0.43850  0.08430  0.14240  1.0000 0.0932563427
H   H5        1.0  0.91570  0.56150  0.85760  1.0000 0.0932563427
H   H6        1.0  0.83430  0.19190  0.14580  1.0000 0.0932563427
H   H7        1.0  0.04610  0.68850  0.85420  1.0000 0.0932563427
H   H8        1.0  0.94190  0.29610  0.85760  1.0000 0.0932563427
H   H9        1.0  0.04610  0.19190  0.35760  1.0000 0.0932563427
H   H10       1.0  0.94190  0.08430  0.64580  1.0000 0.0932563427
H   H11       1.0  0.43850  0.29610  0.35420  1.0000 0.0932563427
H   H12       1.0  0.31150  0.16570  0.35760  1.0000 0.0932563427
H   H13       1.0  0.83430  0.68850  0.64240  1.0000 0.0932563427
H   H14       1.0  0.91570  0.05810  0.35420  1.0000 0.0932563427
H   H15       1.0  0.70390  0.56150  0.64580  1.0000 0.0932563427
H   H16       1.0  0.80810  0.95390  0.64240  1.0000 0.0932563427
H   H17       1.0  0.73000  0.97920  0.05200  1.0000 0.1219544253
H   H18       1.0  0.72920  0.17720  0.74920  1.0000 0.1219544253
H   H19       1.0  0.42800  0.98000  0.25080  1.0000 0.1219544253
H   H20       1.0  0.32200  0.07280  0.05200  1.0000 0.1219544253
H   H21       1.0  0.92720  0.67800  0.94800  1.0000 0.1219544253
H   H22       1.0  0.82280  0.27080  0.25080  1.0000 0.1219544253
H   H23       1.0  0.02000  0.57200  0.74920  1.0000 0.1219544253
H   H24       1.0  0.02080  0.27000  0.94800  1.0000 0.1219544253
H   H25       1.0  0.02000  0.27080  0.44800  1.0000 0.1219544253
H   H26       1.0  0.02080  0.07280  0.75080  1.0000 0.1219544253
H   H27       1.0  0.32200  0.27000  0.24920  1.0000 0.1219544253
H   H28       1.0  0.42800  0.17720  0.44800  1.0000 0.1219544253
H   H29       1.0  0.82280  0.57200  0.55200  1.0000 0.1219544253
H   H30       1.0  0.92720  0.97920  0.24920  1.0000 0.1219544253
H   H31       1.0  0.73000  0.67800  0.75080  1.0000 0.1219544253
H   H32       1.0  0.72920  0.98000  0.55200  1.0000 0.1219544253
H   H33       1.0  0.53330  0.85190  0.89680  1.0000 0.1262102801
H   H34       1.0  0.60190  0.20510  0.81860  1.0000 0.1262102801
H   H35       1.0  0.38650  0.78330  0.18140  1.0000 0.1262102801
H   H36       1.0  0.36350  0.04490  0.89680  1.0000 0.1262102801
H   H37       1.0  0.95510  0.63650  0.10320  1.0000 0.1262102801
H   H38       1.0  0.79490  0.39810  0.18140  1.0000 0.1262102801
H   H39       1.0  0.21670  0.61350  0.81860  1.0000 0.1262102801
H   H40       1.0  0.14810  0.46670  0.10320  1.0000 0.1262102801
H   H41       1.0  0.21670  0.39810  0.60320  1.0000 0.1262102801
H   H42       1.0  0.14810  0.04490  0.68140  1.0000 0.1262102801
H   H43       1.0  0.36350  0.46670  0.31860  1.0000 0.1262102801
H   H44       1.0  0.38650  0.20510  0.60320  1.0000 0.1262102801
H   H45       1.0  0.79490  0.61350  0.39680  1.0000 0.1262102801
H   H46       1.0  0.95510  0.85190  0.31860  1.0000 0.1262102801
H   H47       1.0  0.53330  0.63650  0.68140  1.0000 0.1262102801
H   H48       1.0  0.60190  0.78330  0.39680  1.0000 0.1262102801
H   H49       1.0  0.51490  0.93320  0.99410  1.0000 0.0932563427
H   H50       1.0  0.68320  0.18910  0.91830  1.0000 0.0932563427
H   H51       1.0  0.27080  0.76490  0.08170  1.0000 0.0932563427
H   H52       1.0  0.47920  0.06090  0.99410  1.0000 0.0932563427
H   H53       1.0  0.93910  0.52080  0.00590  1.0000 0.0932563427
H   H54       1.0  0.81090  0.31680  0.08170  1.0000 0.0932563427
H   H55       1.0  0.23510  0.72920  0.91830  1.0000 0.0932563427
H   H56       1.0  0.06680  0.48510  0.00590  1.0000 0.0932563427
H   H57       1.0  0.23510  0.31680  0.50590  1.0000 0.0932563427
H   H58       1.0  0.06680  0.06090  0.58170  1.0000 0.0932563427
H   H59       1.0  0.47920  0.48510  0.41830  1.0000 0.0932563427
H   H60       1.0  0.27080  0.18910  0.50590  1.0000 0.0932563427
H   H61       1.0  0.81090  0.72920  0.49410  1.0000 0.0932563427
H   H62       1.0  0.93910  0.93320  0.41830  1.0000 0.0932563427
H   H63       1.0  0.51490  0.52080  0.58170  1.0000 0.0932563427
H   H64       1.0  0.68320  0.76490  0.49410  1.0000 0.0932563427
H   H65       1.0  0.63690  0.95260  0.83890  1.0000 0.1389700895
H   H66       1.0  0.70260  0.36370  0.81570  1.0000 0.1389700895
H   H67       1.0  0.54800  0.88690  0.18430  1.0000 0.1389700895
H   H68       1.0  0.20200  0.88630  0.83890  1.0000 0.1389700895
H   H69       1.0  0.11370  0.79800  0.16110  1.0000 0.1389700895
H   H70       1.0  0.63630  0.29740  0.18430  1.0000 0.1389700895
H   H71       1.0  0.11310  0.45200  0.81570  1.0000 0.1389700895
H   H72       1.0  0.04740  0.36310  0.16110  1.0000 0.1389700895
H   H73       1.0  0.11310  0.29740  0.66110  1.0000 0.1389700895
H   H74       1.0  0.04740  0.88630  0.68430  1.0000 0.1389700895
H   H75       1.0  0.20200  0.36310  0.31570  1.0000 0.1389700895
H   H76       1.0  0.54800  0.36370  0.66110  1.0000 0.1389700895
H   H77       1.0  0.63630  0.45200  0.33890  1.0000 0.1389700895
H   H78       1.0  0.11370  0.95260  0.31570  1.0000 0.1389700895
H   H79       1.0  0.63690  0.79800  0.68430  1.0000 0.1389700895
H   H80       1.0  0.70260  0.88690  0.33890  1.0000 0.1389700895
H   H81       1.0  0.69480  0.05620  0.88440  1.0000 0.0932563427
H   H82       1.0  0.80620  0.42180  0.86140  1.0000 0.0932563427
H   H83       1.0  0.56040  0.94480  0.13860  1.0000 0.0932563427
H   H84       1.0  0.18960  0.82820  0.88440  1.0000 0.0932563427
H   H85       1.0  0.17180  0.81040  0.11560  1.0000 0.0932563427
H   H86       1.0  0.57820  0.19380  0.13860  1.0000 0.0932563427
H   H87       1.0  0.05520  0.43960  0.86140  1.0000 0.0932563427
H   H88       1.0  0.94380  0.30520  0.11560  1.0000 0.0932563427
H   H89       1.0  0.05520  0.19380  0.61560  1.0000 0.0932563427
H   H90       1.0  0.94380  0.82820  0.63860  1.0000 0.0932563427
H   H91       1.0  0.18960  0.30520  0.36140  1.0000 0.0932563427
H   H92       1.0  0.56040  0.42180  0.61560  1.0000 0.0932563427
H   H93       1.0  0.57820  0.43960  0.38440  1.0000 0.0932563427
H   H94       1.0  0.17180  0.05620  0.36140  1.0000 0.0932563427
H   H95       1.0  0.69480  0.81040  0.63860  1.0000 0.0932563427
H   H96       1.0  0.80620  0.94480  0.38440  1.0000 0.0932563427
H   H97       1.0  0.87200  0.05470  0.04910  1.0000 0.0819013095
H   H98       1.0  0.80470  0.25560  0.68270  1.0000 0.0819013095
H   H99       1.0  0.57290  0.12200  0.31730  1.0000 0.0819013095
H   H100      1.0  0.17710  0.99440  0.04910  1.0000 0.0819013095
H   H101      1.0  0.00560  0.82290  0.95090  1.0000 0.0819013095
H   H102      1.0  0.74440  0.19530  0.31730  1.0000 0.0819013095
H   H103      1.0  0.87800  0.42710  0.68270  1.0000 0.0819013095
H   H104      1.0  0.94530  0.12800  0.95090  1.0000 0.0819013095
H   H105      1.0  0.87800  0.19530  0.45090  1.0000 0.0819013095
H   H106      1.0  0.94530  0.99440  0.81730  1.0000 0.0819013095
H   H107      1.0  0.17710  0.12800  0.18270  1.0000 0.0819013095
H   H108      1.0  0.57290  0.25560  0.45090  1.0000 0.0819013095
H   H109      1.0  0.74440  0.42710  0.54910  1.0000 0.0819013095
H   H110      1.0  0.00560  0.05470  0.18270  1.0000 0.0819013095
H   H111      1.0  0.87200  0.82290  0.81730  1.0000 0.0819013095
H   H112      1.0  0.80470  0.12200  0.54910  1.0000 0.0819013095
H   H113      1.0  0.82130  0.94820  0.00410  1.0000 0.1219544253
H   H114      1.0  0.69820  0.19410  0.62690  1.0000 0.1219544253
H   H115      1.0  0.56720  0.07130  0.37310  1.0000 0.1219544253
H   H116      1.0  0.18280  0.05590  0.00410  1.0000 0.1219544253
H   H117      1.0  0.94410  0.81720  0.99590  1.0000 0.1219544253
H   H118      1.0  0.80590  0.30180  0.37310  1.0000 0.1219544253
H   H119      1.0  0.92870  0.43280  0.62690  1.0000 0.1219544253
H   H120      1.0  0.05180  0.17870  0.99590  1.0000 0.1219544253
H   H121      1.0  0.92870  0.30180  0.49590  1.0000 0.1219544253
H   H122      1.0  0.05180  0.05590  0.87310  1.0000 0.1219544253
H   H123      1.0  0.18280  0.17870  0.12690  1.0000 0.1219544253
H   H124      1.0  0.56720  0.19410  0.49590  1.0000 0.1219544253
H   H125      1.0  0.80590  0.43280  0.50410  1.0000 0.1219544253
H   H126      1.0  0.94410  0.94820  0.12690  1.0000 0.1219544253
H   H127      1.0  0.82130  0.81720  0.87310  1.0000 0.1219544253
H   H128      1.0  0.69820  0.07130  0.50410  1.0000 0.1219544253
C   C1        1.0  0.66910  0.01491  0.09219  1.0000 0.0393582389
C   C2        1.0  0.76491  0.17272  0.84581  1.0000 0.0393582389
C   C3        1.0  0.32691  0.91910  0.15419  1.0000 0.0393582389
C   C4        1.0  0.42309  0.07728  0.09219  1.0000 0.0393582389
C   C5        1.0  0.92272  0.57691  0.90781  1.0000 0.0393582389
C   C6        1.0  0.82728  0.23509  0.15419  1.0000 0.0393582389
C   C7        1.0  0.08090  0.67309  0.84581  1.0000 0.0393582389
C   C8        1.0  0.98509  0.33090  0.90781  1.0000 0.0393582389
C   C9        1.0  0.08090  0.23509  0.40781  1.0000 0.0393582389
C   C10       1.0  0.98509  0.07728  0.65419  1.0000 0.0393582389
C   C11       1.0  0.42309  0.33090  0.34581  1.0000 0.0393582389
C   C12       1.0  0.32691  0.17272  0.40781  1.0000 0.0393582389
C   C13       1.0  0.82728  0.67309  0.59219  1.0000 0.0393582389
C   C14       1.0  0.92272  0.01491  0.34581  1.0000 0.0393582389
C   C15       1.0  0.66910  0.57691  0.65419  1.0000 0.0393582389
C   C16       1.0  0.76491  0.91910  0.59219  1.0000 0.0393582389
C   C17       1.0  0.68487  0.96863  0.03798  1.0000 -0.2012969972
C   C18       1.0  0.71863  0.18065  0.78376  1.0000 -0.2012969972
C   C19       1.0  0.39689  0.93487  0.21624  1.0000 -0.2012969972
C   C20       1.0  0.35311  0.06935  0.03798  1.0000 -0.2012969972
C   C21       1.0  0.93065  0.64689  0.96202  1.0000 -0.2012969972
C   C22       1.0  0.81935  0.28137  0.21624  1.0000 -0.2012969972
C   C23       1.0  0.06513  0.60311  0.78376  1.0000 -0.2012969972
C   C24       1.0  0.03137  0.31513  0.96202  1.0000 -0.2012969972
C   C25       1.0  0.06513  0.28137  0.46202  1.0000 -0.2012969972
C   C26       1.0  0.03137  0.06935  0.71624  1.0000 -0.2012969972
C   C27       1.0  0.35311  0.31513  0.28376  1.0000 -0.2012969972
C   C28       1.0  0.39689  0.18065  0.46202  1.0000 -0.2012969972
C   C29       1.0  0.81935  0.60311  0.53798  1.0000 -0.2012969972
C   C30       1.0  0.93065  0.96863  0.28376  1.0000 -0.2012969972
C   C31       1.0  0.68487  0.64689  0.71624  1.0000 -0.2012969972
C   C32       1.0  0.71863  0.93487  0.53798  1.0000 -0.2012969972
C   C33       1.0  0.63395  0.90656  0.96285  1.0000 0.1219544253
C   C34       1.0  0.65656  0.19371  0.77261  1.0000 0.1219544253
C   C35       1.0  0.42110  0.88395  0.22739  1.0000 0.1219544253
C   C36       1.0  0.32890  0.05629  0.96285  1.0000 0.1219544253
C   C37       1.0  0.94371  0.67110  0.03715  1.0000 0.1219544253
C   C38       1.0  0.80629  0.34344  0.22739  1.0000 0.1219544253
C   C39       1.0  0.11605  0.57890  0.77261  1.0000 0.1219544253
C   C40       1.0  0.09344  0.36605  0.03715  1.0000 0.1219544253
C   C41       1.0  0.11605  0.34344  0.53715  1.0000 0.1219544253
C   C42       1.0  0.09344  0.05629  0.72739  1.0000 0.1219544253
C   C43       1.0  0.32890  0.36605  0.27261  1.0000 0.1219544253
C   C44       1.0  0.42110  0.19371  0.53715  1.0000 0.1219544253
C   C45       1.0  0.80629  0.57890  0.46285  1.0000 0.1219544253
C   C46       1.0  0.94371  0.90656  0.27261  1.0000 0.1219544253
C   C47       1.0  0.63395  0.67110  0.72739  1.0000 0.1219544253
C   C48       1.0  0.65656  0.88395  0.46285  1.0000 0.1219544253
C   C49       1.0  0.56977  0.89390  0.94737  1.0000 -0.2012969972
C   C50       1.0  0.64390  0.19653  0.82413  1.0000 -0.2012969972
C   C51       1.0  0.37240  0.81977  0.17587  1.0000 -0.2012969972
C   C52       1.0  0.37760  0.05347  0.94737  1.0000 -0.2012969972
C   C53       1.0  0.94653  0.62240  0.05263  1.0000 -0.2012969972
C   C54       1.0  0.80347  0.35610  0.17587  1.0000 -0.2012969972
C   C55       1.0  0.18023  0.62760  0.82413  1.0000 -0.2012969972
C   C56       1.0  0.10610  0.43023  0.05263  1.0000 -0.2012969972
C   C57       1.0  0.18023  0.35610  0.55263  1.0000 -0.2012969972
C   C58       1.0  0.10610  0.05347  0.67587  1.0000 -0.2012969972
C   C59       1.0  0.37760  0.43023  0.32413  1.0000 -0.2012969972
C   C60       1.0  0.37240  0.19653  0.55263  1.0000 -0.2012969972
C   C61       1.0  0.80347  0.62760  0.44737  1.0000 -0.2012969972
C   C62       1.0  0.94653  0.89390  0.32413  1.0000 -0.2012969972
C   C63       1.0  0.56977  0.62240  0.67587  1.0000 -0.2012969972
C   C64       1.0  0.64390  0.81977  0.44737  1.0000 -0.2012969972
C   C65       1.0  0.55932  0.94269  0.00591  1.0000 0.0393582389
C   C66       1.0  0.69269  0.18678  0.88337  1.0000 0.0393582389
C   C67       1.0  0.30341  0.80932  0.11663  1.0000 0.0393582389
C   C68       1.0  0.44659  0.06322  0.00591  1.0000 0.0393582389
C   C69       1.0  0.93678  0.55341  0.99409  1.0000 0.0393582389
C   C70       1.0  0.81322  0.30731  0.11663  1.0000 0.0393582389
C   C71       1.0  0.19068  0.69659  0.88337  1.0000 0.0393582389
C   C72       1.0  0.05731  0.44068  0.99409  1.0000 0.0393582389
C   C73       1.0  0.19068  0.30731  0.49409  1.0000 0.0393582389
C   C74       1.0  0.05731  0.06322  0.61663  1.0000 0.0393582389
C   C75       1.0  0.44659  0.44068  0.38337  1.0000 0.0393582389
C   C76       1.0  0.30341  0.18678  0.49409  1.0000 0.0393582389
C   C77       1.0  0.81322  0.69659  0.50591  1.0000 0.0393582389
C   C78       1.0  0.93678  0.94269  0.38337  1.0000 0.0393582389
C   C79       1.0  0.55932  0.55341  0.61663  1.0000 0.0393582389
C   C80       1.0  0.69269  0.80932  0.50591  1.0000 0.0393582389
C   C81       1.0  0.64668  0.85561  0.90119  1.0000 -0.075755715
C   C82       1.0  0.60561  0.20442  0.70893  1.0000 -0.075755715
C   C83       1.0  0.49549  0.89668  0.29107  1.0000 -0.075755715
C   C84       1.0  0.25451  0.04558  0.90119  1.0000 -0.075755715
C   C85       1.0  0.95442  0.74549  0.09881  1.0000 -0.075755715
C   C86       1.0  0.79558  0.39439  0.29107  1.0000 -0.075755715
C   C87       1.0  0.10332  0.50451  0.70893  1.0000 -0.075755715
C   C88       1.0  0.14439  0.35332  0.09881  1.0000 -0.075755715
C   C89       1.0  0.10332  0.39439  0.59881  1.0000 -0.075755715
C   C90       1.0  0.14439  0.04558  0.79107  1.0000 -0.075755715
C   C91       1.0  0.25451  0.35332  0.20893  1.0000 -0.075755715
C   C92       1.0  0.49549  0.20442  0.59881  1.0000 -0.075755715
C   C93       1.0  0.79558  0.50451  0.40119  1.0000 -0.075755715
C   C94       1.0  0.95442  0.85561  0.20893  1.0000 -0.075755715
C   C95       1.0  0.64668  0.74549  0.79107  1.0000 -0.075755715
C   C96       1.0  0.60561  0.89668  0.40119  1.0000 -0.075755715
C   C97       1.0  0.68712  0.86812  0.88256  1.0000 -0.0366553337
C   C98       1.0  0.61812  0.23556  0.68100  1.0000 -0.0366553337
C   C99       1.0  0.55456  0.93712  0.31900  1.0000 -0.0366553337
C   C100      1.0  0.19544  0.01444  0.88256  1.0000 -0.0366553337
C   C101      1.0  0.98556  0.80456  0.11744  1.0000 -0.0366553337
C   C102      1.0  0.76444  0.38188  0.31900  1.0000 -0.0366553337
C   C103      1.0  0.06288  0.44544  0.68100  1.0000 -0.0366553337
C   C104      1.0  0.13188  0.31288  0.11744  1.0000 -0.0366553337
C   C105      1.0  0.06288  0.38188  0.61744  1.0000 -0.0366553337
C   C106      1.0  0.13188  0.01444  0.81900  1.0000 -0.0366553337
C   C107      1.0  0.19544  0.31288  0.18100  1.0000 -0.0366553337
C   C108      1.0  0.55456  0.23556  0.61744  1.0000 -0.0366553337
C   C109      1.0  0.76444  0.44544  0.38256  1.0000 -0.0366553337
C   C110      1.0  0.98556  0.86812  0.18100  1.0000 -0.0366553337
C   C111      1.0  0.68712  0.80456  0.81900  1.0000 -0.0366553337
C   C112      1.0  0.61812  0.93712  0.38256  1.0000 -0.0366553337
C   C113      1.0  0.72287  0.93783  0.91634  1.0000 0.1105282669
C   C114      1.0  0.68783  0.27149  0.71496  1.0000 0.1105282669
C   C115      1.0  0.55653  0.97287  0.28504  1.0000 0.1105282669
C   C116      1.0  0.19347  0.97851  0.91634  1.0000 0.1105282669
C   C117      1.0  0.02149  0.80653  0.08366  1.0000 0.1105282669
C   C118      1.0  0.72851  0.31217  0.28504  1.0000 0.1105282669
C   C119      1.0  0.02713  0.44347  0.71496  1.0000 0.1105282669
C   C120      1.0  0.06217  0.27713  0.08366  1.0000 0.1105282669
C   C121      1.0  0.02713  0.31217  0.58366  1.0000 0.1105282669
C   C122      1.0  0.06217  0.97851  0.78504  1.0000 0.1105282669
C   C123      1.0  0.19347  0.27713  0.21496  1.0000 0.1105282669
C   C124      1.0  0.55653  0.27149  0.58366  1.0000 0.1105282669
C   C125      1.0  0.72851  0.44347  0.41634  1.0000 0.1105282669
C   C126      1.0  0.02149  0.93783  0.21496  1.0000 0.1105282669
C   C127      1.0  0.72287  0.80653  0.78504  1.0000 0.1105282669
C   C128      1.0  0.68783  0.97287  0.41634  1.0000 0.1105282669
C   C129      1.0  0.68611  0.97184  0.88175  1.0000 -0.2012969972
C   C130      1.0  0.72184  0.34009  0.78573  1.0000 -0.2012969972
C   C131      1.0  0.55436  0.93611  0.21427  1.0000 -0.2012969972
C   C132      1.0  0.19564  0.90991  0.88175  1.0000 -0.2012969972
C   C133      1.0  0.09009  0.80436  0.11825  1.0000 -0.2012969972
C   C134      1.0  0.65991  0.27816  0.21427  1.0000 -0.2012969972
C   C135      1.0  0.06389  0.44564  0.78573  1.0000 -0.2012969972
C   C136      1.0  0.02816  0.31389  0.11825  1.0000 -0.2012969972
C   C137      1.0  0.06389  0.27816  0.61825  1.0000 -0.2012969972
C   C138      1.0  0.02816  0.90991  0.71427  1.0000 -0.2012969972
C   C139      1.0  0.19564  0.31389  0.28573  1.0000 -0.2012969972
C   C140      1.0  0.55436  0.34009  0.61825  1.0000 -0.2012969972
C   C141      1.0  0.65991  0.44564  0.38175  1.0000 -0.2012969972
C   C142      1.0  0.09009  0.97184  0.28573  1.0000 -0.2012969972
C   C143      1.0  0.68611  0.80436  0.71427  1.0000 -0.2012969972
C   C144      1.0  0.72184  0.93611  0.38175  1.0000 -0.2012969972
C   C145      1.0  0.72111  0.03388  0.90963  1.0000 0.0291346525
C   C146      1.0  0.78388  0.37425  0.81277  1.0000 0.0291346525
C   C147      1.0  0.56148  0.97111  0.18723  1.0000 0.0291346525
C   C148      1.0  0.18852  0.87575  0.90963  1.0000 0.0291346525
C   C149      1.0  0.12425  0.81148  0.09037  1.0000 0.0291346525
C   C150      1.0  0.62575  0.21612  0.18723  1.0000 0.0291346525
C   C151      1.0  0.02889  0.43852  0.81277  1.0000 0.0291346525
C   C152      1.0  0.96612  0.27889  0.09037  1.0000 0.0291346525
C   C153      1.0  0.02889  0.21612  0.59037  1.0000 0.0291346525
C   C154      1.0  0.96612  0.87575  0.68723  1.0000 0.0291346525
C   C155      1.0  0.18852  0.27889  0.31277  1.0000 0.0291346525
C   C156      1.0  0.56148  0.37425  0.59037  1.0000 0.0291346525
C   C157      1.0  0.62575  0.43852  0.40963  1.0000 0.0291346525
C   C158      1.0  0.12425  0.03388  0.31277  1.0000 0.0291346525
C   C159      1.0  0.72111  0.81148  0.68723  1.0000 0.0291346525
C   C160      1.0  0.78388  0.97111  0.40963  1.0000 0.0291346525
C   C161      1.0  0.82340  0.03279  0.00383  1.0000 0.0393582389
C   C162      1.0  0.78279  0.27896  0.70939  1.0000 0.0393582389
C   C163      1.0  0.56957  0.07340  0.29061  1.0000 0.0393582389
C   C164      1.0  0.18043  0.97104  0.00383  1.0000 0.0393582389
C   C165      1.0  0.02896  0.81957  0.99617  1.0000 0.0393582389
C   C166      1.0  0.72104  0.21721  0.29061  1.0000 0.0393582389
C   C167      1.0  0.92660  0.43043  0.70939  1.0000 0.0393582389
C   C168      1.0  0.96721  0.17660  0.99617  1.0000 0.0393582389
C   C169      1.0  0.92660  0.21721  0.49617  1.0000 0.0393582389
C   C170      1.0  0.96721  0.97104  0.79061  1.0000 0.0393582389
C   C171      1.0  0.18043  0.17660  0.20939  1.0000 0.0393582389
C   C172      1.0  0.56957  0.27896  0.49617  1.0000 0.0393582389
C   C173      1.0  0.72104  0.43043  0.50383  1.0000 0.0393582389
C   C174      1.0  0.02896  0.03279  0.20939  1.0000 0.0393582389
C   C175      1.0  0.82340  0.81957  0.79061  1.0000 0.0393582389
C   C176      1.0  0.78279  0.07340  0.50383  1.0000 0.0393582389
C   C177      1.0  0.79329  0.96964  0.97851  1.0000 -0.2281135121
C   C178      1.0  0.71964  0.24113  0.67635  1.0000 -0.2281135121
C   C179      1.0  0.56478  0.04329  0.32365  1.0000 -0.2281135121
C   C180      1.0  0.18522  0.00887  0.97851  1.0000 -0.2281135121
C   C181      1.0  0.99113  0.81478  0.02149  1.0000 -0.2281135121
C   C182      1.0  0.75887  0.28036  0.32365  1.0000 -0.2281135121
C   C183      1.0  0.95671  0.43522  0.67635  1.0000 -0.2281135121
C   C184      1.0  0.03036  0.20671  0.02149  1.0000 -0.2281135121
C   C185      1.0  0.95671  0.28036  0.52149  1.0000 -0.2281135121
C   C186      1.0  0.03036  0.00887  0.82365  1.0000 -0.2281135121
C   C187      1.0  0.18522  0.20671  0.17635  1.0000 -0.2281135121
C   C188      1.0  0.56478  0.24113  0.52149  1.0000 -0.2281135121
C   C189      1.0  0.75887  0.43522  0.47851  1.0000 -0.2281135121
C   C190      1.0  0.99113  0.96964  0.17635  1.0000 -0.2281135121
C   C191      1.0  0.79329  0.81478  0.82365  1.0000 -0.2281135121
C   C192      1.0  0.71964  0.04329  0.47851  1.0000 -0.2281135121
S   S1        1.0  0.61013  0.76717  0.84296  1.0000 0.0177972858
S   S2        1.0  0.51717  0.17421  0.65704  1.0000 0.0177972858
S   S3        1.0  0.51717  0.86013  0.34296  1.0000 0.0177972858
S   S4        1.0  0.23283  0.07579  0.84296  1.0000 0.0177972858
S   S5        1.0  0.92421  0.76717  0.15704  1.0000 0.0177972858
S   S6        1.0  0.82579  0.48283  0.34296  1.0000 0.0177972858
S   S7        1.0  0.13987  0.48283  0.65704  1.0000 0.0177972858
S   S8        1.0  0.23283  0.38987  0.15704  1.0000 0.0177972858
N   N1        1.0  0.60785  0.00241  0.07808  1.0000 -0.2207183359
N   N2        1.0  0.75241  0.17433  0.89456  1.0000 -0.2207183359
N   N3        1.0  0.27977  0.85785  0.10544  1.0000 -0.2207183359
N   N4        1.0  0.47023  0.07567  0.07808  1.0000 -0.2207183359
N   N5        1.0  0.92433  0.52977  0.92192  1.0000 -0.2207183359
N   N6        1.0  0.82567  0.24759  0.10544  1.0000 -0.2207183359
N   N7        1.0  0.14215  0.72023  0.89456  1.0000 -0.2207183359
N   N8        1.0  0.99759  0.39215  0.92192  1.0000 -0.2207183359
N   N9        1.0  0.14215  0.24759  0.42192  1.0000 -0.2207183359
N   N10       1.0  0.99759  0.07567  0.60544  1.0000 -0.2207183359
N   N11       1.0  0.47023  0.39215  0.39456  1.0000 -0.2207183359
N   N12       1.0  0.27977  0.17433  0.42192  1.0000 -0.2207183359
N   N13       1.0  0.82567  0.72023  0.57808  1.0000 -0.2207183359
N   N14       1.0  0.92433  0.00241  0.39456  1.0000 -0.2207183359
N   N15       1.0  0.60785  0.52977  0.60544  1.0000 -0.2207183359
N   N16       1.0  0.75241  0.85785  0.57808  1.0000 -0.2207183359
N   N17       1.0  0.78994  0.06456  0.97014  1.0000 -0.1946156506
N   N18       1.0  0.81456  0.34442  0.77462  1.0000 -0.1946156506
N   N19       1.0  0.56980  0.03994  0.22538  1.0000 -0.1946156506
N   N20       1.0  0.18020  0.90558  0.97014  1.0000 -0.1946156506
N   N21       1.0  0.09442  0.81980  0.02986  1.0000 -0.1946156506
N   N22       1.0  0.65558  0.18544  0.22538  1.0000 -0.1946156506
N   N23       1.0  0.96006  0.43020  0.77462  1.0000 -0.1946156506
N   N24       1.0  0.93544  0.21006  0.02986  1.0000 -0.1946156506
N   N25       1.0  0.96006  0.18544  0.52986  1.0000 -0.1946156506
N   N26       1.0  0.93544  0.90558  0.72538  1.0000 -0.1946156506
N   N27       1.0  0.18020  0.21006  0.27462  1.0000 -0.1946156506
N   N28       1.0  0.56980  0.34442  0.52986  1.0000 -0.1946156506
N   N29       1.0  0.65558  0.43020  0.47014  1.0000 -0.1946156506
N   N30       1.0  0.09442  0.06456  0.27462  1.0000 -0.1946156506
N   N31       1.0  0.78994  0.81980  0.72538  1.0000 -0.1946156506
N   N32       1.0  0.81456  0.03994  0.47014  1.0000 -0.1946156506
