# DDEC6 charges by PACMAN v1.1 (https://github.com/mtap-research/PACMAN-charge/)
data_2005[Fe][dia]3[ASR]2
_chemical_formula_sum              "Fe12 H24 C24 O48"
_cell_length_a       11.4446
_cell_length_b       9.9304
_cell_length_c       18.3409
_cell_angle_alpha    90
_cell_angle_beta     127.171
_cell_angle_gamma    90

_symmetry_space_group_name_H-M    "P 1"
_symmetry_Int_Tables_number       1

loop_
  _symmetry_equiv_pos_as_xyz
  'x, y, z'

loop_
  _atom_site_type_symbol
  _atom_site_label
  _atom_site_symmetry_multiplicity
  _atom_site_fract_x
  _atom_site_fract_y
  _atom_site_fract_z
  _atom_site_occupancy
  _atom_site_charge
Fe  Fe1       1.0  0.87687  0.08120  0.63240  1.0000 0.8921729958
Fe  Fe2       1.0  0.12313  0.58120  0.86760  1.0000 0.8921729958
Fe  Fe3       1.0  0.12313  0.91880  0.36760  1.0000 0.8921729958
Fe  Fe4       1.0  0.87687  0.41880  0.13240  1.0000 0.8921729958
Fe  Fe5       1.0  0.92765  0.39269  0.68770  1.0000 0.9061174925
Fe  Fe6       1.0  0.07235  0.89269  0.81230  1.0000 0.9061174925
Fe  Fe7       1.0  0.07235  0.60731  0.31230  1.0000 0.9024874306
Fe  Fe8       1.0  0.92765  0.10731  0.18770  1.0000 0.9061174925
Fe  Fe9       1.0  0.00000  0.00000  0.50000  1.0000 0.9497958905
Fe  Fe10      1.0  0.00000  0.50000  0.00000  1.0000 0.9497958905
Fe  Fe11      1.0  0.50000  0.00000  0.50000  1.0000 0.9497958905
Fe  Fe12      1.0  0.50000  0.50000  0.00000  1.0000 0.9497958905
H   H1        1.0  0.71300  0.85100  0.42600  1.0000 0.1605787313
H   H2        1.0  0.28700  0.35100  0.07400  1.0000 0.1605787313
H   H3        1.0  0.28700  0.14900  0.57400  1.0000 0.1605787313
H   H4        1.0  0.71300  0.64900  0.92600  1.0000 0.1605787313
H   H5        1.0  0.51600  0.30500  0.50200  1.0000 0.1007306928
H   H6        1.0  0.48400  0.80500  0.99800  1.0000 0.1007306928
H   H7        1.0  0.48400  0.69500  0.49800  1.0000 0.1007306928
H   H8        1.0  0.51600  0.19500  0.00200  1.0000 0.1007306928
H   H9        1.0  0.01400  0.25800  0.86800  1.0000 0.0744388512
H   H10       1.0  0.98600  0.75800  0.63200  1.0000 0.0778592158
H   H11       1.0  0.98600  0.74200  0.13200  1.0000 0.0778592158
H   H12       1.0  0.01400  0.24200  0.36800  1.0000 0.0778592158
H   H13       1.0  0.99100  0.38700  0.53700  1.0000 0.0778592158
H   H14       1.0  0.00900  0.88700  0.96300  1.0000 0.0778592158
H   H15       1.0  0.00900  0.61300  0.46300  1.0000 0.0778592158
H   H16       1.0  0.99100  0.11300  0.03700  1.0000 0.0778592158
H   H17       1.0  0.75300  0.82400  0.72600  1.0000 0.167285554
H   H18       1.0  0.24700  0.32400  0.77400  1.0000 0.167285554
H   H19       1.0  0.24700  0.17600  0.27400  1.0000 0.167285554
H   H20       1.0  0.75300  0.67600  0.22600  1.0000 0.167285554
H   H21       1.0  0.28600  0.95100  0.76500  1.0000 0.1098344995
H   H22       1.0  0.71400  0.45100  0.73500  1.0000 0.1098344995
H   H23       1.0  0.71400  0.04900  0.23500  1.0000 0.1098344995
H   H24       1.0  0.28600  0.54900  0.26500  1.0000 0.1098344995
C   C1        1.0  0.72420  0.89630  0.46820  1.0000 0.4406964053
C   C2        1.0  0.27580  0.39630  0.03180  1.0000 0.4406964053
C   C3        1.0  0.27580  0.10370  0.53180  1.0000 0.4406964053
C   C4        1.0  0.72420  0.60370  0.96820  1.0000 0.4406964053
C   C5        1.0  0.62120  0.28170  0.54960  1.0000 0.4673953838
C   C6        1.0  0.37880  0.78170  0.95040  1.0000 0.4673953838
C   C7        1.0  0.37880  0.71830  0.45040  1.0000 0.4673953838
C   C8        1.0  0.62120  0.21830  0.04960  1.0000 0.4673953838
C   C9        1.0  0.00180  0.17570  0.83090  1.0000 0.4557129081
C   C10       1.0  0.99820  0.67570  0.66910  1.0000 0.4557129081
C   C11       1.0  0.99820  0.82430  0.16910  1.0000 0.4493832624
C   C12       1.0  0.00180  0.32430  0.33090  1.0000 0.4557129081
C   C13       1.0  0.97420  0.28950  0.54820  1.0000 0.4406964053
C   C14       1.0  0.02580  0.78950  0.95180  1.0000 0.4493832624
C   C15       1.0  0.02580  0.71050  0.45180  1.0000 0.4493832624
C   C16       1.0  0.97420  0.21050  0.04820  1.0000 0.4493832624
C   C17       1.0  0.73380  0.87650  0.68890  1.0000 0.3768934793
C   C18       1.0  0.26620  0.37650  0.81110  1.0000 0.3749112821
C   C19       1.0  0.26620  0.12350  0.31110  1.0000 0.3749112821
C   C20       1.0  0.73380  0.62350  0.18890  1.0000 0.3768934793
C   C21       1.0  0.19180  0.98510  0.71140  1.0000 0.4406964053
C   C22       1.0  0.80820  0.48510  0.78860  1.0000 0.4406964053
C   C23       1.0  0.80820  0.01490  0.28860  1.0000 0.4406964053
C   C24       1.0  0.19180  0.51490  0.21140  1.0000 0.4406964053
O   O1        1.0  0.83450  0.97290  0.52170  1.0000 -0.5517364257
O   O2        1.0  0.16550  0.47290  0.97830  1.0000 -0.5517364257
O   O3        1.0  0.16550  0.02710  0.47830  1.0000 -0.5517364257
O   O4        1.0  0.83450  0.52710  0.02170  1.0000 -0.5517364257
O   O5        1.0  0.61270  0.88770  0.46300  1.0000 -0.4706325234
O   O6        1.0  0.38730  0.38770  0.03700  1.0000 -0.4706325234
O   O7        1.0  0.38730  0.11230  0.53700  1.0000 -0.4706325234
O   O8        1.0  0.61270  0.61230  0.96300  1.0000 -0.4706325234
O   O9        1.0  0.66220  0.15840  0.55980  1.0000 -0.5517364257
O   O10       1.0  0.33780  0.65840  0.94020  1.0000 -0.5517364257
O   O11       1.0  0.33780  0.84160  0.44020  1.0000 -0.5517364257
O   O12       1.0  0.66220  0.34160  0.05980  1.0000 -0.5517364257
O   O13       1.0  0.70260  0.37880  0.59100  1.0000 -0.4812913774
O   O14       1.0  0.29740  0.87880  0.90900  1.0000 -0.4812913774
O   O15       1.0  0.29740  0.62120  0.40900  1.0000 -0.4812913774
O   O16       1.0  0.70260  0.12120  0.09100  1.0000 -0.4812913774
O   O17       1.0  0.94020  0.20220  0.74710  1.0000 -0.5369153955
O   O18       1.0  0.05980  0.70220  0.75290  1.0000 -0.5369153955
O   O19       1.0  0.05980  0.79780  0.25290  1.0000 -0.5369153955
O   O20       1.0  0.94020  0.29780  0.24710  1.0000 -0.5369153955
O   O21       1.0  0.05480  0.06520  0.86870  1.0000 -0.4706325234
O   O22       1.0  0.94520  0.56520  0.63130  1.0000 -0.4706325234
O   O23       1.0  0.94520  0.93480  0.13130  1.0000 -0.4706325234
O   O24       1.0  0.05480  0.43480  0.36870  1.0000 -0.4706325234
O   O25       1.0  0.95430  0.25940  0.60670  1.0000 -0.5369153955
O   O26       1.0  0.04570  0.75940  0.89330  1.0000 -0.5369153955
O   O27       1.0  0.04570  0.74060  0.39330  1.0000 -0.5369153955
O   O28       1.0  0.95430  0.24060  0.10670  1.0000 -0.5369153955
O   O29       1.0  0.98320  0.20880  0.49980  1.0000 -0.4812913774
O   O30       1.0  0.01680  0.70880  0.00020  1.0000 -0.4812913774
O   O31       1.0  0.01680  0.79120  0.50020  1.0000 -0.4812913774
O   O32       1.0  0.98320  0.29120  0.99980  1.0000 -0.4812913774
O   O33       1.0  0.84570  0.91800  0.69680  1.0000 -0.5274117777
O   O34       1.0  0.15430  0.41800  0.80320  1.0000 -0.5274117777
O   O35       1.0  0.15430  0.08200  0.30320  1.0000 -0.5274117777
O   O36       1.0  0.84570  0.58200  0.19680  1.0000 -0.5274117777
O   O37       1.0  0.60530  0.89960  0.62690  1.0000 -0.4492379242
O   O38       1.0  0.39470  0.39960  0.87310  1.0000 -0.4492379242
O   O39       1.0  0.39470  0.10040  0.37310  1.0000 -0.4492379242
O   O40       1.0  0.60530  0.60040  0.12690  1.0000 -0.4492379242
O   O41       1.0  0.09040  0.99660  0.71850  1.0000 -0.5274117777
O   O42       1.0  0.90960  0.49660  0.78150  1.0000 -0.5274117777
O   O43       1.0  0.90960  0.00340  0.28150  1.0000 -0.5274117777
O   O44       1.0  0.09040  0.50340  0.21850  1.0000 -0.5274117777
O   O45       1.0  0.18190  0.99640  0.64050  1.0000 -0.4812913774
O   O46       1.0  0.81810  0.49640  0.85950  1.0000 -0.4812913774
O   O47       1.0  0.81810  0.00360  0.35950  1.0000 -0.4812913774
O   O48       1.0  0.18190  0.50360  0.14050  1.0000 -0.4812913774
