# DDEC6 charges by PACMAN v1.1 (https://github.com/mtap-research/PACMAN-charge/)
data_2005[Eu][nov]3[ASR]1
_chemical_formula_sum              "Eu8 H96 C164 N4 O52"
_cell_length_a       14.24
_cell_length_b       22.191
_cell_length_c       18.3364
_cell_angle_alpha    90
_cell_angle_beta     126.199
_cell_angle_gamma    90

_symmetry_space_group_name_H-M    "P 1"
_symmetry_Int_Tables_number       1

loop_
  _symmetry_equiv_pos_as_xyz
  'x, y, z'

loop_
  _atom_site_type_symbol
  _atom_site_label
  _atom_site_symmetry_multiplicity
  _atom_site_fract_x
  _atom_site_fract_y
  _atom_site_fract_z
  _atom_site_occupancy
  _atom_site_charge
Eu  Eu1       1.0  0.93438  0.72432  0.43594  1.0000 1.9971156245
Eu  Eu2       1.0  0.06562  0.22432  0.06406  1.0000 1.9971156245
Eu  Eu3       1.0  0.06562  0.27568  0.56406  1.0000 1.9971156245
Eu  Eu4       1.0  0.93438  0.77568  0.93594  1.0000 1.9971156245
Eu  Eu5       1.0  0.13232  0.75412  0.33457  1.0000 2.0170478945
Eu  Eu6       1.0  0.86768  0.25412  0.16543  1.0000 2.0170478945
Eu  Eu7       1.0  0.86768  0.24588  0.66543  1.0000 2.0170478945
Eu  Eu8       1.0  0.13232  0.74588  0.83457  1.0000 2.0170478945
H   H1        1.0  0.82390  0.77230  0.50040  1.0000 0.3589160865
H   H2        1.0  0.17610  0.27230  0.99960  1.0000 0.3589160865
H   H3        1.0  0.17610  0.22770  0.49960  1.0000 0.3589160865
H   H4        1.0  0.82390  0.72770  0.00040  1.0000 0.3589160865
H   H5        1.0  0.90050  0.74290  0.58480  1.0000 0.3965327343
H   H6        1.0  0.09950  0.24290  0.91520  1.0000 0.3965327343
H   H7        1.0  0.09950  0.25710  0.41520  1.0000 0.3965327343
H   H8        1.0  0.90050  0.75710  0.08480  1.0000 0.3965327343
H   H9        1.0  0.85010  0.55760  0.28820  1.0000 0.129664987
H   H10       1.0  0.14990  0.05760  0.21180  1.0000 0.129664987
H   H11       1.0  0.14990  0.44240  0.71180  1.0000 0.129664987
H   H12       1.0  0.85010  0.94240  0.78820  1.0000 0.129664987
H   H13       1.0  0.80730  0.45780  0.23980  1.0000 0.129664987
H   H14       1.0  0.19270  0.95780  0.26020  1.0000 0.129664987
H   H15       1.0  0.19270  0.54220  0.76020  1.0000 0.129664987
H   H16       1.0  0.80730  0.04220  0.73980  1.0000 0.129664987
H   H17       1.0  0.23920  0.57890  0.39920  1.0000 0.129664987
H   H18       1.0  0.76080  0.07890  0.10080  1.0000 0.129664987
H   H19       1.0  0.76080  0.42110  0.60080  1.0000 0.129664987
H   H20       1.0  0.23920  0.92110  0.89920  1.0000 0.129664987
H   H21       1.0  0.37850  0.51550  0.42190  1.0000 0.1079920698
H   H22       1.0  0.62150  0.01550  0.07810  1.0000 0.1079920698
H   H23       1.0  0.62150  0.48450  0.57810  1.0000 0.1079920698
H   H24       1.0  0.37850  0.98450  0.92190  1.0000 0.1079920698
H   H25       1.0  0.33580  0.41380  0.38220  1.0000 0.1079920698
H   H26       1.0  0.66420  0.91380  0.11780  1.0000 0.1079920698
H   H27       1.0  0.66420  0.58620  0.61780  1.0000 0.1079920698
H   H28       1.0  0.33580  0.08620  0.88220  1.0000 0.1079920698
H   H29       1.0  0.15310  0.37890  0.31580  1.0000 0.1193443821
H   H30       1.0  0.84690  0.87890  0.18420  1.0000 0.1193443821
H   H31       1.0  0.84690  0.62110  0.68420  1.0000 0.1193443821
H   H32       1.0  0.15310  0.12110  0.81580  1.0000 0.1193443821
H   H33       1.0  0.33620  0.70660  0.70090  1.0000 0.129664987
H   H34       1.0  0.66380  0.20660  0.79910  1.0000 0.129664987
H   H35       1.0  0.66380  0.29340  0.29910  1.0000 0.129664987
H   H36       1.0  0.33620  0.79340  0.20090  1.0000 0.129664987
H   H37       1.0  0.53620  0.71280  0.80030  1.0000 0.1193443821
H   H38       1.0  0.46380  0.21280  0.69970  1.0000 0.1193443821
H   H39       1.0  0.46380  0.28720  0.19970  1.0000 0.1193443821
H   H40       1.0  0.53620  0.78720  0.30030  1.0000 0.1193443821
H   H41       1.0  0.22990  0.86880  0.50880  1.0000 0.1193443821
H   H42       1.0  0.77010  0.36880  0.99120  1.0000 0.1193443821
H   H43       1.0  0.77010  0.13120  0.49120  1.0000 0.1193443821
H   H44       1.0  0.22990  0.63120  0.00880  1.0000 0.1193443821
H   H45       1.0  0.32500  0.94640  0.49870  1.0000 0.1079920698
H   H46       1.0  0.67500  0.44640  0.00130  1.0000 0.1079920698
H   H47       1.0  0.67500  0.05360  0.50130  1.0000 0.1079920698
H   H48       1.0  0.32500  0.55360  0.99870  1.0000 0.1079920698
H   H49       1.0  0.52530  0.95610  0.60350  1.0000 0.1017962769
H   H50       1.0  0.47470  0.45610  0.89650  1.0000 0.1017962769
H   H51       1.0  0.47470  0.04390  0.39650  1.0000 0.1017962769
H   H52       1.0  0.52530  0.54390  0.10350  1.0000 0.1017962769
H   H53       1.0  0.63050  0.88550  0.71240  1.0000 0.1193443821
H   H54       1.0  0.36950  0.38550  0.78760  1.0000 0.1193443821
H   H55       1.0  0.36950  0.11450  0.28760  1.0000 0.1193443821
H   H56       1.0  0.63050  0.61450  0.21240  1.0000 0.1193443821
H   H57       1.0  0.70650  0.80520  0.19500  1.0000 0.1193443821
H   H58       1.0  0.29350  0.30520  0.30500  1.0000 0.1193443821
H   H59       1.0  0.29350  0.19480  0.80500  1.0000 0.1193443821
H   H60       1.0  0.70650  0.69480  0.69500  1.0000 0.1193443821
H   H61       1.0  0.50640  0.80750  0.07990  1.0000 0.1193443821
H   H62       1.0  0.49360  0.30750  0.42010  1.0000 0.1193443821
H   H63       1.0  0.49360  0.19250  0.92010  1.0000 0.1193443821
H   H64       1.0  0.50640  0.69250  0.57990  1.0000 0.1193443821
H   H65       1.0  0.84100  0.64020  0.13300  1.0000 0.1193443821
H   H66       1.0  0.15900  0.14020  0.36700  1.0000 0.1193443821
H   H67       1.0  0.15900  0.35980  0.86700  1.0000 0.1193443821
H   H68       1.0  0.84100  0.85980  0.63300  1.0000 0.1193443821
H   H69       1.0  0.76220  0.56830  0.02060  1.0000 0.1079920698
H   H70       1.0  0.23780  0.06830  0.47940  1.0000 0.1079920698
H   H71       1.0  0.23780  0.43170  0.97940  1.0000 0.1079920698
H   H72       1.0  0.76220  0.93170  0.52060  1.0000 0.1079920698
H   H73       1.0  0.56330  0.57160  0.90370  1.0000 0.1079920698
H   H74       1.0  0.43670  0.07160  0.59630  1.0000 0.1079920698
H   H75       1.0  0.43670  0.42840  0.09630  1.0000 0.1079920698
H   H76       1.0  0.56330  0.92840  0.40370  1.0000 0.1079920698
H   H77       1.0  0.44770  0.64360  0.89840  1.0000 0.129664987
H   H78       1.0  0.55230  0.14360  0.60160  1.0000 0.129664987
H   H79       1.0  0.55230  0.35640  0.10160  1.0000 0.129664987
H   H80       1.0  0.44770  0.85640  0.39840  1.0000 0.129664987
H   H81       1.0  0.90110  0.86240  0.34330  1.0000 0.1079920698
H   H82       1.0  0.09890  0.36240  0.15670  1.0000 0.1079920698
H   H83       1.0  0.09890  0.13760  0.65670  1.0000 0.1079920698
H   H84       1.0  0.90110  0.63760  0.84330  1.0000 0.1079920698
H   H85       1.0  0.93410  0.96460  0.36270  1.0000 0.129664987
H   H86       1.0  0.06590  0.46460  0.13730  1.0000 0.129664987
H   H87       1.0  0.06590  0.03540  0.63730  1.0000 0.129664987
H   H88       1.0  0.93410  0.53540  0.86270  1.0000 0.129664987
H   H89       1.0  0.03100  0.94350  0.61490  1.0000 0.1361412977
H   H90       1.0  0.96900  0.44350  0.88510  1.0000 0.1361412977
H   H91       1.0  0.96900  0.05650  0.38510  1.0000 0.1361412977
H   H92       1.0  0.03100  0.55650  0.11490  1.0000 0.1361412977
H   H93       1.0  0.00270  0.84330  0.58880  1.0000 0.1017962769
H   H94       1.0  0.99730  0.34330  0.91120  1.0000 0.1017962769
H   H95       1.0  0.99730  0.15670  0.41120  1.0000 0.1017962769
H   H96       1.0  0.00270  0.65670  0.08880  1.0000 0.1017962769
C   C1        1.0  0.03320  0.62200  0.35450  1.0000 0.6503315096
C   C2        1.0  0.96680  0.12200  0.14550  1.0000 0.6503315096
C   C3        1.0  0.96680  0.37800  0.64550  1.0000 0.6503315096
C   C4        1.0  0.03320  0.87800  0.85450  1.0000 0.6503315096
C   C5        1.0  0.01490  0.55620  0.32920  1.0000 -0.0776346276
C   C6        1.0  0.98510  0.05620  0.17080  1.0000 -0.0776346276
C   C7        1.0  0.98510  0.44380  0.67080  1.0000 -0.0776346276
C   C8        1.0  0.01490  0.94380  0.82920  1.0000 -0.0776346276
C   C9        1.0  0.90720  0.53320  0.29390  1.0000 -0.1096279348
C   C10       1.0  0.09280  0.03320  0.20610  1.0000 -0.1096279348
C   C11       1.0  0.09280  0.46680  0.70610  1.0000 -0.1096279348
C   C12       1.0  0.90720  0.96680  0.79390  1.0000 -0.1096279348
C   C13       1.0  0.88190  0.47250  0.26590  1.0000 -0.1304940923
C   C14       1.0  0.11810  0.97250  0.23410  1.0000 -0.1304940923
C   C15       1.0  0.11810  0.52750  0.73410  1.0000 -0.1304940923
C   C16       1.0  0.88190  0.02750  0.76590  1.0000 -0.1304940923
C   C17       1.0  0.96460  0.43530  0.27650  1.0000 -0.0417789301
C   C18       1.0  0.03540  0.93530  0.22350  1.0000 -0.0417789301
C   C19       1.0  0.03540  0.56470  0.72350  1.0000 -0.0417789301
C   C20       1.0  0.96460  0.06470  0.77650  1.0000 -0.0417789301
C   C21       1.0  0.07930  0.45720  0.31640  1.0000 0.0502174472
C   C22       1.0  0.92070  0.95720  0.18360  1.0000 0.0502174472
C   C23       1.0  0.92070  0.54280  0.68360  1.0000 0.0502174472
C   C24       1.0  0.07930  0.04280  0.81640  1.0000 0.0502174472
C   C25       1.0  0.10400  0.51880  0.34100  1.0000 0.0589263132
C   C26       1.0  0.89600  0.01880  0.15900  1.0000 0.0589263132
C   C27       1.0  0.89600  0.48120  0.65900  1.0000 0.0589263132
C   C28       1.0  0.10400  0.98120  0.84100  1.0000 0.0589263132
C   C29       1.0  0.22050  0.53880  0.38190  1.0000 -0.1304940923
C   C30       1.0  0.77950  0.03880  0.11810  1.0000 -0.1304940923
C   C31       1.0  0.77950  0.46120  0.61810  1.0000 -0.1304940923
C   C32       1.0  0.22050  0.96120  0.88190  1.0000 -0.1304940923
C   C33       1.0  0.30360  0.50120  0.39590  1.0000 -0.1096279348
C   C34       1.0  0.69640  0.00120  0.10410  1.0000 -0.1096279348
C   C35       1.0  0.69640  0.49880  0.60410  1.0000 -0.1096279348
C   C36       1.0  0.30360  0.99880  0.89590  1.0000 -0.1096279348
C   C37       1.0  0.27770  0.43990  0.37140  1.0000 -0.0994478945
C   C38       1.0  0.72230  0.93990  0.12860  1.0000 -0.0994478945
C   C39       1.0  0.72230  0.56010  0.62860  1.0000 -0.0994478945
C   C40       1.0  0.27770  0.06010  0.87140  1.0000 -0.0994478945
C   C41       1.0  0.16930  0.41920  0.33250  1.0000 -0.1443479086
C   C42       1.0  0.83070  0.91920  0.16750  1.0000 -0.1443479086
C   C43       1.0  0.83070  0.58080  0.66750  1.0000 -0.1443479086
C   C44       1.0  0.16930  0.08080  0.83250  1.0000 -0.1443479086
C   C45       1.0  0.93350  0.37160  0.24310  1.0000 0.5719878202
C   C46       1.0  0.06650  0.87160  0.25690  1.0000 0.5719878202
C   C47       1.0  0.06650  0.62840  0.75690  1.0000 0.5719878202
C   C48       1.0  0.93350  0.12840  0.74310  1.0000 0.5719878202
C   C49       1.0  0.18640  0.76240  0.55370  1.0000 0.6185076063
C   C50       1.0  0.81360  0.26240  0.94630  1.0000 0.6185076063
C   C51       1.0  0.81360  0.23760  0.44630  1.0000 0.6185076063
C   C52       1.0  0.18640  0.73760  0.05370  1.0000 0.6185076063
C   C53       1.0  0.31300  0.77570  0.62150  1.0000 -0.0591012928
C   C54       1.0  0.68700  0.27570  0.87850  1.0000 -0.0591012928
C   C55       1.0  0.68700  0.22430  0.37850  1.0000 -0.0591012928
C   C56       1.0  0.31300  0.72430  0.12150  1.0000 -0.0591012928
C   C57       1.0  0.37520  0.73660  0.69310  1.0000 -0.1096279348
C   C58       1.0  0.62480  0.23660  0.80690  1.0000 -0.1096279348
C   C59       1.0  0.62480  0.26340  0.30690  1.0000 -0.1096279348
C   C60       1.0  0.37520  0.76340  0.19310  1.0000 -0.1096279348
C   C61       1.0  0.49600  0.74120  0.75430  1.0000 -0.1096279348
C   C62       1.0  0.50400  0.24120  0.74570  1.0000 -0.1096279348
C   C63       1.0  0.50400  0.25880  0.24570  1.0000 -0.1096279348
C   C64       1.0  0.49600  0.75880  0.25430  1.0000 -0.1096279348
C   C65       1.0  0.55680  0.78610  0.74870  1.0000 -0.0591012928
C   C66       1.0  0.44320  0.28610  0.75130  1.0000 -0.0591012928
C   C67       1.0  0.44320  0.21390  0.25130  1.0000 -0.0591012928
C   C68       1.0  0.55680  0.71390  0.24870  1.0000 -0.0591012928
C   C69       1.0  0.49570  0.83160  0.68160  1.0000 0.0502174472
C   C70       1.0  0.50430  0.33160  0.81840  1.0000 0.0502174472
C   C71       1.0  0.50430  0.16840  0.31840  1.0000 0.0502174472
C   C72       1.0  0.49570  0.66840  0.18160  1.0000 0.0502174472
C   C73       1.0  0.37130  0.82500  0.61590  1.0000 0.0589263132
C   C74       1.0  0.62870  0.32500  0.88410  1.0000 0.0589263132
C   C75       1.0  0.62870  0.17500  0.38410  1.0000 0.0589263132
C   C76       1.0  0.37130  0.67500  0.11590  1.0000 0.0589263132
C   C77       1.0  0.31050  0.87110  0.54950  1.0000 -0.1304940923
C   C78       1.0  0.68950  0.37110  0.95050  1.0000 -0.1304940923
C   C79       1.0  0.68950  0.12890  0.45050  1.0000 -0.1304940923
C   C80       1.0  0.31050  0.62890  0.04950  1.0000 -0.1304940923
C   C81       1.0  0.36650  0.91780  0.54410  1.0000 -0.089789855
C   C82       1.0  0.63350  0.41780  0.95590  1.0000 -0.089789855
C   C83       1.0  0.63350  0.08220  0.45590  1.0000 -0.089789855
C   C84       1.0  0.36650  0.58220  0.04410  1.0000 -0.089789855
C   C85       1.0  0.48740  0.92320  0.60690  1.0000 -0.0994478945
C   C86       1.0  0.51260  0.42320  0.89310  1.0000 -0.0994478945
C   C87       1.0  0.51260  0.07680  0.39310  1.0000 -0.0994478945
C   C88       1.0  0.48740  0.57680  0.10690  1.0000 -0.0994478945
C   C89       1.0  0.55010  0.88140  0.67250  1.0000 -0.1304940923
C   C90       1.0  0.44990  0.38140  0.82750  1.0000 -0.1304940923
C   C91       1.0  0.44990  0.11860  0.32750  1.0000 -0.1304940923
C   C92       1.0  0.55010  0.61860  0.17250  1.0000 -0.1304940923
C   C93       1.0  0.68860  0.78350  0.81620  1.0000 0.5719878202
C   C94       1.0  0.31140  0.28350  0.68380  1.0000 0.5719878202
C   C95       1.0  0.31140  0.21650  0.18380  1.0000 0.5719878202
C   C96       1.0  0.68860  0.71650  0.31620  1.0000 0.5719878202
C   C97       1.0  0.87140  0.74160  0.21990  1.0000 0.6185076063
C   C98       1.0  0.12860  0.24160  0.28010  1.0000 0.6185076063
C   C99       1.0  0.12860  0.25840  0.78010  1.0000 0.6185076063
C   C100      1.0  0.87140  0.75840  0.71990  1.0000 0.6185076063
C   C101      1.0  0.74240  0.73510  0.14960  1.0000 -0.0591012928
C   C102      1.0  0.25760  0.23510  0.35040  1.0000 -0.0591012928
C   C103      1.0  0.25760  0.26490  0.85040  1.0000 -0.0591012928
C   C104      1.0  0.74240  0.76490  0.64960  1.0000 -0.0591012928
C   C105      1.0  0.67390  0.77660  0.14910  1.0000 -0.1096279348
C   C106      1.0  0.32610  0.27660  0.35090  1.0000 -0.1096279348
C   C107      1.0  0.32610  0.22340  0.85090  1.0000 -0.1096279348
C   C108      1.0  0.67390  0.72340  0.64910  1.0000 -0.1096279348
C   C109      1.0  0.55250  0.77780  0.07990  1.0000 -0.1096279348
C   C110      1.0  0.44750  0.27780  0.42010  1.0000 -0.1096279348
C   C111      1.0  0.44750  0.22220  0.92010  1.0000 -0.1096279348
C   C112      1.0  0.55250  0.72220  0.57990  1.0000 -0.1096279348
C   C113      1.0  0.50330  0.73510  0.01320  1.0000 -0.0417789301
C   C114      1.0  0.49670  0.23510  0.48680  1.0000 -0.0417789301
C   C115      1.0  0.49670  0.26490  0.98680  1.0000 -0.0417789301
C   C116      1.0  0.50330  0.76490  0.51320  1.0000 -0.0417789301
C   C117      1.0  0.57180  0.68960  0.01270  1.0000 0.0589263132
C   C118      1.0  0.42820  0.18960  0.48730  1.0000 0.0589263132
C   C119      1.0  0.42820  0.31040  0.98730  1.0000 0.0589263132
C   C120      1.0  0.57180  0.81040  0.51270  1.0000 0.0589263132
C   C121      1.0  0.69380  0.68870  0.08220  1.0000 0.0589263132
C   C122      1.0  0.30620  0.18870  0.41780  1.0000 0.0589263132
C   C123      1.0  0.30620  0.31130  0.91780  1.0000 0.0589263132
C   C124      1.0  0.69380  0.81130  0.58220  1.0000 0.0589263132
C   C125      1.0  0.76230  0.64190  0.08520  1.0000 -0.1541451985
C   C126      1.0  0.23770  0.14190  0.41480  1.0000 -0.1541451985
C   C127      1.0  0.23770  0.35810  0.91480  1.0000 -0.1541451985
C   C128      1.0  0.76230  0.85810  0.58520  1.0000 -0.1541451985
C   C129      1.0  0.71560  0.59840  0.01900  1.0000 -0.0994478945
C   C130      1.0  0.28440  0.09840  0.48100  1.0000 -0.0994478945
C   C131      1.0  0.28440  0.40160  0.98100  1.0000 -0.0994478945
C   C132      1.0  0.71560  0.90160  0.51900  1.0000 -0.0994478945
C   C133      1.0  0.59580  0.60070  0.94900  1.0000 -0.0994478945
C   C134      1.0  0.40420  0.10070  0.55100  1.0000 -0.0994478945
C   C135      1.0  0.40420  0.39930  0.05100  1.0000 -0.0994478945
C   C136      1.0  0.59580  0.89930  0.44900  1.0000 -0.0994478945
C   C137      1.0  0.52670  0.64380  0.94560  1.0000 -0.1202074165
C   C138      1.0  0.47330  0.14380  0.55440  1.0000 -0.1202074165
C   C139      1.0  0.47330  0.35620  0.05440  1.0000 -0.1202074165
C   C140      1.0  0.52670  0.85620  0.44560  1.0000 -0.1202074165
C   C141      1.0  0.37230  0.73910  0.94720  1.0000 0.5719878202
C   C142      1.0  0.62770  0.23910  0.55280  1.0000 0.5719878202
C   C143      1.0  0.62770  0.26090  0.05280  1.0000 0.5719878202
C   C144      1.0  0.37230  0.76090  0.44720  1.0000 0.5719878202
C   C145      1.0  0.93120  0.87860  0.39990  1.0000 0.129664987
C   C146      1.0  0.06880  0.37860  0.10010  1.0000 0.129664987
C   C147      1.0  0.06880  0.12140  0.60010  1.0000 0.129664987
C   C148      1.0  0.93120  0.62140  0.89990  1.0000 0.129664987
C   C149      1.0  0.94920  0.94100  0.41050  1.0000 -0.1906174148
C   C150      1.0  0.05080  0.44100  0.08950  1.0000 -0.1906174148
C   C151      1.0  0.05080  0.05900  0.58950  1.0000 -0.1906174148
C   C152      1.0  0.94920  0.55900  0.91050  1.0000 -0.1906174148
C   C153      1.0  0.98970  0.96760  0.49290  1.0000 0.1017962769
C   C154      1.0  0.01030  0.46760  0.00710  1.0000 0.1017962769
C   C155      1.0  0.01030  0.03240  0.50710  1.0000 0.1017962769
C   C156      1.0  0.98970  0.53240  0.99290  1.0000 0.1017962769
C   C157      1.0  0.00710  0.92840  0.55910  1.0000 -0.1906174148
C   C158      1.0  0.99290  0.42840  0.94090  1.0000 -0.1906174148
C   C159      1.0  0.99290  0.07160  0.44090  1.0000 -0.1906174148
C   C160      1.0  0.00710  0.57160  0.05910  1.0000 -0.1906174148
C   C161      1.0  0.98920  0.86790  0.54250  1.0000 0.0589263132
C   C162      1.0  0.01080  0.36790  0.95750  1.0000 0.0589263132
C   C163      1.0  0.01080  0.13210  0.45750  1.0000 0.0589263132
C   C164      1.0  0.98920  0.63210  0.04250  1.0000 0.0589263132
N   N1        1.0  0.95350  0.84150  0.46370  1.0000 -0.3474929432
N   N2        1.0  0.04650  0.34150  0.03630  1.0000 -0.3474929432
N   N3        1.0  0.04650  0.15850  0.53630  1.0000 -0.3474929432
N   N4        1.0  0.95350  0.65850  0.96370  1.0000 -0.3474929432
O   O1        1.0  0.98390  0.64222  0.38750  1.0000 -0.6732710475
O   O2        1.0  0.01610  0.14222  0.11250  1.0000 -0.6732710475
O   O3        1.0  0.01610  0.35778  0.61250  1.0000 -0.6732710475
O   O4        1.0  0.98390  0.85778  0.88750  1.0000 -0.6732710475
O   O5        1.0  0.09560  0.65238  0.34190  1.0000 -0.645735609
O   O6        1.0  0.90440  0.15238  0.15810  1.0000 -0.645735609
O   O7        1.0  0.90440  0.34762  0.65810  1.0000 -0.645735609
O   O8        1.0  0.09560  0.84762  0.84190  1.0000 -0.645735609
O   O9        1.0  0.91350  0.33425  0.28330  1.0000 -0.5931666071
O   O10       1.0  0.08650  0.83425  0.21670  1.0000 -0.5931666071
O   O11       1.0  0.08650  0.66575  0.71670  1.0000 -0.5931666071
O   O12       1.0  0.91350  0.16575  0.78330  1.0000 -0.5931666071
O   O13       1.0  0.92760  0.35770  0.17400  1.0000 -0.6250764007
O   O14       1.0  0.07240  0.85770  0.32600  1.0000 -0.6250764007
O   O15       1.0  0.07240  0.64230  0.82600  1.0000 -0.6250764007
O   O16       1.0  0.92760  0.14230  0.67400  1.0000 -0.6250764007
O   O17       1.0  0.13940  0.76308  0.46920  1.0000 -0.7257953758
O   O18       1.0  0.86060  0.26308  0.03080  1.0000 -0.7257953758
O   O19       1.0  0.86060  0.23692  0.53080  1.0000 -0.7257953758
O   O20       1.0  0.13940  0.73692  0.96920  1.0000 -0.7257953758
O   O21       1.0  0.12780  0.74689  0.58140  1.0000 -0.617931849
O   O22       1.0  0.87220  0.24689  0.91860  1.0000 -0.617931849
O   O23       1.0  0.87220  0.25311  0.41860  1.0000 -0.617931849
O   O24       1.0  0.12780  0.75311  0.08140  1.0000 -0.617931849
O   O25       1.0  0.73480  0.73272  0.84930  1.0000 -0.6393407012
O   O26       1.0  0.26520  0.23272  0.65070  1.0000 -0.6393407012
O   O27       1.0  0.26520  0.26728  0.15070  1.0000 -0.6393407012
O   O28       1.0  0.73480  0.76728  0.34930  1.0000 -0.6393407012
O   O29       1.0  0.74990  0.82950  0.83910  1.0000 -0.5931666071
O   O30       1.0  0.25010  0.32950  0.66090  1.0000 -0.5931666071
O   O31       1.0  0.25010  0.17050  0.16090  1.0000 -0.5931666071
O   O32       1.0  0.74990  0.67050  0.33910  1.0000 -0.5931666071
O   O33       1.0  0.91120  0.75552  0.30040  1.0000 -0.7054368431
O   O34       1.0  0.08880  0.25552  0.19960  1.0000 -0.7054368431
O   O35       1.0  0.08880  0.24448  0.69960  1.0000 -0.7054368431
O   O36       1.0  0.91120  0.74448  0.80040  1.0000 -0.7054368431
O   O37       1.0  0.93710  0.73660  0.19620  1.0000 -0.617931849
O   O38       1.0  0.06290  0.23660  0.30380  1.0000 -0.617931849
O   O39       1.0  0.06290  0.26340  0.80380  1.0000 -0.617931849
O   O40       1.0  0.93710  0.76340  0.69620  1.0000 -0.617931849
O   O41       1.0  0.31440  0.69590  0.89610  1.0000 -0.617931849
O   O42       1.0  0.68560  0.19590  0.60390  1.0000 -0.617931849
O   O43       1.0  0.68560  0.30410  0.10390  1.0000 -0.617931849
O   O44       1.0  0.31440  0.80410  0.39610  1.0000 -0.617931849
O   O45       1.0  0.32360  0.78664  0.94610  1.0000 -0.617931849
O   O46       1.0  0.67640  0.28664  0.55390  1.0000 -0.617931849
O   O47       1.0  0.67640  0.21336  0.05390  1.0000 -0.617931849
O   O48       1.0  0.32360  0.71336  0.44610  1.0000 -0.617931849
O   O49       1.0  0.86490  0.74116  0.52790  1.0000 -0.7745704526
O   O50       1.0  0.13510  0.24116  0.97210  1.0000 -0.7745704526
O   O51       1.0  0.13510  0.25884  0.47210  1.0000 -0.7745704526
O   O52       1.0  0.86490  0.75884  0.02790  1.0000 -0.7745704526
