# DDEC6 charges by PACMAN v1.1 (https://github.com/mtap-research/PACMAN-charge/)
data_2005[Zn][pcu]3[ASR]4
_chemical_formula_sum              "Zn8 H24 C48 O26"
_cell_length_a       18.3056
_cell_length_b       18.3056
_cell_length_c       18.3056
_cell_angle_alpha    60
_cell_angle_beta     60
_cell_angle_gamma    60

_symmetry_space_group_name_H-M    "P 1"
_symmetry_Int_Tables_number       1

loop_
  _symmetry_equiv_pos_as_xyz
  'x, y, z'

loop_
  _atom_site_type_symbol
  _atom_site_label
  _atom_site_symmetry_multiplicity
  _atom_site_fract_x
  _atom_site_fract_y
  _atom_site_fract_z
  _atom_site_occupancy
  _atom_site_charge
Zn  Zn1       1.0  0.20656  0.20656  0.38032  1.0000 0.9495277184
Zn  Zn2       1.0  0.38032  0.20656  0.20656  1.0000 0.9495277184
Zn  Zn3       1.0  0.20656  0.38032  0.20656  1.0000 0.9495277184
Zn  Zn4       1.0  0.79344  0.79344  0.79344  1.0000 0.9495277184
Zn  Zn5       1.0  0.61968  0.79344  0.79344  1.0000 0.9495277184
Zn  Zn6       1.0  0.79344  0.61968  0.79344  1.0000 0.9495277184
Zn  Zn7       1.0  0.79344  0.79344  0.61968  1.0000 0.9495277184
Zn  Zn8       1.0  0.20656  0.20656  0.20656  1.0000 0.9495277184
H   H1        1.0  0.34410  0.04450  0.56690  1.0000 0.1240313122
H   H2        1.0  0.56690  0.34410  0.04450  1.0000 0.1240313122
H   H3        1.0  0.04450  0.56690  0.34410  1.0000 0.1240313122
H   H4        1.0  0.65590  0.95550  0.95550  1.0000 0.1240313122
H   H5        1.0  0.43310  0.95550  0.95550  1.0000 0.1240313122
H   H6        1.0  0.95550  0.43310  0.65590  1.0000 0.1240313122
H   H7        1.0  0.43310  0.65590  0.95550  1.0000 0.1240313122
H   H8        1.0  0.95550  0.95550  0.43310  1.0000 0.1252065377
H   H9        1.0  0.95550  0.95550  0.65590  1.0000 0.1240313122
H   H10       1.0  0.95550  0.43310  0.95550  1.0000 0.1240313122
H   H11       1.0  0.65590  0.95550  0.43310  1.0000 0.1240313122
H   H12       1.0  0.95550  0.65590  0.95550  1.0000 0.1240313122
H   H13       1.0  0.04450  0.34410  0.04450  1.0000 0.1240313122
H   H14       1.0  0.56690  0.04450  0.34410  1.0000 0.1240313122
H   H15       1.0  0.04450  0.56690  0.04450  1.0000 0.1252065377
H   H16       1.0  0.04450  0.04450  0.34410  1.0000 0.1240313122
H   H17       1.0  0.34410  0.56690  0.04450  1.0000 0.1252065377
H   H18       1.0  0.04450  0.04450  0.56690  1.0000 0.1240313122
H   H19       1.0  0.34410  0.04450  0.04450  1.0000 0.1240313122
H   H20       1.0  0.04450  0.34410  0.56690  1.0000 0.1240313122
H   H21       1.0  0.56690  0.04450  0.04450  1.0000 0.1240313122
H   H22       1.0  0.95550  0.65590  0.43310  1.0000 0.1240313122
H   H23       1.0  0.65590  0.43310  0.95550  1.0000 0.1240313122
H   H24       1.0  0.43310  0.95550  0.65590  1.0000 0.1240313122
C   C1        1.0  0.38842  0.11158  0.38842  1.0000 0.5956491904
C   C2        1.0  0.38842  0.38842  0.11158  1.0000 0.5956491904
C   C3        1.0  0.11158  0.38842  0.38842  1.0000 0.5956491904
C   C4        1.0  0.61158  0.88842  0.88842  1.0000 0.5956491904
C   C5        1.0  0.88842  0.61158  0.61158  1.0000 0.5956491904
C   C6        1.0  0.61158  0.61158  0.88842  1.0000 0.5956491904
C   C7        1.0  0.88842  0.88842  0.61158  1.0000 0.5956491904
C   C8        1.0  0.88842  0.61158  0.88842  1.0000 0.5956491904
C   C9        1.0  0.61158  0.88842  0.61158  1.0000 0.5956491904
C   C10       1.0  0.11158  0.38842  0.11158  1.0000 0.5956491904
C   C11       1.0  0.11158  0.11158  0.38842  1.0000 0.5956491904
C   C12       1.0  0.38842  0.11158  0.11158  1.0000 0.5956491904
C   C13       1.0  0.44631  0.05369  0.44631  1.0000 -0.0302443737
C   C14       1.0  0.44631  0.44631  0.05369  1.0000 -0.0302443737
C   C15       1.0  0.05369  0.44631  0.44631  1.0000 -0.0302443737
C   C16       1.0  0.55369  0.94631  0.94631  1.0000 -0.0302443737
C   C17       1.0  0.94631  0.55369  0.55369  1.0000 -0.0302443737
C   C18       1.0  0.55369  0.55369  0.94631  1.0000 -0.0302443737
C   C19       1.0  0.94631  0.94631  0.55369  1.0000 -0.0302443737
C   C20       1.0  0.94631  0.55369  0.94631  1.0000 -0.0302443737
C   C21       1.0  0.55369  0.94631  0.55369  1.0000 -0.0302443737
C   C22       1.0  0.05369  0.44631  0.05369  1.0000 -0.0302443737
C   C23       1.0  0.05369  0.05369  0.44631  1.0000 -0.0302443737
C   C24       1.0  0.44631  0.05369  0.05369  1.0000 -0.0302443737
C   C25       1.0  0.40781  0.02667  0.53885  1.0000 -0.0946031509
C   C26       1.0  0.53885  0.40781  0.02667  1.0000 -0.0957227869
C   C27       1.0  0.02667  0.53885  0.40781  1.0000 -0.0946031509
C   C28       1.0  0.59219  0.97333  0.97333  1.0000 -0.0946031509
C   C29       1.0  0.46115  0.97333  0.97333  1.0000 -0.0946031509
C   C30       1.0  0.97333  0.46115  0.59219  1.0000 -0.0946031509
C   C31       1.0  0.46115  0.59219  0.97333  1.0000 -0.0946031509
C   C32       1.0  0.97333  0.97333  0.46115  1.0000 -0.0946031509
C   C33       1.0  0.97333  0.97333  0.59219  1.0000 -0.0946031509
C   C34       1.0  0.97333  0.46115  0.97333  1.0000 -0.0946031509
C   C35       1.0  0.59219  0.97333  0.46115  1.0000 -0.0946031509
C   C36       1.0  0.97333  0.59219  0.97333  1.0000 -0.0946031509
C   C37       1.0  0.02667  0.40781  0.02667  1.0000 -0.0957227869
C   C38       1.0  0.53885  0.02667  0.40781  1.0000 -0.0946031509
C   C39       1.0  0.02667  0.53885  0.02667  1.0000 -0.0957227869
C   C40       1.0  0.02667  0.02667  0.40781  1.0000 -0.0946031509
C   C41       1.0  0.40781  0.53885  0.02667  1.0000 -0.0946031509
C   C42       1.0  0.02667  0.02667  0.53885  1.0000 -0.0946031509
C   C43       1.0  0.40781  0.02667  0.02667  1.0000 -0.0946031509
C   C44       1.0  0.02667  0.40781  0.53885  1.0000 -0.0946031509
C   C45       1.0  0.53885  0.02667  0.02667  1.0000 -0.0946031509
C   C46       1.0  0.97333  0.59219  0.46115  1.0000 -0.0946031509
C   C47       1.0  0.59219  0.46115  0.97333  1.0000 -0.0946031509
C   C48       1.0  0.46115  0.97333  0.59219  1.0000 -0.0946031509
O   O1        1.0  0.25000  0.25000  0.25000  1.0000 -1.0404375715
O   O2        1.0  0.75000  0.75000  0.75000  1.0000 -1.0404375715
O   O3        1.0  0.30510  0.13368  0.42754  1.0000 -0.5419436269
O   O4        1.0  0.42754  0.30510  0.13368  1.0000 -0.5419436269
O   O5        1.0  0.13368  0.42754  0.30510  1.0000 -0.5419436269
O   O6        1.0  0.69490  0.86632  0.86632  1.0000 -0.5419436269
O   O7        1.0  0.57246  0.86632  0.86632  1.0000 -0.5419436269
O   O8        1.0  0.86632  0.57246  0.69490  1.0000 -0.5419436269
O   O9        1.0  0.57246  0.69490  0.86632  1.0000 -0.5419436269
O   O10       1.0  0.86632  0.86632  0.57246  1.0000 -0.5419436269
O   O11       1.0  0.86632  0.86632  0.69490  1.0000 -0.5419436269
O   O12       1.0  0.86632  0.57246  0.86632  1.0000 -0.5419436269
O   O13       1.0  0.69490  0.86632  0.57246  1.0000 -0.5419436269
O   O14       1.0  0.86632  0.69490  0.86632  1.0000 -0.5419436269
O   O15       1.0  0.13368  0.30510  0.13368  1.0000 -0.5419436269
O   O16       1.0  0.42754  0.13368  0.30510  1.0000 -0.5419436269
O   O17       1.0  0.13368  0.42754  0.13368  1.0000 -0.5419436269
O   O18       1.0  0.13368  0.13368  0.30510  1.0000 -0.5419436269
O   O19       1.0  0.30510  0.42754  0.13368  1.0000 -0.5419436269
O   O20       1.0  0.13368  0.13368  0.42754  1.0000 -0.5419436269
O   O21       1.0  0.30510  0.13368  0.13368  1.0000 -0.5419436269
O   O22       1.0  0.13368  0.30510  0.42754  1.0000 -0.5419436269
O   O23       1.0  0.42754  0.13368  0.13368  1.0000 -0.5419436269
O   O24       1.0  0.86632  0.69490  0.57246  1.0000 -0.5419436269
O   O25       1.0  0.69490  0.57246  0.86632  1.0000 -0.5419436269
O   O26       1.0  0.57246  0.86632  0.69490  1.0000 -0.5419436269
