# DDEC6 charges by PACMAN v1.1 (https://github.com/mtap-research/PACMAN-charge/)
data_2005[Zn][nan]3[ASR]4
_chemical_formula_sum              "Zn16 H64 C96 N48 O32"
_cell_length_a       13.475
_cell_length_b       26.949
_cell_length_c       18.1989
_cell_angle_alpha    90
_cell_angle_beta     132.331
_cell_angle_gamma    90

_symmetry_space_group_name_H-M    "P 1"
_symmetry_Int_Tables_number       1

loop_
  _symmetry_equiv_pos_as_xyz
  'x, y, z'

loop_
  _atom_site_type_symbol
  _atom_site_label
  _atom_site_symmetry_multiplicity
  _atom_site_fract_x
  _atom_site_fract_y
  _atom_site_fract_z
  _atom_site_occupancy
  _atom_site_charge
Zn  Zn1       1.0  0.64049  0.02402  0.86237  1.0000 0.6611207978
Zn  Zn2       1.0  0.35951  0.52402  0.63763  1.0000 0.6611207978
Zn  Zn3       1.0  0.35951  0.97598  0.13763  1.0000 0.6611207978
Zn  Zn4       1.0  0.64049  0.47598  0.36237  1.0000 0.6611207978
Zn  Zn5       1.0  0.10973  0.05428  0.74262  1.0000 0.6695316986
Zn  Zn6       1.0  0.89027  0.55428  0.75738  1.0000 0.6695316986
Zn  Zn7       1.0  0.89027  0.94572  0.25738  1.0000 0.6695316986
Zn  Zn8       1.0  0.10973  0.44572  0.24262  1.0000 0.6695316986
Zn  Zn9       1.0  0.42666  0.92425  0.68431  1.0000 0.6695316986
Zn  Zn10      1.0  0.57334  0.42425  0.81569  1.0000 0.6695316986
Zn  Zn11      1.0  0.57334  0.07575  0.31569  1.0000 0.6695316986
Zn  Zn12      1.0  0.42666  0.57575  0.18431  1.0000 0.6695316986
Zn  Zn13      1.0  0.10422  0.04392  0.29313  1.0000 0.6695316986
Zn  Zn14      1.0  0.89578  0.54392  0.20687  1.0000 0.6695316986
Zn  Zn15      1.0  0.89578  0.95608  0.70687  1.0000 0.6695316986
Zn  Zn16      1.0  0.10422  0.45608  0.79313  1.0000 0.6695316986
H   H1        1.0  0.59850  0.92160  0.61970  1.0000 0.1290213896
H   H2        1.0  0.40150  0.42160  0.88030  1.0000 0.1290213896
H   H3        1.0  0.40150  0.07840  0.38030  1.0000 0.1290213896
H   H4        1.0  0.59850  0.57840  0.11970  1.0000 0.1290213896
H   H5        1.0  0.88490  0.09660  0.52360  1.0000 0.1290213896
H   H6        1.0  0.11510  0.59660  0.97640  1.0000 0.1290213896
H   H7        1.0  0.11510  0.90340  0.47640  1.0000 0.1290213896
H   H8        1.0  0.88490  0.40340  0.02360  1.0000 0.1290213896
H   H9        1.0  0.64950  0.98990  0.47590  1.0000 0.1211181016
H   H10       1.0  0.35050  0.48990  0.02410  1.0000 0.1211181016
H   H11       1.0  0.35050  0.01010  0.52410  1.0000 0.1211181016
H   H12       1.0  0.64950  0.51010  0.97590  1.0000 0.1211181016
H   H13       1.0  0.16900  0.96860  0.65170  1.0000 0.1211181016
H   H14       1.0  0.83100  0.46860  0.84830  1.0000 0.1211181016
H   H15       1.0  0.83100  0.03140  0.34830  1.0000 0.1211181016
H   H16       1.0  0.16900  0.53140  0.15170  1.0000 0.1211181016
H   H17       1.0  0.70030  0.94500  0.02010  1.0000 0.1290213896
H   H18       1.0  0.29970  0.44500  0.47990  1.0000 0.1290213896
H   H19       1.0  0.29970  0.05500  0.97990  1.0000 0.1290213896
H   H20       1.0  0.70030  0.55500  0.52010  1.0000 0.1290213896
H   H21       1.0  0.93890  0.04750  0.05920  1.0000 0.1290213896
H   H22       1.0  0.06110  0.54750  0.44080  1.0000 0.1290213896
H   H23       1.0  0.06110  0.95250  0.94080  1.0000 0.1290213896
H   H24       1.0  0.93890  0.45250  0.55920  1.0000 0.1290213896
H   H25       1.0  0.41840  0.06380  0.86310  1.0000 0.1290213896
H   H26       1.0  0.58160  0.56380  0.63690  1.0000 0.1290213896
H   H27       1.0  0.58160  0.93620  0.13690  1.0000 0.1290213896
H   H28       1.0  0.41840  0.43620  0.36310  1.0000 0.1290213896
H   H29       1.0  0.81690  0.03160  0.80260  1.0000 0.1211181016
H   H30       1.0  0.18310  0.53160  0.69740  1.0000 0.1211181016
H   H31       1.0  0.18310  0.96840  0.19740  1.0000 0.1211181016
H   H32       1.0  0.81690  0.46840  0.30260  1.0000 0.1211181016
H   H33       1.0  0.04710  0.20840  0.64670  1.0000 0.1211181016
H   H34       1.0  0.95290  0.70840  0.85330  1.0000 0.1211181016
H   H35       1.0  0.95290  0.79160  0.35330  1.0000 0.1211181016
H   H36       1.0  0.04710  0.29160  0.14670  1.0000 0.1211181016
H   H37       1.0  0.51260  0.26340  0.88520  1.0000 0.1211181016
H   H38       1.0  0.48740  0.76340  0.61480  1.0000 0.1211181016
H   H39       1.0  0.48740  0.73660  0.11480  1.0000 0.1211181016
H   H40       1.0  0.51260  0.23660  0.38520  1.0000 0.1211181016
H   H41       1.0  0.02620  0.29540  0.63580  1.0000 0.1290213896
H   H42       1.0  0.97380  0.79540  0.86420  1.0000 0.1211181016
H   H43       1.0  0.97380  0.70460  0.36420  1.0000 0.1211181016
H   H44       1.0  0.02620  0.20460  0.13580  1.0000 0.1290213896
H   H45       1.0  0.54170  0.17680  0.89670  1.0000 0.1211181016
H   H46       1.0  0.45830  0.67680  0.60330  1.0000 0.1211181016
H   H47       1.0  0.45830  0.82320  0.10330  1.0000 0.1211181016
H   H48       1.0  0.54170  0.32320  0.39670  1.0000 0.1211181016
H   H49       1.0  0.81860  0.27790  0.89260  1.0000 0.1211181016
H   H50       1.0  0.18140  0.77790  0.60740  1.0000 0.1211181016
H   H51       1.0  0.18140  0.72210  0.10740  1.0000 0.1211181016
H   H52       1.0  0.81860  0.22210  0.39260  1.0000 0.1211181016
H   H53       1.0  0.33850  0.22050  0.94570  1.0000 0.1211181016
H   H54       1.0  0.66150  0.72050  0.55430  1.0000 0.1211181016
H   H55       1.0  0.66150  0.77950  0.05430  1.0000 0.1211181016
H   H56       1.0  0.33850  0.27950  0.44570  1.0000 0.1211181016
H   H57       1.0  0.84820  0.19150  0.90680  1.0000 0.1211181016
H   H58       1.0  0.15180  0.69150  0.59320  1.0000 0.1211181016
H   H59       1.0  0.15180  0.80850  0.09320  1.0000 0.1211181016
H   H60       1.0  0.84820  0.30850  0.40680  1.0000 0.1211181016
H   H61       1.0  0.30170  0.30580  0.93390  1.0000 0.1211181016
H   H62       1.0  0.69830  0.80580  0.56610  1.0000 0.1211181016
H   H63       1.0  0.69830  0.69420  0.06610  1.0000 0.1211181016
H   H64       1.0  0.30170  0.19420  0.43390  1.0000 0.1211181016
C   C1        1.0  0.69380  0.17650  0.89890  1.0000 -0.0095121597
C   C2        1.0  0.30620  0.67650  0.60110  1.0000 -0.0095121597
C   C3        1.0  0.30620  0.82350  0.10110  1.0000 -0.0095121597
C   C4        1.0  0.69380  0.32350  0.39890  1.0000 -0.0095121597
C   C5        1.0  0.63150  0.94780  0.66600  1.0000 0.1496731539
C   C6        1.0  0.36850  0.44780  0.83400  1.0000 0.1496731539
C   C7        1.0  0.36850  0.05220  0.33400  1.0000 0.1496731539
C   C8        1.0  0.63150  0.55220  0.16600  1.0000 0.1496731539
C   C9        1.0  0.85200  0.06810  0.53220  1.0000 0.159982888
C   C10       1.0  0.14800  0.56810  0.96780  1.0000 0.159982888
C   C11       1.0  0.14800  0.93190  0.46780  1.0000 0.159982888
C   C12       1.0  0.85200  0.43190  0.03220  1.0000 0.159982888
C   C13       1.0  0.72540  0.01073  0.50690  1.0000 0.1496731539
C   C14       1.0  0.27460  0.51073  0.99310  1.0000 0.1496731539
C   C15       1.0  0.27460  0.98927  0.49310  1.0000 0.1496731539
C   C16       1.0  0.72540  0.48927  0.00690  1.0000 0.1496731539
C   C17       1.0  0.24900  0.98604  0.70330  1.0000 0.1496731539
C   C18       1.0  0.75100  0.48604  0.79670  1.0000 0.1496731539
C   C19       1.0  0.75100  0.01396  0.29670  1.0000 0.1496731539
C   C20       1.0  0.24900  0.51396  0.20330  1.0000 0.1496731539
C   C21       1.0  0.66020  0.27900  0.88370  1.0000 -0.0205527625
C   C22       1.0  0.33980  0.77900  0.61630  1.0000 -0.0205527625
C   C23       1.0  0.33980  0.72100  0.11630  1.0000 -0.0205527625
C   C24       1.0  0.66020  0.22100  0.38370  1.0000 -0.0205527625
C   C25       1.0  0.77330  0.96727  0.05030  1.0000 0.159982888
C   C26       1.0  0.22670  0.46727  0.44970  1.0000 0.159982888
C   C27       1.0  0.22670  0.03273  0.94970  1.0000 0.159982888
C   C28       1.0  0.77330  0.53273  0.55030  1.0000 0.159982888
C   C29       1.0  0.90200  0.02250  0.07150  1.0000 0.159982888
C   C30       1.0  0.09800  0.52250  0.42850  1.0000 0.159982888
C   C31       1.0  0.09800  0.97750  0.92850  1.0000 0.159982888
C   C32       1.0  0.90200  0.47750  0.57150  1.0000 0.159982888
C   C33       1.0  0.38270  0.03740  0.81660  1.0000 0.1690281512
C   C34       1.0  0.61730  0.53740  0.68340  1.0000 0.1690281512
C   C35       1.0  0.61730  0.96260  0.18340  1.0000 0.1690281512
C   C36       1.0  0.38270  0.46260  0.31660  1.0000 0.1690281512
C   C37       1.0  0.63210  0.33360  0.86620  1.0000 0.5489547805
C   C38       1.0  0.36790  0.83360  0.63380  1.0000 0.5489547805
C   C39       1.0  0.36790  0.66640  0.13380  1.0000 0.5489547805
C   C40       1.0  0.63210  0.16640  0.36620  1.0000 0.5489547805
C   C41       1.0  0.74900  0.00690  0.76430  1.0000 0.1496731539
C   C42       1.0  0.25100  0.50690  0.73570  1.0000 0.1496731539
C   C43       1.0  0.25100  0.99310  0.23570  1.0000 0.1496731539
C   C44       1.0  0.74900  0.49310  0.26430  1.0000 0.1496731539
C   C45       1.0  0.19400  0.20555  0.79820  1.0000 -0.0261480293
C   C46       1.0  0.80600  0.70555  0.70180  1.0000 -0.0261480293
C   C47       1.0  0.80600  0.79445  0.20180  1.0000 -0.0261480293
C   C48       1.0  0.19400  0.29445  0.29820  1.0000 -0.0261480293
C   C49       1.0  0.16350  0.30840  0.78350  1.0000 -0.0033535512
C   C50       1.0  0.83650  0.80840  0.71650  1.0000 -0.0033535512
C   C51       1.0  0.83650  0.69160  0.21650  1.0000 -0.0033535512
C   C52       1.0  0.16350  0.19160  0.28350  1.0000 -0.0033535512
C   C53       1.0  0.20420  0.15040  0.80540  1.0000 0.5566152812
C   C54       1.0  0.79580  0.65040  0.69460  1.0000 0.5566152812
C   C55       1.0  0.79580  0.84960  0.19460  1.0000 0.5566152812
C   C56       1.0  0.20420  0.34960  0.30540  1.0000 0.5566152812
C   C57       1.0  0.13950  0.36370  0.77280  1.0000 0.5489547805
C   C58       1.0  0.86050  0.86370  0.72720  1.0000 0.5489547805
C   C59       1.0  0.86050  0.63630  0.22720  1.0000 0.5489547805
C   C60       1.0  0.13950  0.13630  0.27280  1.0000 0.5489547805
C   C61       1.0  0.10120  0.22810  0.70540  1.0000 -0.1001862661
C   C62       1.0  0.89880  0.72810  0.79460  1.0000 -0.1001862661
C   C63       1.0  0.89880  0.77190  0.29460  1.0000 -0.1001862661
C   C64       1.0  0.10120  0.27190  0.20540  1.0000 -0.1001862661
C   C65       1.0  0.57910  0.24900  0.88750  1.0000 -0.1001862661
C   C66       1.0  0.42090  0.74900  0.61250  1.0000 -0.1001862661
C   C67       1.0  0.42090  0.75100  0.11250  1.0000 -0.1001862661
C   C68       1.0  0.57910  0.25100  0.38750  1.0000 -0.1001862661
C   C69       1.0  0.08800  0.27990  0.69910  1.0000 -0.1001862661
C   C70       1.0  0.91200  0.77990  0.80090  1.0000 -0.1001862661
C   C71       1.0  0.91200  0.72010  0.30090  1.0000 -0.1001862661
C   C72       1.0  0.08800  0.22010  0.19910  1.0000 -0.1001862661
C   C73       1.0  0.59700  0.19750  0.89470  1.0000 -0.1001862661
C   C74       1.0  0.40300  0.69750  0.60530  1.0000 -0.1001862661
C   C75       1.0  0.40300  0.80250  0.10530  1.0000 -0.1001862661
C   C76       1.0  0.59700  0.30250  0.39470  1.0000 -0.1001862661
C   C77       1.0  0.76090  0.25750  0.89230  1.0000 -0.1001862661
C   C78       1.0  0.23910  0.75750  0.60770  1.0000 -0.1001862661
C   C79       1.0  0.23910  0.74250  0.10770  1.0000 -0.1001862661
C   C80       1.0  0.76090  0.24250  0.39230  1.0000 -0.1001862661
C   C81       1.0  0.27150  0.23530  0.88230  1.0000 -0.1001862661
C   C82       1.0  0.72850  0.73530  0.61770  1.0000 -0.1001862661
C   C83       1.0  0.72850  0.76470  0.11770  1.0000 -0.1001862661
C   C84       1.0  0.27150  0.26470  0.38230  1.0000 -0.1001862661
C   C85       1.0  0.77850  0.20600  0.90040  1.0000 -0.1064401015
C   C86       1.0  0.22150  0.70600  0.59960  1.0000 -0.1064401015
C   C87       1.0  0.22150  0.79400  0.09960  1.0000 -0.1064401015
C   C88       1.0  0.77850  0.29400  0.40040  1.0000 -0.1064401015
C   C89       1.0  0.70190  0.12020  0.89500  1.0000 0.5566152812
C   C90       1.0  0.29810  0.62020  0.60500  1.0000 0.5566152812
C   C91       1.0  0.29810  0.87980  0.10500  1.0000 0.5566152812
C   C92       1.0  0.70190  0.37980  0.39500  1.0000 0.5566152812
C   C93       1.0  0.25280  0.28620  0.87530  1.0000 -0.1001862661
C   C94       1.0  0.74720  0.78620  0.62470  1.0000 -0.1001862661
C   C95       1.0  0.74720  0.71380  0.12470  1.0000 -0.1001862661
C   C96       1.0  0.25280  0.21380  0.37530  1.0000 -0.1001862661
N   N1        1.0  0.25350  0.02420  0.75290  1.0000 -0.3208982132
N   N2        1.0  0.74650  0.52420  0.74710  1.0000 -0.3208982132
N   N3        1.0  0.74650  0.97580  0.24710  1.0000 -0.3208982132
N   N4        1.0  0.25350  0.47580  0.25290  1.0000 -0.3208982132
N   N5        1.0  0.78510  0.99838  0.99910  1.0000 -0.3126666292
N   N6        1.0  0.21490  0.49838  0.50090  1.0000 -0.3126666292
N   N7        1.0  0.21490  0.00162  0.00090  1.0000 -0.3126666292
N   N8        1.0  0.78510  0.50162  0.49910  1.0000 -0.3126666292
N   N9        1.0  0.72620  0.05094  0.46310  1.0000 -0.3046009882
N   N10       1.0  0.27380  0.55094  0.03690  1.0000 -0.3046009882
N   N11       1.0  0.27380  0.94906  0.53690  1.0000 -0.3046009882
N   N12       1.0  0.72620  0.44906  0.96310  1.0000 -0.3046009882
N   N13       1.0  0.36790  0.97524  0.73390  1.0000 -0.1924216303
N   N14       1.0  0.63210  0.47524  0.76610  1.0000 -0.1924216303
N   N15       1.0  0.63210  0.02476  0.26610  1.0000 -0.1924216303
N   N16       1.0  0.36790  0.52476  0.23390  1.0000 -0.1924216303
N   N17       1.0  0.57640  0.96106  0.70210  1.0000 -0.198940004
N   N18       1.0  0.42360  0.46106  0.79790  1.0000 -0.198940004
N   N19       1.0  0.42360  0.03894  0.29790  1.0000 -0.198940004
N   N20       1.0  0.57640  0.53894  0.20210  1.0000 -0.198940004
N   N21       1.0  0.92530  0.04055  0.61420  1.0000 -0.198940004
N   N22       1.0  0.07470  0.54055  0.88580  1.0000 -0.198940004
N   N23       1.0  0.07470  0.95945  0.38580  1.0000 -0.198940004
N   N24       1.0  0.92530  0.45945  0.11420  1.0000 -0.198940004
N   N25       1.0  0.45510  0.00991  0.80780  1.0000 -0.1924216303
N   N26       1.0  0.54490  0.50991  0.69220  1.0000 -0.1924216303
N   N27       1.0  0.54490  0.99009  0.19220  1.0000 -0.1924216303
N   N28       1.0  0.45510  0.49009  0.30780  1.0000 -0.1924216303
N   N29       1.0  0.87360  0.97090  0.14660  1.0000 -0.198940004
N   N30       1.0  0.12640  0.47090  0.35340  1.0000 -0.198940004
N   N31       1.0  0.12640  0.02910  0.85340  1.0000 -0.198940004
N   N32       1.0  0.87360  0.52910  0.64660  1.0000 -0.198940004
N   N33       1.0  0.95740  0.00712  0.16020  1.0000 -0.198940004
N   N34       1.0  0.04260  0.50712  0.33980  1.0000 -0.198940004
N   N35       1.0  0.04260  0.99288  0.83980  1.0000 -0.198940004
N   N36       1.0  0.95740  0.49288  0.66020  1.0000 -0.198940004
N   N37       1.0  0.73950  0.97558  0.70220  1.0000 -0.3208982132
N   N38       1.0  0.26050  0.47558  0.79780  1.0000 -0.3208982132
N   N39       1.0  0.26050  0.02442  0.29780  1.0000 -0.3208982132
N   N40       1.0  0.73950  0.52442  0.20220  1.0000 -0.3208982132
N   N41       1.0  0.84170  0.00358  0.59740  1.0000 -0.198940004
N   N42       1.0  0.15830  0.50358  0.90260  1.0000 -0.1924216303
N   N43       1.0  0.15830  0.99642  0.40260  1.0000 -0.1924216303
N   N44       1.0  0.84170  0.49642  0.09740  1.0000 -0.1924216303
N   N45       1.0  0.65330  0.99965  0.76630  1.0000 -0.198940004
N   N46       1.0  0.34670  0.49965  0.73370  1.0000 -0.198940004
N   N47       1.0  0.34670  0.00035  0.23370  1.0000 -0.198940004
N   N48       1.0  0.65330  0.50035  0.26630  1.0000 -0.198940004
O   O1        1.0  0.62170  0.09520  0.89040  1.0000 -0.5085606321
O   O2        1.0  0.37830  0.59520  0.60960  1.0000 -0.5085606321
O   O3        1.0  0.37830  0.90480  0.10960  1.0000 -0.5085606321
O   O4        1.0  0.62170  0.40480  0.39040  1.0000 -0.5085606321
O   O5        1.0  0.10300  0.12655  0.72890  1.0000 -0.5505020439
O   O6        1.0  0.89700  0.62655  0.77110  1.0000 -0.5505020439
O   O7        1.0  0.89700  0.87345  0.27110  1.0000 -0.5505020439
O   O8        1.0  0.10300  0.37345  0.22890  1.0000 -0.5505020439
O   O9        1.0  0.68910  0.35934  0.84430  1.0000 -0.5732848092
O   O10       1.0  0.31090  0.85934  0.65570  1.0000 -0.5732848092
O   O11       1.0  0.31090  0.64066  0.15570  1.0000 -0.5732848092
O   O12       1.0  0.68910  0.14066  0.34430  1.0000 -0.5732848092
O   O13       1.0  0.55250  0.35351  0.87110  1.0000 -0.5505020439
O   O14       1.0  0.44750  0.85351  0.62890  1.0000 -0.5505020439
O   O15       1.0  0.44750  0.64649  0.12890  1.0000 -0.5505020439
O   O16       1.0  0.55250  0.14649  0.37110  1.0000 -0.5505020439
O   O17       1.0  0.18370  0.38742  0.85120  1.0000 -0.5505020439
O   O18       1.0  0.81630  0.88742  0.64880  1.0000 -0.5505020439
O   O19       1.0  0.81630  0.61258  0.14880  1.0000 -0.5505020439
O   O20       1.0  0.18370  0.11258  0.35120  1.0000 -0.5505020439
O   O21       1.0  0.30190  0.12899  0.88180  1.0000 -0.5505020439
O   O22       1.0  0.69810  0.62899  0.61820  1.0000 -0.5505020439
O   O23       1.0  0.69810  0.87101  0.11820  1.0000 -0.5505020439
O   O24       1.0  0.30190  0.37101  0.38180  1.0000 -0.5505020439
O   O25       1.0  0.07960  0.38411  0.69230  1.0000 -0.5239828571
O   O26       1.0  0.92040  0.88411  0.80770  1.0000 -0.5239828571
O   O27       1.0  0.92040  0.61589  0.30770  1.0000 -0.5239828571
O   O28       1.0  0.07960  0.11589  0.19230  1.0000 -0.5239828571
O   O29       1.0  0.79490  0.10100  0.90020  1.0000 -0.6020776673
O   O30       1.0  0.20510  0.60100  0.59980  1.0000 -0.6020776673
O   O31       1.0  0.20510  0.89900  0.09980  1.0000 -0.6020776673
O   O32       1.0  0.79490  0.39900  0.40020  1.0000 -0.6020776673
