# DDEC6 charges by PACMAN v1.1 (https://github.com/mtap-research/PACMAN-charge/)
data_2005[CuSm][stp]3[ASR]1
_chemical_formula_sum              "Sm4 Cu6 H60 C48 N12 O48"
_cell_length_a       13.377
_cell_length_b       13.377
_cell_length_c       14.462
_cell_angle_alpha    90
_cell_angle_beta     90
_cell_angle_gamma    120

_symmetry_space_group_name_H-M    "P 1"
_symmetry_Int_Tables_number       1

loop_
  _symmetry_equiv_pos_as_xyz
  'x, y, z'

loop_
  _atom_site_type_symbol
  _atom_site_label
  _atom_site_symmetry_multiplicity
  _atom_site_fract_x
  _atom_site_fract_y
  _atom_site_fract_z
  _atom_site_occupancy
  _atom_site_charge
Sm  Sm1       1.0  0.33333  0.66667  0.66757  1.0000 2.0666317557
Sm  Sm2       1.0  0.66667  0.33333  0.83243  1.0000 2.0666317557
Sm  Sm3       1.0  0.66667  0.33333  0.33243  1.0000 2.0666317557
Sm  Sm4       1.0  0.33333  0.66667  0.16757  1.0000 2.0666317557
Cu  Cu1       1.0  0.50000  0.50000  0.50000  1.0000 0.7478698109
Cu  Cu2       1.0  0.50000  0.00000  0.50000  1.0000 0.7478698109
Cu  Cu3       1.0  0.00000  0.50000  0.50000  1.0000 0.7478698109
Cu  Cu4       1.0  0.50000  0.50000  0.00000  1.0000 0.7478698109
Cu  Cu5       1.0  0.00000  0.50000  0.00000  1.0000 0.7478698109
Cu  Cu6       1.0  0.50000  0.00000  0.00000  1.0000 0.7478698109
H   H1        1.0  0.03927  0.29377  0.05000  1.0000 0.1436024224
H   H2        1.0  0.70623  0.74550  0.05000  1.0000 0.1436024224
H   H3        1.0  0.25450  0.96073  0.05000  1.0000 0.1436024224
H   H4        1.0  0.29377  0.03927  0.45000  1.0000 0.1436024224
H   H5        1.0  0.74550  0.70623  0.45000  1.0000 0.1436024224
H   H6        1.0  0.96073  0.25450  0.45000  1.0000 0.1436024224
H   H7        1.0  0.96073  0.70623  0.95000  1.0000 0.1436024224
H   H8        1.0  0.29377  0.25450  0.95000  1.0000 0.1436024224
H   H9        1.0  0.74550  0.03927  0.95000  1.0000 0.1436024224
H   H10       1.0  0.70623  0.96073  0.55000  1.0000 0.1436024224
H   H11       1.0  0.25450  0.29377  0.55000  1.0000 0.1436024224
H   H12       1.0  0.03927  0.74550  0.55000  1.0000 0.1436024224
H   H13       1.0  0.13767  0.31857  0.97890  1.0000 0.1338552897
H   H14       1.0  0.68143  0.81910  0.97890  1.0000 0.1338552897
H   H15       1.0  0.18090  0.86233  0.97890  1.0000 0.1338552897
H   H16       1.0  0.31857  0.13767  0.52110  1.0000 0.1338552897
H   H17       1.0  0.81910  0.68143  0.52110  1.0000 0.1338552897
H   H18       1.0  0.86233  0.18090  0.52110  1.0000 0.1338552897
H   H19       1.0  0.86233  0.68143  0.02110  1.0000 0.1338552897
H   H20       1.0  0.31857  0.18090  0.02110  1.0000 0.1338552897
H   H21       1.0  0.81910  0.13767  0.02110  1.0000 0.1338552897
H   H22       1.0  0.68143  0.86233  0.47890  1.0000 0.1338552897
H   H23       1.0  0.18090  0.31857  0.47890  1.0000 0.1338552897
H   H24       1.0  0.13767  0.81910  0.47890  1.0000 0.1338552897
H   H25       1.0  0.19357  0.46077  0.87170  1.0000 0.1563569316
H   H26       1.0  0.53923  0.73280  0.87170  1.0000 0.1563569316
H   H27       1.0  0.26720  0.80643  0.87170  1.0000 0.1563569316
H   H28       1.0  0.46077  0.19357  0.62830  1.0000 0.1563569316
H   H29       1.0  0.73280  0.53923  0.62830  1.0000 0.1563569316
H   H30       1.0  0.80643  0.26720  0.62830  1.0000 0.1563569316
H   H31       1.0  0.80643  0.53923  0.12830  1.0000 0.1563569316
H   H32       1.0  0.46077  0.26720  0.12830  1.0000 0.1563569316
H   H33       1.0  0.73280  0.19357  0.12830  1.0000 0.1563569316
H   H34       1.0  0.53923  0.80643  0.37170  1.0000 0.1563569316
H   H35       1.0  0.26720  0.46077  0.37170  1.0000 0.1563569316
H   H36       1.0  0.19357  0.73280  0.37170  1.0000 0.1563569316
H   H37       1.0  0.08577  0.39937  0.80650  1.0000 0.1563569316
H   H38       1.0  0.60063  0.68640  0.80650  1.0000 0.1563569316
H   H39       1.0  0.31360  0.91423  0.80650  1.0000 0.1563569316
H   H40       1.0  0.39937  0.08577  0.69350  1.0000 0.1563569316
H   H41       1.0  0.68640  0.60063  0.69350  1.0000 0.1563569316
H   H42       1.0  0.91423  0.31360  0.69350  1.0000 0.1563569316
H   H43       1.0  0.91423  0.60063  0.19350  1.0000 0.1563569316
H   H44       1.0  0.39937  0.31360  0.19350  1.0000 0.1563569316
H   H45       1.0  0.68640  0.08577  0.19350  1.0000 0.1563569316
H   H46       1.0  0.60063  0.91423  0.30650  1.0000 0.1563569316
H   H47       1.0  0.31360  0.39937  0.30650  1.0000 0.1563569316
H   H48       1.0  0.08577  0.68640  0.30650  1.0000 0.1563569316
H   H49       1.0  0.97627  0.32607  0.92130  1.0000 0.2591002549
H   H50       1.0  0.67393  0.65020  0.92130  1.0000 0.2591002549
H   H51       1.0  0.34980  0.02373  0.92130  1.0000 0.2591002549
H   H52       1.0  0.32607  0.97627  0.57870  1.0000 0.2591002549
H   H53       1.0  0.65020  0.67393  0.57870  1.0000 0.2591002549
H   H54       1.0  0.02373  0.34980  0.57870  1.0000 0.2591002549
H   H55       1.0  0.02373  0.67393  0.07870  1.0000 0.2591002549
H   H56       1.0  0.32607  0.34980  0.07870  1.0000 0.2591002549
H   H57       1.0  0.65020  0.97627  0.07870  1.0000 0.2591002549
H   H58       1.0  0.67393  0.02373  0.42130  1.0000 0.2591002549
H   H59       1.0  0.34980  0.32607  0.42130  1.0000 0.2591002549
H   H60       1.0  0.97627  0.65020  0.42130  1.0000 0.2591002549
C   C1        1.0  0.26997  0.45377  0.56860  1.0000 0.618006668
C   C2        1.0  0.54623  0.81620  0.56860  1.0000 0.618006668
C   C3        1.0  0.18380  0.73003  0.56860  1.0000 0.618006668
C   C4        1.0  0.45377  0.26997  0.93140  1.0000 0.618006668
C   C5        1.0  0.81620  0.54623  0.93140  1.0000 0.618006668
C   C6        1.0  0.73003  0.18380  0.93140  1.0000 0.618006668
C   C7        1.0  0.73003  0.54623  0.43140  1.0000 0.618006668
C   C8        1.0  0.45377  0.18380  0.43140  1.0000 0.618006668
C   C9        1.0  0.81620  0.26997  0.43140  1.0000 0.618006668
C   C10       1.0  0.54623  0.73003  0.06860  1.0000 0.618006668
C   C11       1.0  0.18380  0.45377  0.06860  1.0000 0.618006668
C   C12       1.0  0.26997  0.81620  0.06860  1.0000 0.618006668
C   C13       1.0  0.25447  0.35237  0.51010  1.0000 -0.2379288087
C   C14       1.0  0.64763  0.90210  0.51010  1.0000 -0.2379288087
C   C15       1.0  0.09790  0.74553  0.51010  1.0000 -0.2379288087
C   C16       1.0  0.35237  0.25447  0.98990  1.0000 -0.2379288087
C   C17       1.0  0.90210  0.64763  0.98990  1.0000 -0.2379288087
C   C18       1.0  0.74553  0.09790  0.98990  1.0000 -0.2379288087
C   C19       1.0  0.74553  0.64763  0.48990  1.0000 -0.2379288087
C   C20       1.0  0.35237  0.09790  0.48990  1.0000 -0.2379288087
C   C21       1.0  0.90210  0.25447  0.48990  1.0000 -0.2379288087
C   C22       1.0  0.64763  0.74553  0.01010  1.0000 -0.2379288087
C   C23       1.0  0.09790  0.35237  0.01010  1.0000 -0.2379288087
C   C24       1.0  0.25447  0.90210  0.01010  1.0000 -0.2379288087
C   C25       1.0  0.12437  0.56217  0.84010  1.0000 0.6555308466
C   C26       1.0  0.43783  0.56220  0.84010  1.0000 0.6555308466
C   C27       1.0  0.43780  0.87563  0.84010  1.0000 0.6555308466
C   C28       1.0  0.56217  0.12437  0.65990  1.0000 0.6555308466
C   C29       1.0  0.56220  0.43783  0.65990  1.0000 0.6555308466
C   C30       1.0  0.87563  0.43780  0.65990  1.0000 0.6555308466
C   C31       1.0  0.87563  0.43783  0.15990  1.0000 0.6555308466
C   C32       1.0  0.56217  0.43780  0.15990  1.0000 0.6555308466
C   C33       1.0  0.56220  0.12437  0.15990  1.0000 0.6555308466
C   C34       1.0  0.43783  0.87563  0.34010  1.0000 0.6555308466
C   C35       1.0  0.43780  0.56217  0.34010  1.0000 0.6555308466
C   C36       1.0  0.12437  0.56220  0.34010  1.0000 0.6555308466
C   C37       1.0  0.11687  0.44887  0.86020  1.0000 -0.2704024101
C   C38       1.0  0.55113  0.66800  0.86020  1.0000 -0.2704024101
C   C39       1.0  0.33200  0.88313  0.86020  1.0000 -0.2704024101
C   C40       1.0  0.44887  0.11687  0.63980  1.0000 -0.2704024101
C   C41       1.0  0.66800  0.55113  0.63980  1.0000 -0.2704024101
C   C42       1.0  0.88313  0.33200  0.63980  1.0000 -0.2704024101
C   C43       1.0  0.88313  0.55113  0.13980  1.0000 -0.2704024101
C   C44       1.0  0.44887  0.33200  0.13980  1.0000 -0.2704024101
C   C45       1.0  0.66800  0.11687  0.13980  1.0000 -0.2704024101
C   C46       1.0  0.55113  0.88313  0.36020  1.0000 -0.2704024101
C   C47       1.0  0.33200  0.44887  0.36020  1.0000 -0.2704024101
C   C48       1.0  0.11687  0.66800  0.36020  1.0000 -0.2704024101
N   N1        1.0  0.34747  0.38937  0.44130  1.0000 -0.2550115968
N   N2        1.0  0.61063  0.95810  0.44130  1.0000 -0.2550115968
N   N3        1.0  0.04190  0.65253  0.44130  1.0000 -0.2543318356
N   N4        1.0  0.38937  0.34747  0.05870  1.0000 -0.2543318356
N   N5        1.0  0.95810  0.61063  0.05870  1.0000 -0.2543318356
N   N6        1.0  0.65253  0.04190  0.05870  1.0000 -0.2543318356
N   N7        1.0  0.65253  0.61063  0.55870  1.0000 -0.2550115968
N   N8        1.0  0.38937  0.04190  0.55870  1.0000 -0.2550115968
N   N9        1.0  0.95810  0.34747  0.55870  1.0000 -0.2550115968
N   N10       1.0  0.61063  0.65253  0.94130  1.0000 -0.2543318356
N   N11       1.0  0.04190  0.38937  0.94130  1.0000 -0.2543318356
N   N12       1.0  0.34747  0.95810  0.94130  1.0000 -0.2550115968
O   O1        1.0  0.36097  0.54887  0.55830  1.0000 -0.6469446506
O   O2        1.0  0.45113  0.81210  0.55830  1.0000 -0.6469446506
O   O3        1.0  0.18790  0.63903  0.55830  1.0000 -0.6469446506
O   O4        1.0  0.54887  0.36097  0.94170  1.0000 -0.6469446506
O   O5        1.0  0.81210  0.45113  0.94170  1.0000 -0.6469446506
O   O6        1.0  0.63903  0.18790  0.94170  1.0000 -0.6469446506
O   O7        1.0  0.63903  0.45113  0.44170  1.0000 -0.6469446506
O   O8        1.0  0.54887  0.18790  0.44170  1.0000 -0.6469446506
O   O9        1.0  0.81210  0.36097  0.44170  1.0000 -0.6469446506
O   O10       1.0  0.45113  0.63903  0.05830  1.0000 -0.6469446506
O   O11       1.0  0.18790  0.54887  0.05830  1.0000 -0.6469446506
O   O12       1.0  0.36097  0.81210  0.05830  1.0000 -0.6469446506
O   O13       1.0  0.24557  0.80507  0.62700  1.0000 -0.6060567235
O   O14       1.0  0.19493  0.44050  0.62700  1.0000 -0.6060567235
O   O15       1.0  0.55950  0.75443  0.62700  1.0000 -0.6060567235
O   O16       1.0  0.80507  0.24557  0.87300  1.0000 -0.6060567235
O   O17       1.0  0.44050  0.19493  0.87300  1.0000 -0.6060567235
O   O18       1.0  0.75443  0.55950  0.87300  1.0000 -0.6060567235
O   O19       1.0  0.75443  0.19493  0.37300  1.0000 -0.6060567235
O   O20       1.0  0.80507  0.55950  0.37300  1.0000 -0.6060567235
O   O21       1.0  0.44050  0.24557  0.37300  1.0000 -0.6060567235
O   O22       1.0  0.19493  0.75443  0.12700  1.0000 -0.6060567235
O   O23       1.0  0.55950  0.80507  0.12700  1.0000 -0.6060567235
O   O24       1.0  0.24557  0.44050  0.12700  1.0000 -0.6060567235
O   O25       1.0  0.40237  0.47607  0.89230  1.0000 -0.5065900172
O   O26       1.0  0.52393  0.92630  0.89230  1.0000 -0.5065900172
O   O27       1.0  0.07370  0.59763  0.89230  1.0000 -0.5065900172
O   O28       1.0  0.47607  0.40237  0.60770  1.0000 -0.5065900172
O   O29       1.0  0.92630  0.52393  0.60770  1.0000 -0.5065900172
O   O30       1.0  0.59763  0.07370  0.60770  1.0000 -0.5065900172
O   O31       1.0  0.59763  0.52393  0.10770  1.0000 -0.5065900172
O   O32       1.0  0.47607  0.07370  0.10770  1.0000 -0.5065900172
O   O33       1.0  0.92630  0.40237  0.10770  1.0000 -0.5065900172
O   O34       1.0  0.52393  0.59763  0.39230  1.0000 -0.5065900172
O   O35       1.0  0.07370  0.47607  0.39230  1.0000 -0.5065900172
O   O36       1.0  0.40237  0.92630  0.39230  1.0000 -0.5065900172
O   O37       1.0  0.18297  0.61877  0.77160  1.0000 -0.6630271758
O   O38       1.0  0.38123  0.56420  0.77160  1.0000 -0.6630271758
O   O39       1.0  0.43580  0.81703  0.77160  1.0000 -0.6630271758
O   O40       1.0  0.61877  0.18297  0.72840  1.0000 -0.6630271758
O   O41       1.0  0.56420  0.38123  0.72840  1.0000 -0.6630271758
O   O42       1.0  0.81703  0.43580  0.72840  1.0000 -0.6630271758
O   O43       1.0  0.81703  0.38123  0.22840  1.0000 -0.6630271758
O   O44       1.0  0.61877  0.43580  0.22840  1.0000 -0.6630271758
O   O45       1.0  0.56420  0.18297  0.22840  1.0000 -0.6630271758
O   O46       1.0  0.38123  0.81703  0.27160  1.0000 -0.6630271758
O   O47       1.0  0.43580  0.61877  0.27160  1.0000 -0.6630271758
O   O48       1.0  0.18297  0.56420  0.27160  1.0000 -0.6630271758
