# DDEC6 charges by PACMAN v1.1 (https://github.com/mtap-research/PACMAN-charge/)
data_2005[Cu][pts]3[ASR]1
_chemical_formula_sum              "Cu2 H4 C20 O16"
_cell_length_a       7.26416
_cell_length_b       7.26416
_cell_length_c       16.457
_cell_angle_alpha    90
_cell_angle_beta     90
_cell_angle_gamma    104.574

_symmetry_space_group_name_H-M    "P 1"
_symmetry_Int_Tables_number       1

loop_
  _symmetry_equiv_pos_as_xyz
  'x, y, z'

loop_
  _atom_site_type_symbol
  _atom_site_label
  _atom_site_symmetry_multiplicity
  _atom_site_fract_x
  _atom_site_fract_y
  _atom_site_fract_z
  _atom_site_occupancy
  _atom_site_charge
Cu  Cu1       1.0  0.00191  0.99809  0.00000  1.0000 0.9682714263
Cu  Cu2       1.0  0.00191  0.99809  0.50000  1.0000 0.9682714263
H   H1        1.0  0.82500  0.00380  0.25000  1.0000 0.1330269048
H   H2        1.0  0.99620  0.17500  0.75000  1.0000 0.1330269048
H   H3        1.0  0.18900  0.99480  0.25000  1.0000 0.1330269048
H   H4        1.0  0.00520  0.81100  0.75000  1.0000 0.1330269048
C   C1        1.0  0.69750  0.00610  0.25000  1.0000 -0.0725494069
C   C2        1.0  0.99390  0.30250  0.75000  1.0000 -0.0725494069
C   C3        1.0  0.60030  0.00790  0.17490  1.0000 0.0119634726
C   C4        1.0  0.60030  0.00790  0.32510  1.0000 0.0119634726
C   C5        1.0  0.99210  0.39970  0.67490  1.0000 0.0119634726
C   C6        1.0  0.99210  0.39970  0.82510  1.0000 0.0119634726
C   C7        1.0  0.40660  0.00400  0.17770  1.0000 -0.002019318
C   C8        1.0  0.40660  0.00400  0.32230  1.0000 -0.002019318
C   C9        1.0  0.99600  0.59340  0.67770  1.0000 -0.002019318
C   C10       1.0  0.99600  0.59340  0.82230  1.0000 -0.002019318
C   C11       1.0  0.31830  0.00030  0.25000  1.0000 -0.0969147464
C   C12       1.0  0.99970  0.68170  0.75000  1.0000 -0.0969147464
C   C13       1.0  0.70250  0.98850  0.09850  1.0000 0.5300566773
C   C14       1.0  0.70250  0.98850  0.40150  1.0000 0.5300566773
C   C15       1.0  0.01150  0.29750  0.59850  1.0000 0.5300566773
C   C16       1.0  0.01150  0.29750  0.90150  1.0000 0.5300566773
C   C17       1.0  0.30600  0.02560  0.09760  1.0000 0.5427258382
C   C18       1.0  0.30600  0.02560  0.40240  1.0000 0.5427258382
C   C19       1.0  0.97440  0.69400  0.59760  1.0000 0.5427258382
C   C20       1.0  0.97440  0.69400  0.90240  1.0000 0.5427258382
O   O1        1.0  0.86950  0.09930  0.08920  1.0000 -0.4299290737
O   O2        1.0  0.86950  0.09930  0.41080  1.0000 -0.4299290737
O   O3        1.0  0.90070  0.13050  0.58920  1.0000 -0.4235674819
O   O4        1.0  0.90070  0.13050  0.91080  1.0000 -0.4235674819
O   O5        1.0  0.62940  0.86240  0.04920  1.0000 -0.3799259246
O   O6        1.0  0.62940  0.86240  0.45080  1.0000 -0.3799259246
O   O7        1.0  0.13760  0.37060  0.54920  1.0000 -0.3799259246
O   O8        1.0  0.13760  0.37060  0.95080  1.0000 -0.3799259246
O   O9        1.0  0.14440  0.91340  0.08650  1.0000 -0.4299290737
O   O10       1.0  0.14440  0.91340  0.41350  1.0000 -0.4299290737
O   O11       1.0  0.08660  0.85560  0.58650  1.0000 -0.4355035206
O   O12       1.0  0.08660  0.85560  0.91350  1.0000 -0.4299290737
O   O13       1.0  0.38520  0.15360  0.05070  1.0000 -0.3799259246
O   O14       1.0  0.38520  0.15360  0.44930  1.0000 -0.3743947228
O   O15       1.0  0.84640  0.61480  0.55070  1.0000 -0.3743947228
O   O16       1.0  0.84640  0.61480  0.94930  1.0000 -0.3799259246
