# DDEC6 charges by PACMAN v1.1 (https://github.com/mtap-research/PACMAN-charge/)
data_2005[La][nan]3[ASR]2
_chemical_formula_sum              "La4 H36 C48 O26"
_cell_length_a       11.857
_cell_length_b       12.515
_cell_length_c       12.7009
_cell_angle_alpha    120.288
_cell_angle_beta     117.032
_cell_angle_gamma    81.56

_symmetry_space_group_name_H-M    "P 1"
_symmetry_Int_Tables_number       1

loop_
  _symmetry_equiv_pos_as_xyz
  'x, y, z'

loop_
  _atom_site_type_symbol
  _atom_site_label
  _atom_site_symmetry_multiplicity
  _atom_site_fract_x
  _atom_site_fract_y
  _atom_site_fract_z
  _atom_site_occupancy
  _atom_site_charge
La  La1       1.0  0.47975  0.83308  0.01103  1.0000 1.8917524778
La  La2       1.0  0.52025  0.16692  0.98897  1.0000 1.8917524778
La  La3       1.0  0.80285  0.47983  0.23593  1.0000 1.8276620471
La  La4       1.0  0.19715  0.52017  0.76407  1.0000 1.8276620471
H   H1        1.0  0.56640  0.82280  0.51900  1.0000 0.1227022621
H   H2        1.0  0.43360  0.17720  0.48100  1.0000 0.1227022621
H   H3        1.0  0.87750  0.83500  0.84470  1.0000 0.1321808808
H   H4        1.0  0.12250  0.16500  0.15530  1.0000 0.1321808808
H   H5        1.0  0.91780  0.90980  0.58800  1.0000 0.1321808808
H   H6        1.0  0.08220  0.09020  0.41200  1.0000 0.1321808808
H   H7        1.0  0.59340  0.91260  0.39540  1.0000 0.1501798806
H   H8        1.0  0.40660  0.08740  0.60460  1.0000 0.1501798806
H   H9        1.0  0.73160  0.92650  0.40820  1.0000 0.1572404616
H   H10       1.0  0.26840  0.07350  0.59180  1.0000 0.1572404616
H   H11       1.0  0.67270  0.75900  0.79170  1.0000 0.1572404616
H   H12       1.0  0.32730  0.24100  0.20830  1.0000 0.1572404616
H   H13       1.0  0.55180  0.73470  0.65220  1.0000 0.1501798806
H   H14       1.0  0.44820  0.26530  0.34780  1.0000 0.1501798806
H   H15       1.0  0.07270  0.94480  0.91880  1.0000 0.1501798806
H   H16       1.0  0.92730  0.05520  0.08120  1.0000 0.1501798806
H   H17       1.0  0.08720  0.98450  0.82420  1.0000 0.1501798806
H   H18       1.0  0.91280  0.01550  0.17580  1.0000 0.1501798806
H   H19       1.0  0.40640  0.64700  0.20310  1.0000 0.1321808808
H   H20       1.0  0.59360  0.35300  0.79690  1.0000 0.1321808808
H   H21       1.0  0.34310  0.57720  0.45110  1.0000 0.1227022621
H   H22       1.0  0.65690  0.42280  0.54890  1.0000 0.1227022621
H   H23       1.0  0.15200  0.83040  0.34650  1.0000 0.1227022621
H   H24       1.0  0.84800  0.16960  0.65350  1.0000 0.1227022621
H   H25       1.0  0.16450  0.85870  0.18150  1.0000 0.1417070665
H   H26       1.0  0.83550  0.14130  0.81850  1.0000 0.1417070665
H   H27       1.0  0.31290  0.87920  0.22580  1.0000 0.1501798806
H   H28       1.0  0.68710  0.12080  0.77420  1.0000 0.1501798806
H   H29       1.0  0.50630  0.48610  0.39560  1.0000 0.1417070665
H   H30       1.0  0.49370  0.51390  0.60440  1.0000 0.1417070665
H   H31       1.0  0.58100  0.57480  0.38650  1.0000 0.1501798806
H   H32       1.0  0.41900  0.42520  0.61350  1.0000 0.1501798806
H   H33       1.0  0.22040  0.71450  0.57090  1.0000 0.1501798806
H   H34       1.0  0.77960  0.28550  0.42910  1.0000 0.1501798806
H   H35       1.0  0.15200  0.82120  0.53670  1.0000 0.1417070665
H   H36       1.0  0.84800  0.17880  0.46330  1.0000 0.1417070665
C   C1        1.0  0.73350  0.86640  0.53320  1.0000 0.1901805245
C   C2        1.0  0.26650  0.13360  0.46680  1.0000 0.1901805245
C   C3        1.0  0.65620  0.83590  0.57230  1.0000 -0.2406139243
C   C4        1.0  0.34380  0.16410  0.42770  1.0000 -0.2406139243
C   C5        1.0  0.70900  0.82440  0.68900  1.0000 0.1901805245
C   C6        1.0  0.29100  0.17560  0.31100  1.0000 0.1901805245
C   C7        1.0  0.84070  0.84490  0.76670  1.0000 -0.2406139243
C   C8        1.0  0.15930  0.15510  0.23330  1.0000 -0.2406139243
C   C9        1.0  0.91890  0.87950  0.73190  1.0000 0.1901805245
C   C10       1.0  0.08110  0.12050  0.26810  1.0000 0.1901805245
C   C11       1.0  0.86460  0.88850  0.61380  1.0000 -0.2406139243
C   C12       1.0  0.13540  0.11150  0.38620  1.0000 -0.2406139243
C   C13       1.0  0.67320  0.87280  0.40260  1.0000 -0.432036925
C   C14       1.0  0.32680  0.12720  0.59740  1.0000 -0.432036925
C   C15       1.0  0.64300  0.74760  0.27450  1.0000 0.6913728677
C   C16       1.0  0.35700  0.25240  0.72550  1.0000 0.6913728677
C   C17       1.0  0.62380  0.79640  0.73360  1.0000 -0.4093547127
C   C18       1.0  0.37620  0.20360  0.26640  1.0000 -0.4093547127
C   C19       1.0  0.57200  0.91180  0.81190  1.0000 0.6706312262
C   C20       1.0  0.42800  0.08820  0.18810  1.0000 0.6706312262
C   C21       1.0  0.06020  0.91390  0.82510  1.0000 -0.4093547127
C   C22       1.0  0.93980  0.08610  0.17490  1.0000 -0.4093547127
C   C23       1.0  0.14990  0.81530  0.79680  1.0000 0.6836367809
C   C24       1.0  0.85010  0.18470  0.20320  1.0000 0.6836367809
C   C25       1.0  0.27220  0.74670  0.25940  1.0000 0.1901805245
C   C26       1.0  0.72780  0.25330  0.74060  1.0000 0.1901805245
C   C27       1.0  0.36330  0.66230  0.25590  1.0000 -0.246599581
C   C28       1.0  0.63670  0.33770  0.74410  1.0000 -0.246599581
C   C29       1.0  0.39210  0.59990  0.32900  1.0000 0.1901805245
C   C30       1.0  0.60790  0.40010  0.67100  1.0000 0.1901805245
C   C31       1.0  0.32700  0.62200  0.40450  1.0000 -0.246599581
C   C32       1.0  0.67300  0.37800  0.59550  1.0000 -0.246599581
C   C33       1.0  0.23870  0.70870  0.41300  1.0000 0.1715994143
C   C34       1.0  0.76130  0.29130  0.58700  1.0000 0.1715994143
C   C35       1.0  0.21190  0.77080  0.34070  1.0000 -0.2406139243
C   C36       1.0  0.78810  0.22920  0.65930  1.0000 -0.2406139243
C   C37       1.0  0.24130  0.81540  0.18060  1.0000 -0.4002518243
C   C38       1.0  0.75870  0.18460  0.81940  1.0000 -0.4002518243
C   C39       1.0  0.21810  0.72670  0.03450  1.0000 0.6636168921
C   C40       1.0  0.78190  0.27330  0.96550  1.0000 0.6636168921
C   C41       1.0  0.50110  0.52010  0.33830  1.0000 -0.4194429851
C   C42       1.0  0.49890  0.47990  0.66170  1.0000 -0.4194429851
C   C43       1.0  0.49640  0.41240  0.20590  1.0000 0.6636168921
C   C44       1.0  0.50360  0.58760  0.79410  1.0000 0.6636168921
C   C45       1.0  0.16810  0.73270  0.49610  1.0000 -0.3931215442
C   C46       1.0  0.83190  0.26730  0.50390  1.0000 -0.3931215442
C   C47       1.0  0.04320  0.65010  0.40410  1.0000 0.64713135
C   C48       1.0  0.95680  0.34990  0.59590  1.0000 0.64713135
O   O1        1.0  0.59260  0.74570  0.16150  1.0000 -0.6461097336
O   O2        1.0  0.40740  0.25430  0.83850  1.0000 -0.6461097336
O   O3        1.0  0.66850  0.65072  0.28300  1.0000 -0.6178288298
O   O4        1.0  0.33150  0.34928  0.71700  1.0000 -0.6178288298
O   O5        1.0  0.57240  0.00550  0.80200  1.0000 -0.5799354649
O   O6        1.0  0.42760  0.99450  0.19800  1.0000 -0.5799354649
O   O7        1.0  0.52900  0.90990  0.88670  1.0000 -0.6864496804
O   O8        1.0  0.47100  0.09010  0.11330  1.0000 -0.6864496804
O   O9        1.0  0.26660  0.85640  0.85350  1.0000 -0.6604889668
O   O10       1.0  0.73340  0.14360  0.14650  1.0000 -0.6604889668
O   O11       1.0  0.10980  0.70240  0.72670  1.0000 -0.5799354649
O   O12       1.0  0.89020  0.29760  0.27330  1.0000 -0.5799354649
O   O13       1.0  0.30500  0.72160  0.99980  1.0000 -0.67047799
O   O14       1.0  0.69500  0.27840  0.00020  1.0000 -0.67047799
O   O15       1.0  0.11590  0.65620  0.95020  1.0000 -0.5552724239
O   O16       1.0  0.88410  0.34380  0.04980  1.0000 -0.5552724239
O   O17       1.0  0.39490  0.34600  0.11090  1.0000 -0.5552724239
O   O18       1.0  0.60510  0.65400  0.88910  1.0000 -0.5529823936
O   O19       1.0  0.60170  0.38590  0.19830  1.0000 -0.6793553866
O   O20       1.0  0.39830  0.61410  0.80170  1.0000 -0.6793553866
O   O21       1.0  0.94030  0.69380  0.36090  1.0000 -0.6120716966
O   O22       1.0  0.05970  0.30620  0.63910  1.0000 -0.6178288298
O   O23       1.0  0.04330  0.53460  0.36820  1.0000 -0.6120716966
O   O24       1.0  0.95670  0.46540  0.63180  1.0000 -0.6120716966
O   O25       1.0  0.42560  0.50820  0.97500  1.0000 -0.0412124134
O   O26       1.0  0.57440  0.49180  0.02500  1.0000 -0.0412124134
