# DDEC6 charges by PACMAN v1.1 (https://github.com/mtap-research/PACMAN-charge/)
data_2005[Ho][nan]3[ASR]1
_chemical_formula_sum              "Ho4 H48 C84 O24"
_cell_length_a       15.2299
_cell_length_b       15.2299
_cell_length_c       18.5141
_cell_angle_alpha    76.082
_cell_angle_beta     103.918
_cell_angle_gamma    111.796

_symmetry_space_group_name_H-M    "P 1"
_symmetry_Int_Tables_number       1

loop_
  _symmetry_equiv_pos_as_xyz
  'x, y, z'

loop_
  _atom_site_type_symbol
  _atom_site_label
  _atom_site_symmetry_multiplicity
  _atom_site_fract_x
  _atom_site_fract_y
  _atom_site_fract_z
  _atom_site_occupancy
  _atom_site_charge
Ho  Ho1       1.0  0.04366  0.03816  0.89566  1.0000 2.0947046891
Ho  Ho2       1.0  0.03816  0.04366  0.60434  1.0000 2.0947046891
Ho  Ho3       1.0  0.95634  0.96184  0.10434  1.0000 2.0954728737
Ho  Ho4       1.0  0.96184  0.95634  0.39566  1.0000 2.0954728737
H   H1        1.0  0.28550  0.01310  0.21320  1.0000 0.1289485466
H   H2        1.0  0.01310  0.28550  0.28680  1.0000 0.1289485466
H   H3        1.0  0.71450  0.98690  0.78680  1.0000 0.1289485466
H   H4        1.0  0.98690  0.71450  0.71320  1.0000 0.1289485466
H   H5        1.0  0.43960  0.02080  0.24370  1.0000 0.1110024847
H   H6        1.0  0.02080  0.43960  0.25630  1.0000 0.1110024847
H   H7        1.0  0.56040  0.97920  0.75630  1.0000 0.1110024847
H   H8        1.0  0.97920  0.56040  0.74370  1.0000 0.1110024847
H   H9        1.0  0.44930  0.04050  0.02830  1.0000 0.1110024847
H   H10       1.0  0.04050  0.44930  0.47170  1.0000 0.1110024847
H   H11       1.0  0.55070  0.95950  0.97170  1.0000 0.1110024847
H   H12       1.0  0.95950  0.55070  0.52830  1.0000 0.1110024847
H   H13       1.0  0.29450  0.03310  0.99650  1.0000 0.1212321038
H   H14       1.0  0.03310  0.29450  0.50350  1.0000 0.1212321038
H   H15       1.0  0.70550  0.96690  0.00350  1.0000 0.1212321038
H   H16       1.0  0.96690  0.70550  0.49650  1.0000 0.1212321038
H   H17       1.0  0.07670  0.34690  0.90660  1.0000 0.1110024847
H   H18       1.0  0.34690  0.07670  0.59340  1.0000 0.1110024847
H   H19       1.0  0.92330  0.65310  0.09340  1.0000 0.1110024847
H   H20       1.0  0.65310  0.92330  0.40660  1.0000 0.1110024847
H   H21       1.0  0.06770  0.49330  0.90900  1.0000 0.1034226433
H   H22       1.0  0.49330  0.06770  0.59100  1.0000 0.1034226433
H   H23       1.0  0.93230  0.50670  0.09100  1.0000 0.1034226433
H   H24       1.0  0.50670  0.93230  0.40900  1.0000 0.1034226433
H   H25       1.0  0.95890  0.38310  0.09760  1.0000 0.1034226433
H   H26       1.0  0.38310  0.95890  0.40240  1.0000 0.1034226433
H   H27       1.0  0.04110  0.61690  0.90240  1.0000 0.1034226433
H   H28       1.0  0.61690  0.04110  0.59760  1.0000 0.1034226433
H   H29       1.0  0.96700  0.23720  0.09610  1.0000 0.1289485466
H   H30       1.0  0.23720  0.96700  0.40390  1.0000 0.1289485466
H   H31       1.0  0.03300  0.76280  0.90390  1.0000 0.1289485466
H   H32       1.0  0.76280  0.03300  0.59610  1.0000 0.1289485466
H   H33       1.0  0.76250  0.10490  0.09330  1.0000 0.1212321038
H   H34       1.0  0.10490  0.76250  0.40670  1.0000 0.1212321038
H   H35       1.0  0.23750  0.89510  0.90670  1.0000 0.1212321038
H   H36       1.0  0.89510  0.23750  0.59330  1.0000 0.1212321038
H   H37       1.0  0.61200  0.11600  0.06470  1.0000 0.1110024847
H   H38       1.0  0.11600  0.61200  0.43530  1.0000 0.1110024847
H   H39       1.0  0.38800  0.88400  0.93530  1.0000 0.1110024847
H   H40       1.0  0.88400  0.38800  0.56470  1.0000 0.1110024847
H   H41       1.0  0.55640  0.95160  0.26430  1.0000 0.1110024847
H   H42       1.0  0.95160  0.55640  0.23570  1.0000 0.1110024847
H   H43       1.0  0.44360  0.04840  0.73570  1.0000 0.1110024847
H   H44       1.0  0.04840  0.44360  0.76430  1.0000 0.1110024847
H   H45       1.0  0.70760  0.94900  0.29370  1.0000 0.1212321038
H   H46       1.0  0.94900  0.70760  0.20630  1.0000 0.1212321038
H   H47       1.0  0.29240  0.05100  0.70630  1.0000 0.1212321038
H   H48       1.0  0.05100  0.29240  0.79370  1.0000 0.1212321038
C   C1        1.0  0.16630  0.00770  0.08040  1.0000 0.6413433567
C   C2        1.0  0.00770  0.16630  0.41960  1.0000 0.6413433567
C   C3        1.0  0.83370  0.99230  0.91960  1.0000 0.6413433567
C   C4        1.0  0.99230  0.83370  0.58040  1.0000 0.6413433567
C   C5        1.0  0.26910  0.01750  0.09970  1.0000 -0.0394231569
C   C6        1.0  0.01750  0.26910  0.40030  1.0000 -0.0394231569
C   C7        1.0  0.73090  0.98250  0.90030  1.0000 -0.0394231569
C   C8        1.0  0.98250  0.73090  0.59970  1.0000 -0.0394231569
C   C9        1.0  0.31810  0.01710  0.17540  1.0000 -0.0914554413
C   C10       1.0  0.01710  0.31810  0.32460  1.0000 -0.0914554413
C   C11       1.0  0.68190  0.98290  0.82460  1.0000 -0.0914554413
C   C12       1.0  0.98290  0.68190  0.67540  1.0000 -0.0914554413
C   C13       1.0  0.41060  0.02220  0.19340  1.0000 -0.1505029753
C   C14       1.0  0.02220  0.41060  0.30660  1.0000 -0.1505029753
C   C15       1.0  0.58940  0.97780  0.80660  1.0000 -0.1505029753
C   C16       1.0  0.97780  0.58940  0.69340  1.0000 -0.1505029753
C   C17       1.0  0.46480  0.02980  0.14060  1.0000 0.0670718454
C   C18       1.0  0.02980  0.46480  0.35940  1.0000 0.0670718454
C   C19       1.0  0.53520  0.97020  0.85940  1.0000 0.0670718454
C   C20       1.0  0.97020  0.53520  0.64060  1.0000 0.0670718454
C   C21       1.0  0.41610  0.03390  0.06650  1.0000 -0.1505029753
C   C22       1.0  0.03390  0.41610  0.43350  1.0000 -0.1505029753
C   C23       1.0  0.58390  0.96610  0.93350  1.0000 -0.1505029753
C   C24       1.0  0.96610  0.58390  0.56650  1.0000 -0.1505029753
C   C25       1.0  0.32260  0.02880  0.04710  1.0000 -0.0914554413
C   C26       1.0  0.02880  0.32260  0.45290  1.0000 -0.0914554413
C   C27       1.0  0.67740  0.97120  0.95290  1.0000 -0.0914554413
C   C28       1.0  0.97120  0.67740  0.54710  1.0000 -0.0914554413
C   C29       1.0  0.03170  0.18090  0.00090  1.0000 0.6513418943
C   C30       1.0  0.18090  0.03170  0.49910  1.0000 0.6513418943
C   C31       1.0  0.96830  0.81910  0.99910  1.0000 0.6513418943
C   C32       1.0  0.81910  0.96830  0.50090  1.0000 0.6513418943
C   C33       1.0  0.02350  0.27550  0.00210  1.0000 -0.0309313819
C   C34       1.0  0.27550  0.02350  0.49790  1.0000 -0.0309313819
C   C35       1.0  0.97650  0.72450  0.99790  1.0000 -0.0309313819
C   C36       1.0  0.72450  0.97650  0.50210  1.0000 -0.0309313819
C   C37       1.0  0.05230  0.35390  0.94560  1.0000 -0.0971624575
C   C38       1.0  0.35390  0.05230  0.55440  1.0000 -0.0971624575
C   C39       1.0  0.94770  0.64610  0.05440  1.0000 -0.0971624575
C   C40       1.0  0.64610  0.94770  0.44560  1.0000 -0.0971624575
C   C41       1.0  0.04530  0.44150  0.94620  1.0000 -0.1601680446
C   C42       1.0  0.44150  0.04530  0.55380  1.0000 -0.1601680446
C   C43       1.0  0.95470  0.55850  0.05380  1.0000 -0.1601680446
C   C44       1.0  0.55850  0.95470  0.44620  1.0000 -0.1601680446
C   C45       1.0  0.00570  0.45310  0.00100  1.0000 0.0781406328
C   C46       1.0  0.45310  0.00570  0.49900  1.0000 0.0781406328
C   C47       1.0  0.99430  0.54690  0.99900  1.0000 0.0781406328
C   C48       1.0  0.54690  0.99430  0.50100  1.0000 0.0781406328
C   C49       1.0  0.98110  0.37570  0.05750  1.0000 -0.1601680446
C   C50       1.0  0.37570  0.98110  0.44250  1.0000 -0.1601680446
C   C51       1.0  0.01890  0.62430  0.94250  1.0000 -0.1601680446
C   C52       1.0  0.62430  0.01890  0.55750  1.0000 -0.1601680446
C   C53       1.0  0.98740  0.28820  0.05770  1.0000 -0.0914554413
C   C54       1.0  0.28820  0.98740  0.44230  1.0000 -0.0914554413
C   C55       1.0  0.01260  0.71180  0.94230  1.0000 -0.0914554413
C   C56       1.0  0.71180  0.01260  0.55770  1.0000 -0.0914554413
C   C57       1.0  0.85030  0.01590  0.21420  1.0000 0.6513418943
C   C58       1.0  0.01590  0.85030  0.28580  1.0000 0.6513418943
C   C59       1.0  0.14970  0.98410  0.78580  1.0000 0.6513418943
C   C60       1.0  0.98410  0.14970  0.71420  1.0000 0.6513418943
C   C61       1.0  0.75220  0.02420  0.19540  1.0000 -0.0394231569
C   C62       1.0  0.02420  0.75220  0.30460  1.0000 -0.0394231569
C   C63       1.0  0.24780  0.97580  0.80460  1.0000 -0.0394231569
C   C64       1.0  0.97580  0.24780  0.69540  1.0000 -0.0394231569
C   C65       1.0  0.72090  0.07410  0.12800  1.0000 -0.1079910829
C   C66       1.0  0.07410  0.72090  0.37200  1.0000 -0.1079910829
C   C67       1.0  0.27910  0.92590  0.87200  1.0000 -0.1079910829
C   C68       1.0  0.92590  0.27910  0.62800  1.0000 -0.1079910829
C   C69       1.0  0.62980  0.07980  0.11020  1.0000 -0.1505029753
C   C70       1.0  0.07980  0.62980  0.38980  1.0000 -0.1505029753
C   C71       1.0  0.37020  0.92020  0.88980  1.0000 -0.1505029753
C   C72       1.0  0.92020  0.37020  0.61020  1.0000 -0.1505029753
C   C73       1.0  0.56390  0.03210  0.15930  1.0000 0.0670718454
C   C74       1.0  0.03210  0.56390  0.34070  1.0000 0.0670718454
C   C75       1.0  0.43610  0.96790  0.84070  1.0000 0.0670718454
C   C76       1.0  0.96790  0.43610  0.65930  1.0000 0.0670718454
C   C77       1.0  0.59760  0.98300  0.22930  1.0000 -0.1441185459
C   C78       1.0  0.98300  0.59760  0.27070  1.0000 -0.1505029753
C   C79       1.0  0.40240  0.01700  0.77070  1.0000 -0.1505029753
C   C80       1.0  0.01700  0.40240  0.72930  1.0000 -0.1505029753
C   C81       1.0  0.68770  0.98050  0.24660  1.0000 -0.0914554413
C   C82       1.0  0.98050  0.68770  0.25340  1.0000 -0.0914554413
C   C83       1.0  0.31230  0.01950  0.75340  1.0000 -0.0914554413
C   C84       1.0  0.01950  0.31230  0.74660  1.0000 -0.0914554413
O   O1        1.0  0.12900  0.01320  0.01270  1.0000 -0.7146614179
O   O2        1.0  0.01320  0.12900  0.48730  1.0000 -0.7162728295
O   O3        1.0  0.87100  0.98680  0.98730  1.0000 -0.7146614179
O   O4        1.0  0.98680  0.87100  0.51270  1.0000 -0.7146614179
O   O5        1.0  0.89656  0.03924  0.16100  1.0000 -0.683327733
O   O6        1.0  0.03924  0.89656  0.33900  1.0000 -0.683327733
O   O7        1.0  0.10344  0.96076  0.83900  1.0000 -0.683327733
O   O8        1.0  0.96076  0.10344  0.66100  1.0000 -0.683327733
O   O9        1.0  0.04400  0.16740  0.93970  1.0000 -0.6964555368
O   O10       1.0  0.16740  0.04400  0.56030  1.0000 -0.6964555368
O   O11       1.0  0.95600  0.83260  0.06030  1.0000 -0.6964555368
O   O12       1.0  0.83260  0.95600  0.43970  1.0000 -0.6964555368
O   O13       1.0  0.87590  0.98050  0.27910  1.0000 -0.6588408634
O   O14       1.0  0.98050  0.87590  0.22090  1.0000 -0.6588408634
O   O15       1.0  0.12410  0.01950  0.72090  1.0000 -0.6588408634
O   O16       1.0  0.01950  0.12410  0.77910  1.0000 -0.6588408634
O   O17       1.0  0.88010  0.01050  0.86660  1.0000 -0.6398290381
O   O18       1.0  0.01050  0.88010  0.63340  1.0000 -0.6398290381
O   O19       1.0  0.11990  0.98950  0.13340  1.0000 -0.6398290381
O   O20       1.0  0.98950  0.11990  0.36660  1.0000 -0.6398290381
O   O21       1.0  0.02450  0.12230  0.05950  1.0000 -0.6398290381
O   O22       1.0  0.12230  0.02450  0.44050  1.0000 -0.6398290381
O   O23       1.0  0.97550  0.87770  0.94050  1.0000 -0.6398290381
O   O24       1.0  0.87770  0.97550  0.55950  1.0000 -0.6398290381
