# DDEC6 charges by PACMAN v1.1 (https://github.com/mtap-research/PACMAN-charge/)
data_2005[U][bnn]3[ASR]1
_chemical_formula_sum              "U12 C60 O120"
_cell_length_a       19.177
_cell_length_b       19.177
_cell_length_c       12.728
_cell_angle_alpha    90
_cell_angle_beta     90
_cell_angle_gamma    120

_symmetry_space_group_name_H-M    "P 1"
_symmetry_Int_Tables_number       1

loop_
  _symmetry_equiv_pos_as_xyz
  'x, y, z'

loop_
  _atom_site_type_symbol
  _atom_site_label
  _atom_site_symmetry_multiplicity
  _atom_site_fract_x
  _atom_site_fract_y
  _atom_site_fract_z
  _atom_site_occupancy
  _atom_site_charge
U   U1        1.0  0.33305  0.33305  0.50000  1.0000 2.2015914953
U   U2        1.0  0.66695  0.00000  0.50000  1.0000 2.2015914953
U   U3        1.0  0.00000  0.66695  0.50000  1.0000 2.2015914953
U   U4        1.0  0.33305  0.00000  0.00000  1.0000 2.2015914953
U   U5        1.0  0.00000  0.33305  0.00000  1.0000 2.2015914953
U   U6        1.0  0.66695  0.66695  0.00000  1.0000 2.1946318836
U   U7        1.0  0.66695  0.66695  0.50000  1.0000 2.2015914953
U   U8        1.0  0.33305  0.00000  0.50000  1.0000 2.2015914953
U   U9        1.0  0.00000  0.33305  0.50000  1.0000 2.2015914953
U   U10       1.0  0.66695  0.00000  0.00000  1.0000 2.2015914953
U   U11       1.0  0.00000  0.66695  0.00000  1.0000 2.2015914953
U   U12       1.0  0.33305  0.33305  0.00000  1.0000 2.2015914953
C   C1        1.0  0.32750  0.37240  0.75000  1.0000 0.5209807791
C   C2        1.0  0.62760  0.95510  0.75000  1.0000 0.5209807791
C   C3        1.0  0.04490  0.67250  0.75000  1.0000 0.5209807791
C   C4        1.0  0.37240  0.04490  0.25000  1.0000 0.5209807791
C   C5        1.0  0.95510  0.32750  0.25000  1.0000 0.5209807791
C   C6        1.0  0.37240  0.32750  0.25000  1.0000 0.5209807791
C   C7        1.0  0.04490  0.37240  0.75000  1.0000 0.5209807791
C   C8        1.0  0.32750  0.95510  0.75000  1.0000 0.5209807791
C   C9        1.0  0.67250  0.62760  0.25000  1.0000 0.5209807791
C   C10       1.0  0.95510  0.62760  0.25000  1.0000 0.5209807791
C   C11       1.0  0.67250  0.04490  0.25000  1.0000 0.5209807791
C   C12       1.0  0.62760  0.67250  0.75000  1.0000 0.5209807791
C   C13       1.0  0.31320  0.28820  0.75000  1.0000 0.5209807791
C   C14       1.0  0.71180  0.02500  0.75000  1.0000 0.5209807791
C   C15       1.0  0.97500  0.68680  0.75000  1.0000 0.5209807791
C   C16       1.0  0.28820  0.97500  0.25000  1.0000 0.5209807791
C   C17       1.0  0.02500  0.31320  0.25000  1.0000 0.5209807791
C   C18       1.0  0.28820  0.31320  0.25000  1.0000 0.5209807791
C   C19       1.0  0.97500  0.28820  0.75000  1.0000 0.5209807791
C   C20       1.0  0.31320  0.02500  0.75000  1.0000 0.5209807791
C   C21       1.0  0.68680  0.71180  0.25000  1.0000 0.5209807791
C   C22       1.0  0.02500  0.71180  0.25000  1.0000 0.5209807791
C   C23       1.0  0.68680  0.97500  0.25000  1.0000 0.5209807791
C   C24       1.0  0.71180  0.68680  0.75000  1.0000 0.5209807791
C   C25       1.0  0.14770  0.29540  0.53000  1.0000 0.5405478816
C   C26       1.0  0.70460  0.85230  0.53000  1.0000 0.5405478816
C   C27       1.0  0.14770  0.85230  0.53000  1.0000 0.5405478816
C   C28       1.0  0.29540  0.14770  0.03000  1.0000 0.5405478816
C   C29       1.0  0.85230  0.14770  0.03000  1.0000 0.5405478816
C   C30       1.0  0.29540  0.14770  0.47000  1.0000 0.5405478816
C   C31       1.0  0.14770  0.29540  0.97000  1.0000 0.5405478816
C   C32       1.0  0.14770  0.85230  0.97000  1.0000 0.5405478816
C   C33       1.0  0.85230  0.70460  0.03000  1.0000 0.5405478816
C   C34       1.0  0.85230  0.70460  0.47000  1.0000 0.5405478816
C   C35       1.0  0.85230  0.14770  0.47000  1.0000 0.5405478816
C   C36       1.0  0.70460  0.85230  0.97000  1.0000 0.5405478816
C   C37       1.0  0.19135  0.38270  0.49400  1.0000 0.5405478816
C   C38       1.0  0.61730  0.80865  0.49400  1.0000 0.5405478816
C   C39       1.0  0.19135  0.80865  0.49400  1.0000 0.5405478816
C   C40       1.0  0.38270  0.19135  0.99400  1.0000 0.5405478816
C   C41       1.0  0.80865  0.19135  0.99400  1.0000 0.5405478816
C   C42       1.0  0.38270  0.19135  0.50600  1.0000 0.5405478816
C   C43       1.0  0.19135  0.38270  0.00600  1.0000 0.5405478816
C   C44       1.0  0.19135  0.80865  0.00600  1.0000 0.5405478816
C   C45       1.0  0.80865  0.61730  0.99400  1.0000 0.5405478816
C   C46       1.0  0.80865  0.61730  0.50600  1.0000 0.5405478816
C   C47       1.0  0.80865  0.19135  0.50600  1.0000 0.5405478816
C   C48       1.0  0.61730  0.80865  0.00600  1.0000 0.5405478816
C   C49       1.0  0.48370  0.51630  0.45950  1.0000 0.5209807791
C   C50       1.0  0.48370  0.96740  0.45950  1.0000 0.5209807791
C   C51       1.0  0.03260  0.51630  0.45950  1.0000 0.5209807791
C   C52       1.0  0.51630  0.03260  0.95950  1.0000 0.5253406257
C   C53       1.0  0.96740  0.48370  0.95950  1.0000 0.5209807791
C   C54       1.0  0.51630  0.48370  0.54050  1.0000 0.5209807791
C   C55       1.0  0.03260  0.51630  0.04050  1.0000 0.5209807791
C   C56       1.0  0.48370  0.96740  0.04050  1.0000 0.5209807791
C   C57       1.0  0.51630  0.48370  0.95950  1.0000 0.5209807791
C   C58       1.0  0.96740  0.48370  0.54050  1.0000 0.5209807791
C   C59       1.0  0.51630  0.03260  0.54050  1.0000 0.5209807791
C   C60       1.0  0.48370  0.51630  0.04050  1.0000 0.5253406257
O   O1        1.0  0.32800  0.40170  0.66080  1.0000 -0.507454106
O   O2        1.0  0.59830  0.92630  0.66080  1.0000 -0.507454106
O   O3        1.0  0.07370  0.67200  0.66080  1.0000 -0.507454106
O   O4        1.0  0.40170  0.07370  0.16080  1.0000 -0.507454106
O   O5        1.0  0.92630  0.32800  0.16080  1.0000 -0.507454106
O   O6        1.0  0.40170  0.32800  0.33920  1.0000 -0.507454106
O   O7        1.0  0.07370  0.40170  0.83920  1.0000 -0.507454106
O   O8        1.0  0.32800  0.92630  0.83920  1.0000 -0.507454106
O   O9        1.0  0.67200  0.59830  0.16080  1.0000 -0.507454106
O   O10       1.0  0.92630  0.59830  0.33920  1.0000 -0.507454106
O   O11       1.0  0.67200  0.07370  0.33920  1.0000 -0.507454106
O   O12       1.0  0.59830  0.67200  0.83920  1.0000 -0.507454106
O   O13       1.0  0.67200  0.59830  0.33920  1.0000 -0.507454106
O   O14       1.0  0.40170  0.07370  0.33920  1.0000 -0.507454106
O   O15       1.0  0.92630  0.32800  0.33920  1.0000 -0.507454106
O   O16       1.0  0.59830  0.92630  0.83920  1.0000 -0.507454106
O   O17       1.0  0.07370  0.67200  0.83920  1.0000 -0.507454106
O   O18       1.0  0.59830  0.67200  0.66080  1.0000 -0.507454106
O   O19       1.0  0.92630  0.59830  0.16080  1.0000 -0.507454106
O   O20       1.0  0.67200  0.07370  0.16080  1.0000 -0.507454106
O   O21       1.0  0.32800  0.40170  0.83920  1.0000 -0.507454106
O   O22       1.0  0.07370  0.40170  0.66080  1.0000 -0.507454106
O   O23       1.0  0.32800  0.92630  0.66080  1.0000 -0.5049923568
O   O24       1.0  0.40170  0.32800  0.16080  1.0000 -0.507454106
O   O25       1.0  0.26590  0.41570  0.47830  1.0000 -0.4624946785
O   O26       1.0  0.58430  0.85020  0.47830  1.0000 -0.4624946785
O   O27       1.0  0.14980  0.73410  0.47830  1.0000 -0.4624946785
O   O28       1.0  0.41570  0.14980  0.97830  1.0000 -0.4624946785
O   O29       1.0  0.85020  0.26590  0.97830  1.0000 -0.4624946785
O   O30       1.0  0.41570  0.26590  0.52170  1.0000 -0.4624946785
O   O31       1.0  0.14980  0.41570  0.02170  1.0000 -0.4624946785
O   O32       1.0  0.26590  0.85020  0.02170  1.0000 -0.4624946785
O   O33       1.0  0.73410  0.58430  0.97830  1.0000 -0.4624946785
O   O34       1.0  0.85020  0.58430  0.52170  1.0000 -0.4624946785
O   O35       1.0  0.73410  0.14980  0.52170  1.0000 -0.4624946785
O   O36       1.0  0.58430  0.73410  0.02170  1.0000 -0.4624946785
O   O37       1.0  0.73410  0.58430  0.52170  1.0000 -0.4624946785
O   O38       1.0  0.41570  0.14980  0.52170  1.0000 -0.4624946785
O   O39       1.0  0.85020  0.26590  0.52170  1.0000 -0.4624946785
O   O40       1.0  0.58430  0.85020  0.02170  1.0000 -0.4624946785
O   O41       1.0  0.14980  0.73410  0.02170  1.0000 -0.4624946785
O   O42       1.0  0.58430  0.73410  0.47830  1.0000 -0.4624946785
O   O43       1.0  0.85020  0.58430  0.97830  1.0000 -0.4624946785
O   O44       1.0  0.73410  0.14980  0.97830  1.0000 -0.4624946785
O   O45       1.0  0.26590  0.41570  0.02170  1.0000 -0.4624946785
O   O46       1.0  0.14980  0.41570  0.47830  1.0000 -0.4624946785
O   O47       1.0  0.26590  0.85020  0.47830  1.0000 -0.4624946785
O   O48       1.0  0.41570  0.26590  0.97830  1.0000 -0.4624946785
O   O49       1.0  0.18950  0.26240  0.54310  1.0000 -0.478979622
O   O50       1.0  0.73760  0.92710  0.54310  1.0000 -0.478979622
O   O51       1.0  0.07290  0.81050  0.54310  1.0000 -0.478979622
O   O52       1.0  0.26240  0.07290  0.04310  1.0000 -0.478979622
O   O53       1.0  0.92710  0.18950  0.04310  1.0000 -0.478979622
O   O54       1.0  0.26240  0.18950  0.45690  1.0000 -0.478979622
O   O55       1.0  0.07290  0.26240  0.95690  1.0000 -0.478979622
O   O56       1.0  0.18950  0.92710  0.95690  1.0000 -0.478979622
O   O57       1.0  0.81050  0.73760  0.04310  1.0000 -0.478979622
O   O58       1.0  0.92710  0.73760  0.45690  1.0000 -0.478979622
O   O59       1.0  0.81050  0.07290  0.45690  1.0000 -0.478979622
O   O60       1.0  0.73760  0.81050  0.95690  1.0000 -0.478979622
O   O61       1.0  0.81050  0.73760  0.45690  1.0000 -0.478979622
O   O62       1.0  0.26240  0.07290  0.45690  1.0000 -0.478979622
O   O63       1.0  0.92710  0.18950  0.45690  1.0000 -0.478979622
O   O64       1.0  0.73760  0.92710  0.95690  1.0000 -0.478979622
O   O65       1.0  0.07290  0.81050  0.95690  1.0000 -0.478979622
O   O66       1.0  0.73760  0.81050  0.54310  1.0000 -0.478979622
O   O67       1.0  0.92710  0.73760  0.04310  1.0000 -0.478979622
O   O68       1.0  0.81050  0.07290  0.04310  1.0000 -0.478979622
O   O69       1.0  0.18950  0.26240  0.95690  1.0000 -0.478979622
O   O70       1.0  0.07290  0.26240  0.54310  1.0000 -0.478979622
O   O71       1.0  0.18950  0.92710  0.54310  1.0000 -0.478979622
O   O72       1.0  0.26240  0.18950  0.04310  1.0000 -0.478979622
O   O73       1.0  0.41300  0.46670  0.42140  1.0000 -0.507454106
O   O74       1.0  0.53330  0.94630  0.42140  1.0000 -0.507454106
O   O75       1.0  0.05370  0.58700  0.42140  1.0000 -0.507454106
O   O76       1.0  0.46670  0.05370  0.92140  1.0000 -0.507454106
O   O77       1.0  0.94630  0.41300  0.92140  1.0000 -0.507454106
O   O78       1.0  0.46670  0.41300  0.57860  1.0000 -0.507454106
O   O79       1.0  0.05370  0.46670  0.07860  1.0000 -0.507454106
O   O80       1.0  0.41300  0.94630  0.07860  1.0000 -0.507454106
O   O81       1.0  0.58700  0.53330  0.92140  1.0000 -0.507454106
O   O82       1.0  0.94630  0.53330  0.57860  1.0000 -0.507454106
O   O83       1.0  0.58700  0.05370  0.57860  1.0000 -0.507454106
O   O84       1.0  0.53330  0.58700  0.07860  1.0000 -0.507454106
O   O85       1.0  0.58700  0.53330  0.57860  1.0000 -0.507454106
O   O86       1.0  0.46670  0.05370  0.57860  1.0000 -0.507454106
O   O87       1.0  0.94630  0.41300  0.57860  1.0000 -0.507454106
O   O88       1.0  0.53330  0.94630  0.07860  1.0000 -0.507454106
O   O89       1.0  0.05370  0.58700  0.07860  1.0000 -0.507454106
O   O90       1.0  0.53330  0.58700  0.42140  1.0000 -0.507454106
O   O91       1.0  0.94630  0.53330  0.92140  1.0000 -0.507454106
O   O92       1.0  0.58700  0.05370  0.92140  1.0000 -0.507454106
O   O93       1.0  0.41300  0.46670  0.07860  1.0000 -0.507454106
O   O94       1.0  0.05370  0.46670  0.42140  1.0000 -0.507454106
O   O95       1.0  0.41300  0.94630  0.42140  1.0000 -0.507454106
O   O96       1.0  0.46670  0.41300  0.92140  1.0000 -0.507454106
O   O97       1.0  0.30530  0.25650  0.66300  1.0000 -0.4666081949
O   O98       1.0  0.74350  0.04880  0.66300  1.0000 -0.4666081949
O   O99       1.0  0.95120  0.69470  0.66300  1.0000 -0.4666081949
O   O100      1.0  0.25650  0.95120  0.16300  1.0000 -0.4666081949
O   O101      1.0  0.04880  0.30530  0.16300  1.0000 -0.4666081949
O   O102      1.0  0.25650  0.30530  0.33700  1.0000 -0.4666081949
O   O103      1.0  0.95120  0.25650  0.83700  1.0000 -0.4666081949
O   O104      1.0  0.30530  0.04880  0.83700  1.0000 -0.4666081949
O   O105      1.0  0.69470  0.74350  0.16300  1.0000 -0.4666081949
O   O106      1.0  0.04880  0.74350  0.33700  1.0000 -0.4666081949
O   O107      1.0  0.69470  0.95120  0.33700  1.0000 -0.4666081949
O   O108      1.0  0.74350  0.69470  0.83700  1.0000 -0.4666081949
O   O109      1.0  0.69470  0.74350  0.33700  1.0000 -0.4666081949
O   O110      1.0  0.25650  0.95120  0.33700  1.0000 -0.4666081949
O   O111      1.0  0.04880  0.30530  0.33700  1.0000 -0.4666081949
O   O112      1.0  0.74350  0.04880  0.83700  1.0000 -0.4666081949
O   O113      1.0  0.95120  0.69470  0.83700  1.0000 -0.4666081949
O   O114      1.0  0.74350  0.69470  0.66300  1.0000 -0.4666081949
O   O115      1.0  0.04880  0.74350  0.16300  1.0000 -0.4666081949
O   O116      1.0  0.69470  0.95120  0.16300  1.0000 -0.4666081949
O   O117      1.0  0.30530  0.25650  0.83700  1.0000 -0.4666081949
O   O118      1.0  0.95120  0.25650  0.66300  1.0000 -0.4666081949
O   O119      1.0  0.30530  0.04880  0.66300  1.0000 -0.4666081949
O   O120      1.0  0.25650  0.30530  0.16300  1.0000 -0.4666081949
