# DDEC6 charges by PACMAN v1.1 (https://github.com/mtap-research/PACMAN-charge/)
data_2005[Cu][dia]3[ASR]1
_chemical_formula_sum              "Cu2 H40 C48 N8"
_cell_length_a       12.9487
_cell_length_b       12.9487
_cell_length_c       12.9487
_cell_angle_alpha    95.5873
_cell_angle_beta     95.5873
_cell_angle_gamma    143.637

_symmetry_space_group_name_H-M    "P 1"
_symmetry_Int_Tables_number       1

loop_
  _symmetry_equiv_pos_as_xyz
  'x, y, z'

loop_
  _atom_site_type_symbol
  _atom_site_label
  _atom_site_symmetry_multiplicity
  _atom_site_fract_x
  _atom_site_fract_y
  _atom_site_fract_z
  _atom_site_occupancy
  _atom_site_charge
Cu  Cu1       1.0  0.00000  0.00000  0.00000  1.0000 0.1360962861
Cu  Cu2       1.0  0.75000  0.25000  0.50000  1.0000 0.2387739741
H   H1        1.0  0.20550  0.17210  0.84300  1.0000 0.0940935013
H   H2        1.0  0.32910  0.36250  0.15700  1.0000 0.0940935013
H   H3        1.0  0.63750  0.79450  0.96660  1.0000 0.0940935013
H   H4        1.0  0.82790  0.67090  0.03340  1.0000 0.0940935013
H   H5        1.0  0.36500  0.42020  0.78580  1.0000 0.1225697976
H   H6        1.0  0.63440  0.57920  0.21420  1.0000 0.1225697976
H   H7        1.0  0.42080  0.63500  0.05520  1.0000 0.1225697976
H   H8        1.0  0.57980  0.36560  0.94480  1.0000 0.1225697976
H   H9        1.0  0.05320  0.38590  0.87490  1.0000 0.1273050675
H   H10       1.0  0.51100  0.17830  0.12510  1.0000 0.1273050675
H   H11       1.0  0.82170  0.94680  0.33270  1.0000 0.1273050675
H   H12       1.0  0.61410  0.48900  0.66730  1.0000 0.1273050675
H   H13       1.0  0.93510  0.16650  0.94940  1.0000 0.0940935013
H   H14       1.0  0.21710  0.98570  0.05060  1.0000 0.0940935013
H   H15       1.0  0.01430  0.06490  0.23140  1.0000 0.0940935013
H   H16       1.0  0.83350  0.78290  0.76860  1.0000 0.0940935013
H   H17       1.0  0.25390  0.60410  0.77400  1.0000 0.1225697976
H   H18       1.0  0.83010  0.47990  0.22600  1.0000 0.1225697976
H   H19       1.0  0.52010  0.74610  0.35020  1.0000 0.1225697976
H   H20       1.0  0.39590  0.16990  0.64980  1.0000 0.1225697976
H   H21       1.0  0.44860  0.61070  0.70570  1.0000 0.1106988065
H   H22       1.0  0.90500  0.74290  0.29430  1.0000 0.1106988065
H   H23       1.0  0.25710  0.55140  0.16210  1.0000 0.1106988065
H   H24       1.0  0.38930  0.09500  0.83790  1.0000 0.1106988065
H   H25       1.0  0.68440  0.84950  0.62350  1.0000 0.1225697976
H   H26       1.0  0.22600  0.06090  0.37650  1.0000 0.1273050675
H   H27       1.0  0.93910  0.31560  0.16510  1.0000 0.1225697976
H   H28       1.0  0.15050  0.77400  0.83490  1.0000 0.1225697976
H   H29       1.0  0.82250  0.08470  0.56200  1.0000 0.0991265424
H   H30       1.0  0.52270  0.26050  0.43800  1.0000 0.0991265424
H   H31       1.0  0.73950  0.17750  0.26220  1.0000 0.0991265424
H   H32       1.0  0.91530  0.47730  0.73780  1.0000 0.0991265424
H   H33       1.0  0.56190  0.09080  0.67050  1.0000 0.0940935013
H   H34       1.0  0.42030  0.89140  0.32950  1.0000 0.0940935013
H   H35       1.0  0.10860  0.43810  0.52890  1.0000 0.0940935013
H   H36       1.0  0.90920  0.57970  0.47110  1.0000 0.0940935013
H   H37       1.0  0.43950  0.87440  0.74990  1.0000 0.1273050675
H   H38       1.0  0.12450  0.68960  0.25010  1.0000 0.1273050675
H   H39       1.0  0.31040  0.56050  0.43490  1.0000 0.1273050675
H   H40       1.0  0.12560  0.87550  0.56510  1.0000 0.1273050675
C   C1        1.0  0.18110  0.22250  0.85300  1.0000 0.0271094385
C   C2        1.0  0.36950  0.32810  0.14700  1.0000 0.0271094385
C   C3        1.0  0.67190  0.81890  0.04140  1.0000 0.0271094385
C   C4        1.0  0.77750  0.63050  0.95860  1.0000 0.0271094385
C   C5        1.0  0.26920  0.36380  0.81240  1.0000 -0.2191329382
C   C6        1.0  0.55140  0.45680  0.18760  1.0000 -0.2191329382
C   C7        1.0  0.54320  0.73080  0.09460  1.0000 -0.2191329382
C   C8        1.0  0.63620  0.44860  0.90540  1.0000 -0.2191329382
C   C9        1.0  0.21470  0.42510  0.81060  1.0000 0.1489311107
C   C10       1.0  0.61450  0.40410  0.18940  1.0000 0.1489311107
C   C11       1.0  0.59590  0.78530  0.21040  1.0000 0.1489311107
C   C12       1.0  0.57490  0.38550  0.78960  1.0000 0.1489311107
C   C13       1.0  0.08990  0.34750  0.86720  1.0000 -0.2191329382
C   C14       1.0  0.48030  0.22270  0.13280  1.0000 -0.2191329382
C   C15       1.0  0.77730  0.91010  0.25760  1.0000 -0.2191329382
C   C16       1.0  0.65250  0.51970  0.74240  1.0000 -0.2191329382
C   C17       1.0  0.01890  0.21490  0.91240  1.0000 0.050728044
C   C18       1.0  0.30250  0.10650  0.08760  1.0000 0.050728044
C   C19       1.0  0.89350  0.98110  0.19600  1.0000 0.050728044
C   C20       1.0  0.78510  0.69750  0.80400  1.0000 0.050728044
C   C21       1.0  0.29580  0.57080  0.76720  1.0000 -0.17608696
C   C22       1.0  0.80360  0.52860  0.23280  1.0000 -0.17608696
C   C23       1.0  0.47140  0.70420  0.27500  1.0000 -0.17608696
C   C24       1.0  0.42920  0.19640  0.72500  1.0000 -0.17608696
C   C25       1.0  0.42150  0.65780  0.71990  1.0000 -0.149952197
C   C26       1.0  0.93790  0.70160  0.28010  1.0000 -0.149952197
C   C27       1.0  0.29840  0.57850  0.23630  1.0000 -0.149952197
C   C28       1.0  0.34220  0.06210  0.76370  1.0000 -0.149952197
C   C29       1.0  0.52780  0.82010  0.68510  1.0000 0.1273050675
C   C30       1.0  0.13500  0.84270  0.31490  1.0000 0.1273050675
C   C31       1.0  0.15730  0.47220  0.29230  1.0000 0.1273050675
C   C32       1.0  0.17990  0.86500  0.70770  1.0000 0.1273050675
C   C33       1.0  0.65320  0.89340  0.63240  1.0000 -0.2282831001
C   C34       1.0  0.26100  0.02080  0.36760  1.0000 -0.2191329382
C   C35       1.0  0.97920  0.34680  0.24020  1.0000 -0.2191329382
C   C36       1.0  0.10660  0.73900  0.75980  1.0000 -0.2282831001
C   C37       1.0  0.73190  0.03260  0.59310  1.0000 0.0072344722
C   C38       1.0  0.43950  0.13880  0.40690  1.0000 0.0072344722
C   C39       1.0  0.86120  0.26810  0.30070  1.0000 0.0072344722
C   C40       1.0  0.96740  0.56050  0.69930  1.0000 0.0072344722
C   C41       1.0  0.58630  0.04090  0.65720  1.0000 0.050728044
C   C42       1.0  0.38370  0.92910  0.34280  1.0000 0.050728044
C   C43       1.0  0.07090  0.41370  0.45460  1.0000 0.050728044
C   C44       1.0  0.95910  0.61630  0.54540  1.0000 0.050728044
C   C45       1.0  0.50770  0.90590  0.70420  1.0000 -0.2025333937
C   C46       1.0  0.20170  0.80350  0.29580  1.0000 -0.2025333937
C   C47       1.0  0.19650  0.49230  0.39820  1.0000 -0.2025333937
C   C48       1.0  0.09410  0.79830  0.60180  1.0000 -0.2025333937
N   N1        1.0  0.06310  0.15500  0.90570  1.0000 -0.2025333937
N   N2        1.0  0.24930  0.15740  0.09430  1.0000 -0.2025333937
N   N3        1.0  0.84260  0.93690  0.09190  1.0000 -0.2025333937
N   N4        1.0  0.84500  0.75070  0.90810  1.0000 -0.2025333937
N   N5        1.0  0.69300  0.10400  0.59440  1.0000 -0.2282831001
N   N6        1.0  0.50960  0.09860  0.40560  1.0000 -0.2282831001
N   N7        1.0  0.90140  0.30700  0.41100  1.0000 -0.2282831001
N   N8        1.0  0.89600  0.49040  0.58900  1.0000 -0.2282831001
