# DDEC6 charges by PACMAN v1.1 (https://github.com/mtap-research/PACMAN-charge/)
data_2005[Mn][nan]3[ASR]1
_chemical_formula_sum              "Mn4 P2 C6 O20"
_cell_length_a       7.744
_cell_length_b       8.014
_cell_length_c       9.74
_cell_angle_alpha    75.9
_cell_angle_beta     77.68
_cell_angle_gamma    86.62

_symmetry_space_group_name_H-M    "P 1"
_symmetry_Int_Tables_number       1

loop_
  _symmetry_equiv_pos_as_xyz
  'x, y, z'

loop_
  _atom_site_type_symbol
  _atom_site_label
  _atom_site_symmetry_multiplicity
  _atom_site_fract_x
  _atom_site_fract_y
  _atom_site_fract_z
  _atom_site_occupancy
  _atom_site_charge
Mn  Mn1       1.0  0.15892  0.96804  0.74874  1.0000 1.1018774929
Mn  Mn2       1.0  0.84108  0.03196  0.25126  1.0000 1.1053121509
Mn  Mn3       1.0  0.81271  0.69078  0.88045  1.0000 1.1236957731
Mn  Mn4       1.0  0.18729  0.30922  0.11955  1.0000 1.1265728893
P   P1        1.0  0.07318  0.73268  0.08984  1.0000 1.5492275776
P   P2        1.0  0.92682  0.26732  0.91016  1.0000 1.5492275776
C   C1        1.0  0.06250  0.07660  0.45820  1.0000 0.5158914151
C   C2        1.0  0.93750  0.92340  0.54180  1.0000 0.509081501
C   C3        1.0  0.52040  0.93470  0.80080  1.0000 0.509081501
C   C4        1.0  0.47960  0.06530  0.19920  1.0000 0.509081501
C   C5        1.0  0.48170  0.76290  0.76670  1.0000 0.509081501
C   C6        1.0  0.51830  0.23710  0.23330  1.0000 0.509081501
O   O1        1.0  0.18350  0.10600  0.51440  1.0000 -0.3867900549
O   O2        1.0  0.81650  0.89400  0.48560  1.0000 -0.3867900549
O   O3        1.0  0.41040  0.05460  0.78010  1.0000 -0.3713890491
O   O4        1.0  0.58960  0.94540  0.21990  1.0000 -0.3753700433
O   O5        1.0  0.34660  0.75970  0.71700  1.0000 -0.4127186714
O   O6        1.0  0.65340  0.24030  0.28300  1.0000 -0.4127186714
O   O7        1.0  0.01520  0.80470  0.94590  1.0000 -0.7904085694
O   O8        1.0  0.98480  0.19530  0.05410  1.0000 -0.7904085694
O   O9        1.0  0.02830  0.15950  0.33910  1.0000 -0.4500188856
O   O10       1.0  0.97170  0.84050  0.66090  1.0000 -0.4500188856
O   O11       1.0  0.96250  0.80610  0.21060  1.0000 -0.7394216436
O   O12       1.0  0.03750  0.19390  0.78940  1.0000 -0.7394216436
O   O13       1.0  0.65930  0.93950  0.84630  1.0000 -0.3713890491
O   O14       1.0  0.34070  0.06050  0.15370  1.0000 -0.3713890491
O   O15       1.0  0.58670  0.63990  0.79290  1.0000 -0.4028088031
O   O16       1.0  0.41330  0.36010  0.20710  1.0000 -0.4028088031
O   O17       1.0  0.06980  0.53940  0.13350  1.0000 -0.7457542
O   O18       1.0  0.93020  0.46060  0.86650  1.0000 -0.7394216436
O   O19       1.0  0.27250  0.78830  0.06670  1.0000 -0.6390830456
O   O20       1.0  0.72750  0.21170  0.93330  1.0000 -0.6390830456
