# DDEC6 charges by PACMAN v1.1 (https://github.com/mtap-research/PACMAN-charge/)
data_2005[Tb][nan]3[ASR]2
_chemical_formula_sum              "Tb3 H45 C81 O18"
_cell_length_a       16.97
_cell_length_b       16.97
_cell_length_c       16.97
_cell_angle_alpha    114.434
_cell_angle_beta     114.434
_cell_angle_gamma    114.434

_symmetry_space_group_name_H-M    "P 1"
_symmetry_Int_Tables_number       1

loop_
  _symmetry_equiv_pos_as_xyz
  'x, y, z'

loop_
  _atom_site_type_symbol
  _atom_site_label
  _atom_site_symmetry_multiplicity
  _atom_site_fract_x
  _atom_site_fract_y
  _atom_site_fract_z
  _atom_site_occupancy
  _atom_site_charge
Tb  Tb1       1.0  0.00000  0.67751  0.32249  1.0000 2.0622403141
Tb  Tb2       1.0  0.67751  0.32249  0.00000  1.0000 2.0622403141
Tb  Tb3       1.0  0.32249  0.00000  0.67751  1.0000 2.0622403141
H   H1        1.0  0.13910  0.56460  0.15640  1.0000 0.1226042301
H   H2        1.0  0.56460  0.15640  0.13910  1.0000 0.1226042301
H   H3        1.0  0.15640  0.13910  0.56460  1.0000 0.1226042301
H   H4        1.0  0.86090  0.84360  0.43540  1.0000 0.1226042301
H   H5        1.0  0.43540  0.86090  0.84360  1.0000 0.1226042301
H   H6        1.0  0.84360  0.43540  0.86090  1.0000 0.1226042301
H   H7        1.0  0.20810  0.54730  0.06420  1.0000 0.1115921812
H   H8        1.0  0.54730  0.06420  0.20810  1.0000 0.1115921812
H   H9        1.0  0.06420  0.20810  0.54730  1.0000 0.1115921812
H   H10       1.0  0.79190  0.93580  0.45270  1.0000 0.1115921812
H   H11       1.0  0.45270  0.79190  0.93580  1.0000 0.1115921812
H   H12       1.0  0.93580  0.45270  0.79190  1.0000 0.1115921812
H   H13       1.0  0.19600  0.43300  0.91190  1.0000 0.1115921812
H   H14       1.0  0.43300  0.91190  0.19600  1.0000 0.1115921812
H   H15       1.0  0.91190  0.19600  0.43300  1.0000 0.1115921812
H   H16       1.0  0.80400  0.08810  0.56700  1.0000 0.1115921812
H   H17       1.0  0.56700  0.80400  0.08810  1.0000 0.1115921812
H   H18       1.0  0.08810  0.56700  0.80400  1.0000 0.1115921812
H   H19       1.0  0.26345  0.50000  0.73655  1.0000 0.1115921812
H   H20       1.0  0.50000  0.73655  0.26345  1.0000 0.1115921812
H   H21       1.0  0.73655  0.26345  0.50000  1.0000 0.1115921812
H   H22       1.0  0.19800  0.28580  0.82040  1.0000 0.1115921812
H   H23       1.0  0.28580  0.82040  0.19800  1.0000 0.1115921812
H   H24       1.0  0.82040  0.19800  0.28580  1.0000 0.1115921812
H   H25       1.0  0.80200  0.17960  0.71420  1.0000 0.1115921812
H   H26       1.0  0.71420  0.80200  0.17960  1.0000 0.1115921812
H   H27       1.0  0.17960  0.71420  0.80200  1.0000 0.1115921812
H   H28       1.0  0.28740  0.21580  0.82320  1.0000 0.128541779
H   H29       1.0  0.21580  0.82320  0.28740  1.0000 0.128541779
H   H30       1.0  0.82320  0.28740  0.21580  1.0000 0.128541779
H   H31       1.0  0.71260  0.17680  0.78420  1.0000 0.128541779
H   H32       1.0  0.78420  0.71260  0.17680  1.0000 0.128541779
H   H33       1.0  0.17680  0.78420  0.71260  1.0000 0.128541779
H   H34       1.0  0.52040  0.46670  0.85950  1.0000 0.1226042301
H   H35       1.0  0.46670  0.85950  0.52040  1.0000 0.1226042301
H   H36       1.0  0.85950  0.52040  0.46670  1.0000 0.1226042301
H   H37       1.0  0.47960  0.14050  0.53330  1.0000 0.1226042301
H   H38       1.0  0.53330  0.47960  0.14050  1.0000 0.1226042301
H   H39       1.0  0.14050  0.53330  0.47960  1.0000 0.1226042301
H   H40       1.0  0.43050  0.53600  0.85490  1.0000 0.1115921812
H   H41       1.0  0.53600  0.85490  0.43050  1.0000 0.1115921812
H   H42       1.0  0.85490  0.43050  0.53600  1.0000 0.1115921812
H   H43       1.0  0.56950  0.14510  0.46400  1.0000 0.1115921812
H   H44       1.0  0.46400  0.56950  0.14510  1.0000 0.1115921812
H   H45       1.0  0.14510  0.46400  0.56950  1.0000 0.1115921812
C   C1        1.0  0.92986  0.50000  0.07014  1.0000 0.6235705928
C   C2        1.0  0.50000  0.07014  0.92986  1.0000 0.6235705928
C   C3        1.0  0.07014  0.92986  0.50000  1.0000 0.6235705928
C   C4        1.0  0.98329  0.50000  0.01671  1.0000 -0.026346338
C   C5        1.0  0.50000  0.01671  0.98329  1.0000 -0.026346338
C   C6        1.0  0.01671  0.98329  0.50000  1.0000 -0.026346338
C   C7        1.0  0.09432  0.53651  0.07987  1.0000 -0.0885095122
C   C8        1.0  0.53651  0.07987  0.09432  1.0000 -0.0885095122
C   C9        1.0  0.07987  0.09432  0.53651  1.0000 -0.0885095122
C   C10       1.0  0.90568  0.92013  0.46349  1.0000 -0.0885095122
C   C11       1.0  0.46349  0.90568  0.92013  1.0000 -0.0885095122
C   C12       1.0  0.92013  0.46349  0.90568  1.0000 -0.0885095122
C   C13       1.0  0.13710  0.53012  0.02608  1.0000 -0.1585155065
C   C14       1.0  0.53012  0.02608  0.13710  1.0000 -0.1585155065
C   C15       1.0  0.02608  0.13710  0.53012  1.0000 -0.1585155065
C   C16       1.0  0.86290  0.97392  0.46988  1.0000 -0.1585155065
C   C17       1.0  0.46988  0.86290  0.97392  1.0000 -0.1585155065
C   C18       1.0  0.97392  0.46988  0.86290  1.0000 -0.1585155065
C   C19       1.0  0.07962  0.50000  0.92038  1.0000 0.0630208667
C   C20       1.0  0.50000  0.92038  0.07962  1.0000 0.0630208667
C   C21       1.0  0.92038  0.07962  0.50000  1.0000 0.0630208667
C   C22       1.0  0.13297  0.50000  0.86703  1.0000 0.0878991401
C   C23       1.0  0.50000  0.86703  0.13297  1.0000 0.0878991401
C   C24       1.0  0.86703  0.13297  0.50000  1.0000 0.0878991401
C   C25       1.0  0.19035  0.45991  0.87384  1.0000 -0.1870032534
C   C26       1.0  0.45991  0.87384  0.19035  1.0000 -0.1870032534
C   C27       1.0  0.87384  0.19035  0.45991  1.0000 -0.1870032534
C   C28       1.0  0.80965  0.12616  0.54009  1.0000 -0.1870032534
C   C29       1.0  0.54009  0.80965  0.12616  1.0000 -0.1870032534
C   C30       1.0  0.12616  0.54009  0.80965  1.0000 -0.1870032534
C   C31       1.0  0.23898  0.45867  0.82555  1.0000 0.0706465905
C   C32       1.0  0.45867  0.82555  0.23898  1.0000 0.0706465905
C   C33       1.0  0.82555  0.23898  0.45867  1.0000 0.0706465905
C   C34       1.0  0.76102  0.17445  0.54133  1.0000 0.0706465905
C   C35       1.0  0.54133  0.76102  0.17445  1.0000 0.0706465905
C   C36       1.0  0.17445  0.54133  0.76102  1.0000 0.0706465905
C   C37       1.0  0.23087  0.50000  0.76913  1.0000 -0.2042024368
C   C38       1.0  0.50000  0.76913  0.23087  1.0000 -0.2042024368
C   C39       1.0  0.76913  0.23087  0.50000  1.0000 -0.2042024368
C   C40       1.0  0.30013  0.41622  0.83445  1.0000 0.0630208667
C   C41       1.0  0.41622  0.83445  0.30013  1.0000 0.0630208667
C   C42       1.0  0.83445  0.30013  0.41622  1.0000 0.0630208667
C   C43       1.0  0.69987  0.16555  0.58378  1.0000 0.0630208667
C   C44       1.0  0.58378  0.69987  0.16555  1.0000 0.0630208667
C   C45       1.0  0.16555  0.58378  0.69987  1.0000 0.0630208667
C   C46       1.0  0.26239  0.32218  0.82733  1.0000 -0.1502770716
C   C47       1.0  0.32218  0.82733  0.26239  1.0000 -0.1502770716
C   C48       1.0  0.82733  0.26239  0.32218  1.0000 -0.1502770716
C   C49       1.0  0.73761  0.17267  0.67782  1.0000 -0.1502770716
C   C50       1.0  0.67782  0.73761  0.17267  1.0000 -0.1502770716
C   C51       1.0  0.17267  0.67782  0.73761  1.0000 -0.1502770716
C   C52       1.0  0.31639  0.28056  0.82995  1.0000 -0.0802673111
C   C53       1.0  0.28056  0.82995  0.31639  1.0000 -0.0802673111
C   C54       1.0  0.82995  0.31639  0.28056  1.0000 -0.0802673111
C   C55       1.0  0.68361  0.17005  0.71944  1.0000 -0.0802673111
C   C56       1.0  0.71944  0.68361  0.17005  1.0000 -0.0802673111
C   C57       1.0  0.17005  0.71944  0.68361  1.0000 -0.0802673111
C   C58       1.0  0.41519  0.33510  0.84281  1.0000 -0.0378831573
C   C59       1.0  0.33510  0.84281  0.41519  1.0000 -0.0378831573
C   C60       1.0  0.84281  0.41519  0.33510  1.0000 -0.0378831573
C   C61       1.0  0.58481  0.15719  0.66490  1.0000 -0.0378831573
C   C62       1.0  0.66490  0.58481  0.15719  1.0000 -0.0378831573
C   C63       1.0  0.15719  0.66490  0.58481  1.0000 -0.0378831573
C   C64       1.0  0.45520  0.42999  0.85131  1.0000 -0.0885095122
C   C65       1.0  0.42999  0.85131  0.45520  1.0000 -0.0885095122
C   C66       1.0  0.85131  0.45520  0.42999  1.0000 -0.0885095122
C   C67       1.0  0.54480  0.14869  0.57001  1.0000 -0.0885095122
C   C68       1.0  0.57001  0.54480  0.14869  1.0000 -0.0885095122
C   C69       1.0  0.14869  0.57001  0.54480  1.0000 -0.0885095122
C   C70       1.0  0.40122  0.47124  0.84814  1.0000 -0.1585155065
C   C71       1.0  0.47124  0.84814  0.40122  1.0000 -0.1585155065
C   C72       1.0  0.84814  0.40122  0.47124  1.0000 -0.1585155065
C   C73       1.0  0.59878  0.15186  0.52876  1.0000 -0.1585155065
C   C74       1.0  0.52876  0.59878  0.15186  1.0000 -0.1585155065
C   C75       1.0  0.15186  0.52876  0.59878  1.0000 -0.1585155065
C   C76       1.0  0.48212  0.29945  0.85893  1.0000 0.6070519602
C   C77       1.0  0.29945  0.85893  0.48212  1.0000 0.6070519602
C   C78       1.0  0.85893  0.48212  0.29945  1.0000 0.6070519602
C   C79       1.0  0.51788  0.14107  0.70055  1.0000 0.6070519602
C   C80       1.0  0.70055  0.51788  0.14107  1.0000 0.6070519602
C   C81       1.0  0.14107  0.70055  0.51788  1.0000 0.6070519602
O   O1        1.0  0.00274  0.57204  0.18344  1.0000 -0.6466115996
O   O2        1.0  0.57204  0.18344  0.00274  1.0000 -0.6466115996
O   O3        1.0  0.18344  0.00274  0.57204  1.0000 -0.6466115996
O   O4        1.0  0.99726  0.81656  0.42796  1.0000 -0.6466115996
O   O5        1.0  0.42796  0.99726  0.81656  1.0000 -0.6466115996
O   O6        1.0  0.81656  0.42796  0.99726  1.0000 -0.6466115996
O   O7        1.0  0.43969  0.20653  0.84452  1.0000 -0.7459239845
O   O8        1.0  0.20653  0.84452  0.43969  1.0000 -0.7459239845
O   O9        1.0  0.84452  0.43969  0.20653  1.0000 -0.7459239845
O   O10       1.0  0.56031  0.15548  0.79347  1.0000 -0.7459239845
O   O11       1.0  0.79347  0.56031  0.15548  1.0000 -0.7459239845
O   O12       1.0  0.15548  0.79347  0.56031  1.0000 -0.7459239845
O   O13       1.0  0.58411  0.36469  0.89540  1.0000 -0.5777091269
O   O14       1.0  0.36469  0.89540  0.58411  1.0000 -0.5777091269
O   O15       1.0  0.89540  0.58411  0.36469  1.0000 -0.5777091269
O   O16       1.0  0.41589  0.10460  0.63531  1.0000 -0.5777091269
O   O17       1.0  0.63531  0.41589  0.10460  1.0000 -0.5777091269
O   O18       1.0  0.10460  0.63531  0.41589  1.0000 -0.5777091269
