# DDEC6 charges by PACMAN v1.1 (https://github.com/mtap-research/PACMAN-charge/)
data_2005[Zn][nan]3[ASR]3
_chemical_formula_sum              "Zn6 H6 C24 O18"
_cell_length_a       15.1444
_cell_length_b       15.1444
_cell_length_c       15.1444
_cell_angle_alpha    117.777
_cell_angle_beta     117.777
_cell_angle_gamma    117.777

_symmetry_space_group_name_H-M    "P 1"
_symmetry_Int_Tables_number       1

loop_
  _symmetry_equiv_pos_as_xyz
  'x, y, z'

loop_
  _atom_site_type_symbol
  _atom_site_label
  _atom_site_symmetry_multiplicity
  _atom_site_fract_x
  _atom_site_fract_y
  _atom_site_fract_z
  _atom_site_occupancy
  _atom_site_charge
Zn  Zn1       1.0  0.11074  0.53282  0.79513  1.0000 0.9792336836
Zn  Zn2       1.0  0.53282  0.79513  0.11074  1.0000 0.9792336836
Zn  Zn3       1.0  0.79513  0.11074  0.53282  1.0000 0.9792336836
Zn  Zn4       1.0  0.88926  0.46718  0.20487  1.0000 0.9792336836
Zn  Zn5       1.0  0.46718  0.20487  0.88926  1.0000 0.9792336836
Zn  Zn6       1.0  0.20487  0.88926  0.46718  1.0000 0.9792336836
H   H1        1.0  0.33050  0.80080  0.34860  1.0000 0.1473704392
H   H2        1.0  0.80080  0.34860  0.33050  1.0000 0.1473704392
H   H3        1.0  0.34860  0.33050  0.80080  1.0000 0.1473704392
H   H4        1.0  0.66950  0.19920  0.65140  1.0000 0.1473704392
H   H5        1.0  0.19920  0.65140  0.66950  1.0000 0.1473704392
H   H6        1.0  0.65140  0.66950  0.19920  1.0000 0.1473704392
C   C1        1.0  0.35166  0.73760  0.17554  1.0000 0.6356037988
C   C2        1.0  0.73760  0.17554  0.35166  1.0000 0.6356037988
C   C3        1.0  0.17554  0.35166  0.73760  1.0000 0.6356037988
C   C4        1.0  0.64834  0.26240  0.82446  1.0000 0.6356037988
C   C5        1.0  0.26240  0.82446  0.64834  1.0000 0.6347959055
C   C6        1.0  0.82446  0.64834  0.26240  1.0000 0.6356037988
C   C7        1.0  0.16498  0.61166  0.07716  1.0000 -0.1385433983
C   C8        1.0  0.61166  0.07716  0.16498  1.0000 -0.1385433983
C   C9        1.0  0.07716  0.16498  0.61166  1.0000 -0.1385433983
C   C10       1.0  0.83502  0.38834  0.92284  1.0000 -0.1385433983
C   C11       1.0  0.38834  0.92284  0.83502  1.0000 -0.1385433983
C   C12       1.0  0.92284  0.83502  0.38834  1.0000 -0.1385433983
C   C13       1.0  0.96412  0.42939  0.86359  1.0000 0.2978708608
C   C14       1.0  0.42939  0.86359  0.96412  1.0000 0.2978708608
C   C15       1.0  0.86359  0.96412  0.42939  1.0000 0.2978708608
C   C16       1.0  0.03588  0.57061  0.13641  1.0000 0.2978708608
C   C17       1.0  0.57061  0.13641  0.03588  1.0000 0.2978708608
C   C18       1.0  0.13641  0.03588  0.57061  1.0000 0.2978708608
C   C19       1.0  0.19466  0.67703  0.20591  1.0000 -0.2082090016
C   C20       1.0  0.67703  0.20591  0.19466  1.0000 -0.2082090016
C   C21       1.0  0.20591  0.19466  0.67703  1.0000 -0.2082090016
C   C22       1.0  0.80534  0.32297  0.79409  1.0000 -0.2082090016
C   C23       1.0  0.32297  0.79409  0.80534  1.0000 -0.2082090016
C   C24       1.0  0.79409  0.80534  0.32297  1.0000 -0.2082090016
O   O1        1.0  0.32946  0.67780  0.06254  1.0000 -0.5763583766
O   O2        1.0  0.67780  0.06254  0.32946  1.0000 -0.5763583766
O   O3        1.0  0.06254  0.32946  0.67780  1.0000 -0.5763583766
O   O4        1.0  0.67054  0.32220  0.93746  1.0000 -0.5747600184
O   O5        1.0  0.32220  0.93746  0.67054  1.0000 -0.5763583766
O   O6        1.0  0.93746  0.67054  0.32220  1.0000 -0.5747600184
O   O7        1.0  0.52279  0.89727  0.36674  1.0000 -0.532020339
O   O8        1.0  0.89727  0.36674  0.52279  1.0000 -0.532020339
O   O9        1.0  0.36674  0.52279  0.89727  1.0000 -0.532020339
O   O10       1.0  0.47721  0.10273  0.63326  1.0000 -0.532020339
O   O11       1.0  0.10273  0.63326  0.47721  1.0000 -0.532020339
O   O12       1.0  0.63326  0.47721  0.10273  1.0000 -0.532020339
O   O13       1.0  0.91757  0.35452  0.72581  1.0000 -0.6058651493
O   O14       1.0  0.35452  0.72581  0.91757  1.0000 -0.6058651493
O   O15       1.0  0.72581  0.91757  0.35452  1.0000 -0.6043071137
O   O16       1.0  0.08243  0.64548  0.27419  1.0000 -0.6043071137
O   O17       1.0  0.64548  0.27419  0.08243  1.0000 -0.6058651493
O   O18       1.0  0.27419  0.08243  0.64548  1.0000 -0.6058651493
