# DDEC6 charges by PACMAN v1.1 (https://github.com/mtap-research/PACMAN-charge/)
data_2006[Cu][nan]2[ASR]1
_chemical_formula_sum              "Cu8 P8 H36 C28 N8 O24"
_cell_length_a       27.1324
_cell_length_b       26.6081
_cell_length_c       9.54027
_cell_angle_alpha    82.89
_cell_angle_beta     76.689
_cell_angle_gamma    20.421

_symmetry_space_group_name_H-M    "P 1"
_symmetry_Int_Tables_number       1

loop_
  _symmetry_equiv_pos_as_xyz
  'x, y, z'

loop_
  _atom_site_type_symbol
  _atom_site_label
  _atom_site_symmetry_multiplicity
  _atom_site_fract_x
  _atom_site_fract_y
  _atom_site_fract_z
  _atom_site_occupancy
  _atom_site_charge
Cu  Cu1       1.0  0.36683  0.42123  0.56989  1.0000 0.8654214645
Cu  Cu2       1.0  0.64205  0.56989  0.42123  1.0000 0.8654214645
Cu  Cu3       1.0  0.82877  0.88317  0.60795  1.0000 0.8654214645
Cu  Cu4       1.0  0.68011  0.60795  0.88317  1.0000 0.8654214645
Cu  Cu5       1.0  0.30271  0.46455  0.03699  1.0000 1.07960253
Cu  Cu6       1.0  0.19575  0.03699  0.46455  1.0000 1.07960253
Cu  Cu7       1.0  0.78545  0.94729  0.05425  1.0000 1.07960253
Cu  Cu8       1.0  0.21301  0.05425  0.94729  1.0000 1.07960253
P   P1        1.0  0.59326  0.13732  0.39108  1.0000 1.316836288
P   P2        1.0  0.87834  0.39108  0.13732  1.0000 1.316836288
P   P3        1.0  0.11268  0.65674  0.37166  1.0000 1.316836288
P   P4        1.0  0.85892  0.37166  0.65674  1.0000 1.316836288
P   P5        1.0  0.62430  0.14100  0.81680  1.0000 1.2955334687
P   P6        1.0  0.41790  0.81680  0.14100  1.0000 1.2955334687
P   P7        1.0  0.10900  0.62570  0.83210  1.0000 1.2955334687
P   P8        1.0  0.43320  0.83210  0.62570  1.0000 1.2955334687
H   H1        1.0  0.39910  0.30930  0.70750  1.0000 0.2516518438
H   H2        1.0  0.58410  0.70750  0.30930  1.0000 0.2516518438
H   H3        1.0  0.94070  0.85090  0.66590  1.0000 0.2516518438
H   H4        1.0  0.54250  0.66590  0.85090  1.0000 0.2516518438
H   H5        1.0  0.93050  0.89070  0.38350  1.0000 0.1660734543
H   H6        1.0  0.79530  0.38350  0.89070  1.0000 0.1660734543
H   H7        1.0  0.35930  0.31950  0.45470  1.0000 0.1660734543
H   H8        1.0  0.86650  0.45470  0.31950  1.0000 0.1660734543
H   H9        1.0  0.04780  0.79740  0.45240  1.0000 0.1389555141
H   H10       1.0  0.70240  0.45240  0.79740  1.0000 0.1389555141
H   H11       1.0  0.45260  0.20220  0.54760  1.0000 0.1389555141
H   H12       1.0  0.79760  0.54760  0.20220  1.0000 0.1389555141
H   H13       1.0  0.77680  0.06640  0.68860  1.0000 0.1527803147
H   H14       1.0  0.46820  0.68860  0.06640  1.0000 0.1527803147
H   H15       1.0  0.18360  0.47320  0.78180  1.0000 0.1527803147
H   H16       1.0  0.56140  0.78180  0.47320  1.0000 0.1527803147
H   H17       1.0  0.70710  0.10970  0.58090  1.0000 0.1527803147
H   H18       1.0  0.60230  0.58090  0.10970  1.0000 0.1527803147
H   H19       1.0  0.14030  0.54290  0.64770  1.0000 0.1527803147
H   H20       1.0  0.66910  0.64770  0.54290  1.0000 0.1527803147
H   H21       1.0  0.72710  0.89230  0.49170  1.0000 0.1271526793
H   H22       1.0  0.88890  0.49170  0.89230  1.0000 0.1271526793
H   H23       1.0  0.35770  0.52290  0.36110  1.0000 0.1271526793
H   H24       1.0  0.75830  0.36110  0.52290  1.0000 0.1271526793
H   H25       1.0  0.70860  0.82300  0.54120  1.0000 0.1389555141
H   H26       1.0  0.92720  0.54120  0.82300  1.0000 0.1389555141
H   H27       1.0  0.42700  0.54140  0.32280  1.0000 0.1389555141
H   H28       1.0  0.70880  0.32280  0.54140  1.0000 0.1389555141
H   H29       1.0  0.55350  0.90010  0.72030  1.0000 0.1389555141
H   H30       1.0  0.82610  0.72030  0.90010  1.0000 0.1389555141
H   H31       1.0  0.34990  0.69650  0.42390  1.0000 0.1389555141
H   H32       1.0  0.52970  0.42390  0.69650  1.0000 0.1389555141
H   H33       1.0  0.53030  0.83630  0.77510  1.0000 0.1271526793
H   H34       1.0  0.85830  0.77510  0.83630  1.0000 0.1271526793
H   H35       1.0  0.41370  0.71970  0.39170  1.0000 0.1271526793
H   H36       1.0  0.47490  0.39170  0.71970  1.0000 0.1271526793
C   C1        1.0  0.42600  0.26060  0.51080  1.0000 -0.4019807076
C   C2        1.0  0.80260  0.51080  0.26060  1.0000 -0.4019807076
C   C3        1.0  0.98940  0.82400  0.44740  1.0000 -0.4019807076
C   C4        1.0  0.73920  0.44740  0.82400  1.0000 -0.4019807076
C   C5        1.0  0.75210  0.05850  0.65830  1.0000 -0.4019807076
C   C6        1.0  0.53110  0.65830  0.05850  1.0000 -0.4019807076
C   C7        1.0  0.19150  0.49790  0.71890  1.0000 -0.4019807076
C   C8        1.0  0.59170  0.71890  0.49790  1.0000 -0.4019807076
C   C9        1.0  0.75170  0.85310  0.57270  1.0000 0.1153657043
C   C10       1.0  0.82250  0.57270  0.85310  1.0000 0.1153657043
C   C11       1.0  0.39690  0.49830  0.42750  1.0000 0.1153657043
C   C12       1.0  0.67730  0.42750  0.49830  1.0000 0.1153657043
C   C13       1.0  0.73620  0.81560  0.60440  1.0000 -0.1929794496
C   C14       1.0  0.84380  0.60440  0.81560  1.0000 -0.1929794496
C   C15       1.0  0.43440  0.51380  0.40620  1.0000 -0.1929794496
C   C16       1.0  0.64560  0.40620  0.51380  1.0000 -0.1929794496
C   C17       1.0  0.76166  0.76746  0.72894  1.0000 0.096528461
C   C18       1.0  0.74194  0.72894  0.76746  1.0000 0.096528461
C   C19       1.0  0.48254  0.48834  0.50806  1.0000 0.096528461
C   C20       1.0  0.52106  0.50806  0.48834  1.0000 0.096528461
C   C21       1.0  0.62450  0.81490  0.75310  1.0000 -0.1797288155
C   C22       1.0  0.80750  0.75310  0.81490  1.0000 -0.1797288155
C   C23       1.0  0.43510  0.62550  0.44250  1.0000 -0.1797288155
C   C24       1.0  0.49690  0.44250  0.62550  1.0000 -0.1797288155
C   C25       1.0  0.61070  0.77650  0.78630  1.0000 0.0881154535
C   C26       1.0  0.82650  0.78630  0.77650  1.0000 0.0881154535
C   C27       1.0  0.47350  0.63930  0.42350  1.0000 0.0881154535
C   C28       1.0  0.46370  0.42350  0.63930  1.0000 0.0881154535
N   N1        1.0  0.34951  0.36231  0.64009  1.0000 -0.2328294834
N   N2        1.0  0.64809  0.64009  0.36231  1.0000 -0.2328294834
N   N3        1.0  0.88769  0.90049  0.60191  1.0000 -0.2328294834
N   N4        1.0  0.60991  0.60191  0.90049  1.0000 -0.2328294834
N   N5        1.0  0.80006  0.83526  0.65394  1.0000 -0.200801572
N   N6        1.0  0.71074  0.65394  0.83526  1.0000 -0.200801572
N   N7        1.0  0.41474  0.44994  0.53926  1.0000 -0.200801572
N   N8        1.0  0.59606  0.53926  0.44994  1.0000 -0.200801572
O   O1        1.0  0.72849  0.98889  0.42671  1.0000 -0.7886098197
O   O2        1.0  0.85591  0.42671  0.98889  1.0000 -0.7886098197
O   O3        1.0  0.26111  0.52151  0.39409  1.0000 -0.7886098197
O   O4        1.0  0.82329  0.39409  0.52151  1.0000 -0.7886098197
O   O5        1.0  0.02535  0.69095  0.45685  1.0000 -0.720173145
O   O6        1.0  0.82685  0.45685  0.69095  1.0000 -0.720173145
O   O7        1.0  0.55905  0.22465  0.42315  1.0000 -0.720173145
O   O8        1.0  0.79315  0.42315  0.22465  1.0000 -0.720173145
O   O9        1.0  0.13163  0.64483  0.20517  1.0000 -0.7886098197
O   O10       1.0  0.01837  0.20517  0.64483  1.0000 -0.7886098197
O   O11       1.0  0.60517  0.11837  0.23163  1.0000 -0.7886098197
O   O12       1.0  0.04483  0.23163  0.11837  1.0000 -0.7886098197
O   O13       1.0  0.67749  0.09329  0.95111  1.0000 -0.77610291
O   O14       1.0  0.27811  0.95111  0.09329  1.0000 -0.77610291
O   O15       1.0  0.15671  0.57251  0.97189  1.0000 -0.77610291
O   O16       1.0  0.29889  0.97189  0.57251  1.0000 -0.77610291
O   O17       1.0  0.46577  0.31097  0.84603  1.0000 -0.8365923857
O   O18       1.0  0.37723  0.84603  0.31097  1.0000 -0.8365923857
O   O19       1.0  0.93903  0.78423  0.87277  1.0000 -0.8365923857
O   O20       1.0  0.40397  0.87277  0.78423  1.0000 -0.8365923857
O   O21       1.0  0.63921  0.07401  0.76819  1.0000 -0.7314723825
O   O22       1.0  0.51859  0.76819  0.07401  1.0000 -0.7314723825
O   O23       1.0  0.17599  0.61079  0.73141  1.0000 -0.7314723825
O   O24       1.0  0.48181  0.73141  0.61079  1.0000 -0.7314723825
