# DDEC6 charges by PACMAN v1.1 (https://github.com/mtap-research/PACMAN-charge/)
data_2006[Fe][nan]3[ASR]2
_chemical_formula_sum              "Fe12 P16 H16 C12 O72"
_cell_length_a       8.4738
_cell_length_b       16.6853
_cell_length_c       17.5039
_cell_angle_alpha    90
_cell_angle_beta     112.866
_cell_angle_gamma    90

_symmetry_space_group_name_H-M    "P 1"
_symmetry_Int_Tables_number       1

loop_
  _symmetry_equiv_pos_as_xyz
  'x, y, z'

loop_
  _atom_site_type_symbol
  _atom_site_label
  _atom_site_symmetry_multiplicity
  _atom_site_fract_x
  _atom_site_fract_y
  _atom_site_fract_z
  _atom_site_occupancy
  _atom_site_charge
Fe  Fe1       1.0  0.32629  0.38793  0.28007  1.0000 1.3409735685
Fe  Fe2       1.0  0.67371  0.88793  0.21993  1.0000 1.3339696491
Fe  Fe3       1.0  0.67371  0.61207  0.71993  1.0000 1.3339696491
Fe  Fe4       1.0  0.32629  0.11207  0.78007  1.0000 1.3339696491
Fe  Fe5       1.0  0.93122  0.14865  0.42182  1.0000 1.3409735685
Fe  Fe6       1.0  0.06878  0.64865  0.07818  1.0000 1.3409735685
Fe  Fe7       1.0  0.06878  0.85135  0.57818  1.0000 1.3409735685
Fe  Fe8       1.0  0.93122  0.35135  0.92182  1.0000 1.3409735685
Fe  Fe9       1.0  0.24617  0.12854  0.22481  1.0000 1.2982815568
Fe  Fe10      1.0  0.75383  0.62854  0.27519  1.0000 1.2982815568
Fe  Fe11      1.0  0.75383  0.87146  0.77519  1.0000 1.2982815568
Fe  Fe12      1.0  0.24617  0.37146  0.72481  1.0000 1.2982815568
P   P1        1.0  0.04447  0.53488  0.23082  1.0000 1.0672511374
P   P2        1.0  0.95553  0.03488  0.26918  1.0000 1.0672511374
P   P3        1.0  0.95553  0.46512  0.76918  1.0000 1.0672511374
P   P4        1.0  0.04447  0.96512  0.73082  1.0000 1.0672511374
P   P5        1.0  0.59276  0.23584  0.29216  1.0000 1.0504685406
P   P6        1.0  0.40724  0.73584  0.20784  1.0000 1.0504685406
P   P7        1.0  0.40724  0.76416  0.70784  1.0000 1.0504685406
P   P8        1.0  0.59276  0.26416  0.79216  1.0000 1.0504685406
P   P9        1.0  0.12749  0.28537  0.10932  1.0000 1.0672511374
P   P10       1.0  0.87251  0.78537  0.39068  1.0000 1.0672511374
P   P11       1.0  0.87251  0.71463  0.89068  1.0000 1.0672511374
P   P12       1.0  0.12749  0.21463  0.60932  1.0000 1.0672511374
P   P13       1.0  0.13902  0.24924  0.33747  1.0000 1.0419581299
P   P14       1.0  0.86098  0.74924  0.16253  1.0000 1.0419581299
P   P15       1.0  0.86098  0.75076  0.66253  1.0000 1.0419581299
P   P16       1.0  0.13902  0.25076  0.83747  1.0000 1.0419581299
H   H1        1.0  0.96020  0.49970  0.19060  1.0000 0.0568696665
H   H2        1.0  0.03980  0.99970  0.30940  1.0000 0.0568696665
H   H3        1.0  0.03980  0.50030  0.80940  1.0000 0.0568696665
H   H4        1.0  0.96020  0.00030  0.69060  1.0000 0.0568696665
H   H5        1.0  0.66920  0.25330  0.26540  1.0000 0.0736926486
H   H6        1.0  0.33080  0.75330  0.23460  1.0000 0.0736926486
H   H7        1.0  0.33080  0.74670  0.73460  1.0000 0.0736926486
H   H8        1.0  0.66920  0.24670  0.76540  1.0000 0.0736926486
H   H9        1.0  0.22850  0.28790  0.09520  1.0000 0.0568696665
H   H10       1.0  0.77150  0.78790  0.40480  1.0000 0.0568696665
H   H11       1.0  0.77150  0.71210  0.90480  1.0000 0.0532499095
H   H12       1.0  0.22850  0.21210  0.59520  1.0000 0.0568696665
H   H13       1.0  0.03480  0.25210  0.28670  1.0000 0.0320194214
H   H14       1.0  0.96520  0.75210  0.21330  1.0000 0.0320194214
H   H15       1.0  0.96520  0.74790  0.71330  1.0000 0.0320194214
H   H16       1.0  0.03480  0.24790  0.78670  1.0000 0.0320194214
C   C1        1.0  0.59660  0.50290  0.32860  1.0000 0.4503694166
C   C2        1.0  0.40340  0.00290  0.17140  1.0000 0.4503694166
C   C3        1.0  0.40340  0.49710  0.67140  1.0000 0.4503694166
C   C4        1.0  0.59660  0.99710  0.82860  1.0000 0.4503694166
C   C5        1.0  0.53430  0.49470  0.23380  1.0000 0.4503694166
C   C6        1.0  0.46570  0.99470  0.26620  1.0000 0.4503694166
C   C7        1.0  0.46570  0.50530  0.76620  1.0000 0.4503694166
C   C8        1.0  0.53430  0.00530  0.73380  1.0000 0.4503694166
C   C9        1.0  0.90445  0.99530  0.49265  1.0000 0.4503694166
C   C10       1.0  0.09555  0.49530  0.00735  1.0000 0.4503694166
C   C11       1.0  0.09555  0.00470  0.50735  1.0000 0.4503694166
C   C12       1.0  0.90445  0.50470  0.99265  1.0000 0.4503694166
O   O1        1.0  0.50927  0.31037  0.30767  1.0000 -0.6194493185
O   O2        1.0  0.49073  0.81037  0.19233  1.0000 -0.6194493185
O   O3        1.0  0.49073  0.68963  0.69233  1.0000 -0.6194493185
O   O4        1.0  0.50927  0.18963  0.80767  1.0000 -0.6194493185
O   O5        1.0  0.19594  0.48385  0.28354  1.0000 -0.5928882892
O   O6        1.0  0.80406  0.98385  0.21646  1.0000 -0.5928882892
O   O7        1.0  0.80406  0.51615  0.71646  1.0000 -0.5928882892
O   O8        1.0  0.19594  0.01615  0.78354  1.0000 -0.5928882892
O   O9        1.0  0.15354  0.34365  0.17964  1.0000 -0.6402846063
O   O10       1.0  0.84646  0.84365  0.32036  1.0000 -0.6402846063
O   O11       1.0  0.84646  0.65635  0.82036  1.0000 -0.6402846063
O   O12       1.0  0.15354  0.15635  0.67964  1.0000 -0.6402846063
O   O13       1.0  0.22642  0.33088  0.35082  1.0000 -0.5839231993
O   O14       1.0  0.77358  0.83088  0.14918  1.0000 -0.5839231993
O   O15       1.0  0.77358  0.66912  0.64918  1.0000 -0.5839231993
O   O16       1.0  0.22642  0.16912  0.85082  1.0000 -0.5839231993
O   O17       1.0  0.42194  0.44349  0.19954  1.0000 -0.4189333739
O   O18       1.0  0.57806  0.94349  0.30046  1.0000 -0.4189333739
O   O19       1.0  0.57806  0.55651  0.80046  1.0000 -0.4189333739
O   O20       1.0  0.42194  0.05651  0.69954  1.0000 -0.4189333739
O   O21       1.0  0.52711  0.45961  0.36431  1.0000 -0.3901980157
O   O22       1.0  0.47289  0.95961  0.13569  1.0000 -0.3901980157
O   O23       1.0  0.47289  0.54039  0.63569  1.0000 -0.3901980157
O   O24       1.0  0.52711  0.04039  0.86431  1.0000 -0.3901980157
O   O25       1.0  0.70612  0.19757  0.37452  1.0000 -0.5676386739
O   O26       1.0  0.29388  0.69757  0.12548  1.0000 -0.5676386739
O   O27       1.0  0.29388  0.80243  0.62548  1.0000 -0.5676386739
O   O28       1.0  0.70612  0.30243  0.87452  1.0000 -0.5676386739
O   O29       1.0  0.09641  0.59837  0.18311  1.0000 -0.6561263437
O   O30       1.0  0.90359  0.09837  0.31689  1.0000 -0.6561263437
O   O31       1.0  0.90359  0.40163  0.81689  1.0000 -0.6561263437
O   O32       1.0  0.09641  0.90163  0.68311  1.0000 -0.6561263437
O   O33       1.0  0.08583  0.23060  0.40963  1.0000 -0.6194493185
O   O34       1.0  0.91417  0.73060  0.09037  1.0000 -0.6194493185
O   O35       1.0  0.91417  0.76940  0.59037  1.0000 -0.6194493185
O   O36       1.0  0.08583  0.26940  0.90963  1.0000 -0.6194493185
O   O37       1.0  0.97158  0.30763  0.03258  1.0000 -0.5964094336
O   O38       1.0  0.02842  0.80763  0.46742  1.0000 -0.5964094336
O   O39       1.0  0.02842  0.69237  0.96742  1.0000 -0.5964094336
O   O40       1.0  0.97158  0.19237  0.53258  1.0000 -0.5964094336
O   O41       1.0  0.80877  0.05230  0.45597  1.0000 -0.3960342045
O   O42       1.0  0.19123  0.55230  0.04403  1.0000 -0.3901980157
O   O43       1.0  0.19123  0.94770  0.54403  1.0000 -0.3901980157
O   O44       1.0  0.80877  0.44770  0.95597  1.0000 -0.3960342045
O   O45       1.0  0.86248  0.93250  0.51888  1.0000 -0.4279717589
O   O46       1.0  0.13752  0.43250  0.98112  1.0000 -0.4279717589
O   O47       1.0  0.13752  0.06750  0.48112  1.0000 -0.4279717589
O   O48       1.0  0.86248  0.56750  0.01888  1.0000 -0.4279717589
O   O49       1.0  0.10965  0.19969  0.13505  1.0000 -0.5928882892
O   O50       1.0  0.89035  0.69969  0.36495  1.0000 -0.5928882892
O   O51       1.0  0.89035  0.80031  0.86495  1.0000 -0.5928882892
O   O52       1.0  0.10965  0.30031  0.63505  1.0000 -0.5928882892
O   O53       1.0  0.96303  0.57030  0.28673  1.0000 -0.6083583618
O   O54       1.0  0.03697  0.07030  0.21327  1.0000 -0.6083583618
O   O55       1.0  0.03697  0.42970  0.71327  1.0000 -0.6083583618
O   O56       1.0  0.96303  0.92970  0.78673  1.0000 -0.6083583618
O   O57       1.0  0.25207  0.18325  0.32607  1.0000 -0.6083583618
O   O58       1.0  0.74793  0.68325  0.17393  1.0000 -0.6083583618
O   O59       1.0  0.74793  0.81675  0.67393  1.0000 -0.6083583618
O   O60       1.0  0.25207  0.31675  0.82607  1.0000 -0.6083583618
O   O61       1.0  0.46552  0.17864  0.23272  1.0000 -0.6301639314
O   O62       1.0  0.53448  0.67864  0.26728  1.0000 -0.6301639314
O   O63       1.0  0.53448  0.82136  0.76728  1.0000 -0.6301639314
O   O64       1.0  0.46552  0.32136  0.73272  1.0000 -0.6301639314
O   O65       1.0  0.60296  0.54032  0.19836  1.0000 -0.4064686532
O   O66       1.0  0.39704  0.04032  0.30164  1.0000 -0.4064686532
O   O67       1.0  0.39704  0.45968  0.80164  1.0000 -0.4064686532
O   O68       1.0  0.60296  0.95968  0.69836  1.0000 -0.4064686532
O   O69       1.0  0.71481  0.55306  0.36191  1.0000 -0.4189333739
O   O70       1.0  0.28519  0.05306  0.13809  1.0000 -0.4189333739
O   O71       1.0  0.28519  0.44694  0.63809  1.0000 -0.4189333739
O   O72       1.0  0.71481  0.94694  0.86191  1.0000 -0.4189333739
