# DDEC6 charges by PACMAN v1.1 (https://github.com/mtap-research/PACMAN-charge/)
data_2006[V][sqc]3[ASR]1
_chemical_formula_sum              "V4 P4 H24 C10 O14"
_cell_length_a       12.4478
_cell_length_b       12.4478
_cell_length_c       12.4478
_cell_angle_alpha    145.257
_cell_angle_beta     135.795
_cell_angle_gamma    57.4137

_symmetry_space_group_name_H-M    "P 1"
_symmetry_Int_Tables_number       1

loop_
  _symmetry_equiv_pos_as_xyz
  'x, y, z'

loop_
  _atom_site_type_symbol
  _atom_site_label
  _atom_site_symmetry_multiplicity
  _atom_site_fract_x
  _atom_site_fract_y
  _atom_site_fract_z
  _atom_site_occupancy
  _atom_site_charge
V   V1        1.0  0.75583  0.46206  0.70623  1.0000 1.4319774402
V   V2        1.0  0.75583  0.04960  0.29377  1.0000 1.4319774402
V   V3        1.0  0.24417  0.53794  0.29377  1.0000 1.4319774402
V   V4        1.0  0.24417  0.95040  0.70623  1.0000 1.4319774402
P   P1        1.0  0.42071  0.18855  0.23216  1.0000 1.3604798806
P   P2        1.0  0.95639  0.18855  0.76784  1.0000 1.3604798806
P   P3        1.0  0.04361  0.81145  0.23216  1.0000 1.3604798806
P   P4        1.0  0.57929  0.81145  0.76784  1.0000 1.3604798806
H   H1        1.0  0.47880  0.00250  0.26190  1.0000 0.1363399518
H   H2        1.0  0.74060  0.21690  0.73810  1.0000 0.1363399518
H   H3        1.0  0.25940  0.99750  0.47630  1.0000 0.1363399518
H   H4        1.0  0.52120  0.78310  0.52370  1.0000 0.1363399518
H   H5        1.0  0.52120  0.99750  0.73810  1.0000 0.1363399518
H   H6        1.0  0.25940  0.78310  0.26190  1.0000 0.1363399518
H   H7        1.0  0.74060  0.00250  0.52370  1.0000 0.1363399518
H   H8        1.0  0.47880  0.21690  0.47630  1.0000 0.1363399518
H   H9        1.0  0.20310  0.16900  0.25010  1.0000 0.0930853007
H   H10       1.0  0.91890  0.95300  0.74990  1.0000 0.0930853007
H   H11       1.0  0.08110  0.83100  0.03410  1.0000 0.0930853007
H   H12       1.0  0.79690  0.04700  0.96590  1.0000 0.0930853007
H   H13       1.0  0.79690  0.83100  0.74990  1.0000 0.0930853007
H   H14       1.0  0.08110  0.04700  0.25010  1.0000 0.0930853007
H   H15       1.0  0.91890  0.16900  0.96590  1.0000 0.0930853007
H   H16       1.0  0.20310  0.95300  0.03410  1.0000 0.0930853007
H   H17       1.0  0.35230  0.10730  0.45960  1.0000 0.0930853007
H   H18       1.0  0.64770  0.89270  0.54040  1.0000 0.0930853007
H   H19       1.0  0.35230  0.89270  0.24500  1.0000 0.0930853007
H   H20       1.0  0.64770  0.10730  0.75500  1.0000 0.0930853007
H   H21       1.0  0.79010  0.35310  0.43700  1.0000 0.3060056461
H   H22       1.0  0.91610  0.35310  0.56300  1.0000 0.3060056461
H   H23       1.0  0.08390  0.64690  0.43700  1.0000 0.3060056461
H   H24       1.0  0.20990  0.64690  0.56300  1.0000 0.3060056461
C   C1        1.0  0.42051  0.11351  0.30700  1.0000 -0.5498277055
C   C2        1.0  0.80651  0.11351  0.69300  1.0000 -0.5498277055
C   C3        1.0  0.19349  0.88649  0.30700  1.0000 -0.5498277055
C   C4        1.0  0.57949  0.88649  0.69300  1.0000 -0.5498277055
C   C5        1.0  0.26312  0.05932  0.20380  1.0000 -0.1238761353
C   C6        1.0  0.85552  0.05932  0.79620  1.0000 -0.1238761353
C   C7        1.0  0.14448  0.94068  0.20380  1.0000 -0.1238761353
C   C8        1.0  0.73688  0.94068  0.79620  1.0000 -0.1238761353
C   C9        1.0  0.28970  0.00000  0.28970  1.0000 -0.1930485921
C   C10       1.0  0.71030  0.00000  0.71030  1.0000 -0.1930485921
O   O1        1.0  0.59530  0.23435  0.36095  1.0000 -0.9456895696
O   O2        1.0  0.87340  0.23435  0.63905  1.0000 -0.9456895696
O   O3        1.0  0.12660  0.76565  0.36095  1.0000 -0.9456895696
O   O4        1.0  0.40470  0.76565  0.63905  1.0000 -0.9456895696
O   O5        1.0  0.34513  0.36912  0.32125  1.0000 -0.8216025712
O   O6        1.0  0.04787  0.02388  0.67875  1.0000 -0.8216025712
O   O7        1.0  0.95213  0.63088  0.97601  1.0000 -0.8216025712
O   O8        1.0  0.65487  0.97612  0.02399  1.0000 -0.8216025712
O   O9        1.0  0.65487  0.63088  0.67875  1.0000 -0.8216025712
O   O10       1.0  0.95213  0.97612  0.32125  1.0000 -0.8216025712
O   O11       1.0  0.04787  0.36912  0.02399  1.0000 -0.8216025712
O   O12       1.0  0.34513  0.02388  0.97601  1.0000 -0.8216025712
O   O13       1.0  0.83395  0.33395  0.50000  1.0000 -0.5825518476
O   O14       1.0  0.16605  0.66605  0.50000  1.0000 -0.5825518476
