# DDEC6 charges by PACMAN v1.1 (https://github.com/mtap-research/PACMAN-charge/)
data_2006[Cd][nan]3[ASR]1
_chemical_formula_sum              "Cd2 H72 C64 Br4 N24 O8"
_cell_length_a       17.0675
_cell_length_b       17.0675
_cell_length_c       16.6382
_cell_angle_alpha    79.4559
_cell_angle_beta     100.544
_cell_angle_gamma    145.994

_symmetry_space_group_name_H-M    "P 1"
_symmetry_Int_Tables_number       1

loop_
  _symmetry_equiv_pos_as_xyz
  'x, y, z'

loop_
  _atom_site_type_symbol
  _atom_site_label
  _atom_site_symmetry_multiplicity
  _atom_site_fract_x
  _atom_site_fract_y
  _atom_site_fract_z
  _atom_site_occupancy
  _atom_site_charge
Cd  Cd1       1.0  0.00000  0.00000  0.00000  1.0000 0.6655103353
Cd  Cd2       1.0  0.00000  0.00000  0.50000  1.0000 0.6655103353
H   H1        1.0  0.82200  0.84820  0.83300  1.0000 0.0996664844
H   H2        1.0  0.84820  0.82200  0.66700  1.0000 0.0996664844
H   H3        1.0  0.17800  0.15180  0.16700  1.0000 0.0996664844
H   H4        1.0  0.15180  0.17800  0.33300  1.0000 0.0996664844
H   H5        1.0  0.06720  0.21920  0.86570  1.0000 0.0996664844
H   H6        1.0  0.21920  0.06720  0.63430  1.0000 0.0996664844
H   H7        1.0  0.93280  0.78080  0.13430  1.0000 0.0996664844
H   H8        1.0  0.78080  0.93280  0.36570  1.0000 0.0996664844
H   H9        1.0  0.97640  0.22500  0.75060  1.0000 0.1519615737
H   H10       1.0  0.22500  0.97640  0.74940  1.0000 0.1519615737
H   H11       1.0  0.02360  0.77500  0.24940  1.0000 0.1519615737
H   H12       1.0  0.77500  0.02360  0.25060  1.0000 0.1519615737
H   H13       1.0  0.72970  0.84390  0.71440  1.0000 0.1411738544
H   H14       1.0  0.84390  0.72970  0.78560  1.0000 0.1411738544
H   H15       1.0  0.27030  0.15610  0.28560  1.0000 0.1411738544
H   H16       1.0  0.15610  0.27030  0.21440  1.0000 0.1411738544
H   H17       1.0  0.57500  0.94760  0.45580  1.0000 0.1094506814
H   H18       1.0  0.94760  0.57500  0.04420  1.0000 0.1094506814
H   H19       1.0  0.42500  0.05240  0.54420  1.0000 0.1094506814
H   H20       1.0  0.05240  0.42500  0.95580  1.0000 0.1094506814
H   H21       1.0  0.61530  0.90170  0.51640  1.0000 0.1094506814
H   H22       1.0  0.90170  0.61530  0.98360  1.0000 0.1094506814
H   H23       1.0  0.38470  0.09830  0.48360  1.0000 0.1094506814
H   H24       1.0  0.09830  0.38470  0.01640  1.0000 0.1094506814
H   H25       1.0  0.48170  0.90550  0.58630  1.0000 0.0996664844
H   H26       1.0  0.90550  0.48170  0.91370  1.0000 0.0996664844
H   H27       1.0  0.51830  0.09450  0.41370  1.0000 0.0996664844
H   H28       1.0  0.09450  0.51830  0.08630  1.0000 0.0996664844
H   H29       1.0  0.46500  0.79900  0.60720  1.0000 0.0996664844
H   H30       1.0  0.79900  0.46500  0.89280  1.0000 0.0996664844
H   H31       1.0  0.53500  0.20100  0.39280  1.0000 0.0996664844
H   H32       1.0  0.20100  0.53500  0.10720  1.0000 0.0996664844
H   H33       1.0  0.59710  0.10530  0.56390  1.0000 0.0888655998
H   H34       1.0  0.10530  0.59710  0.93610  1.0000 0.0888655998
H   H35       1.0  0.40290  0.89470  0.43610  1.0000 0.0888655998
H   H36       1.0  0.89470  0.40290  0.06390  1.0000 0.0888655998
H   H37       1.0  0.74770  0.25750  0.58870  1.0000 0.1273961433
H   H38       1.0  0.25750  0.74770  0.91130  1.0000 0.1273961433
H   H39       1.0  0.25230  0.74250  0.41130  1.0000 0.1273961433
H   H40       1.0  0.74250  0.25230  0.08870  1.0000 0.1273961433
H   H41       1.0  0.85100  0.28060  0.49990  1.0000 0.1273961433
H   H42       1.0  0.28060  0.85100  0.00010  1.0000 0.1273961433
H   H43       1.0  0.14900  0.71940  0.50010  1.0000 0.1273961433
H   H44       1.0  0.71940  0.14900  0.99990  1.0000 0.1273961433
H   H45       1.0  0.71290  0.16570  0.44450  1.0000 0.1094506814
H   H46       1.0  0.16570  0.71290  0.05550  1.0000 0.1094506814
H   H47       1.0  0.28710  0.83430  0.55550  1.0000 0.1094506814
H   H48       1.0  0.83430  0.28710  0.94450  1.0000 0.1094506814
H   H49       1.0  0.02920  0.32760  0.49040  1.0000 0.1411738544
H   H50       1.0  0.32760  0.02920  0.00960  1.0000 0.1411738544
H   H51       1.0  0.97080  0.67240  0.50960  1.0000 0.1411738544
H   H52       1.0  0.67240  0.97080  0.99040  1.0000 0.1411738544
H   H53       1.0  0.37030  0.49590  0.60910  1.0000 0.1411738544
H   H54       1.0  0.49590  0.37030  0.89090  1.0000 0.1411738544
H   H55       1.0  0.62970  0.50410  0.39090  1.0000 0.1411738544
H   H56       1.0  0.50410  0.62970  0.10910  1.0000 0.1411738544
H   H57       1.0  0.26480  0.29180  0.59480  1.0000 0.1094506814
H   H58       1.0  0.29180  0.26480  0.90520  1.0000 0.1094506814
H   H59       1.0  0.73520  0.70820  0.40520  1.0000 0.1094506814
H   H60       1.0  0.70820  0.73520  0.09480  1.0000 0.1094506814
H   H61       1.0  0.93370  0.12550  0.48620  1.0000 0.0888655998
H   H62       1.0  0.12550  0.93370  0.01380  1.0000 0.0888655998
H   H63       1.0  0.06630  0.87450  0.51380  1.0000 0.0888655998
H   H64       1.0  0.87450  0.06630  0.98620  1.0000 0.0888655998
H   H65       1.0  0.71640  0.94760  0.62010  1.0000 0.2668120053
H   H66       1.0  0.94760  0.71640  0.87990  1.0000 0.2668120053
H   H67       1.0  0.28360  0.05240  0.37990  1.0000 0.2668120053
H   H68       1.0  0.05240  0.28360  0.12010  1.0000 0.2668120053
H   H69       1.0  0.34780  0.61900  0.59180  1.0000 0.2803227094
H   H70       1.0  0.61900  0.34780  0.90820  1.0000 0.2803227094
H   H71       1.0  0.65220  0.38100  0.40820  1.0000 0.2803227094
H   H72       1.0  0.38100  0.65220  0.09180  1.0000 0.2803227094
C   C1        1.0  0.85430  0.92650  0.81690  1.0000 0.0796295538
C   C2        1.0  0.92650  0.85430  0.68310  1.0000 0.0796295538
C   C3        1.0  0.14570  0.07350  0.18310  1.0000 0.0796295538
C   C4        1.0  0.07350  0.14570  0.31690  1.0000 0.0796295538
C   C5        1.0  0.99400  0.13900  0.83600  1.0000 0.0796295538
C   C6        1.0  0.13900  0.99400  0.66400  1.0000 0.0796295538
C   C7        1.0  0.00600  0.86100  0.16400  1.0000 0.0796295538
C   C8        1.0  0.86100  0.00600  0.33600  1.0000 0.0796295538
C   C9        1.0  0.94220  0.14520  0.76550  1.0000 -0.2388294551
C   C10       1.0  0.14520  0.94220  0.73450  1.0000 -0.2388294551
C   C11       1.0  0.05780  0.85480  0.23450  1.0000 -0.2388294551
C   C12       1.0  0.85480  0.05780  0.26550  1.0000 -0.2388294551
C   C13       1.0  0.79780  0.92300  0.74500  1.0000 -0.2494407992
C   C14       1.0  0.92300  0.79780  0.75500  1.0000 -0.2494407992
C   C15       1.0  0.20220  0.07700  0.25500  1.0000 -0.2494407992
C   C16       1.0  0.07700  0.20220  0.24500  1.0000 -0.2494407992
C   C17       1.0  0.83997  0.03263  0.71820  1.0000 0.2576570299
C   C18       1.0  0.03263  0.83997  0.78180  1.0000 0.2576570299
C   C19       1.0  0.16003  0.96737  0.28180  1.0000 0.2576570299
C   C20       1.0  0.96737  0.16003  0.21820  1.0000 0.2576570299
C   C21       1.0  0.80163  0.12117  0.61120  1.0000 0.5362822798
C   C22       1.0  0.12117  0.80163  0.88880  1.0000 0.5362822798
C   C23       1.0  0.19837  0.87883  0.38880  1.0000 0.5362822798
C   C24       1.0  0.87883  0.19837  0.11120  1.0000 0.5362822798
C   C25       1.0  0.59731  0.94329  0.51290  1.0000 -0.1375137835
C   C26       1.0  0.94329  0.59731  0.98710  1.0000 -0.1375137835
C   C27       1.0  0.40269  0.05671  0.48710  1.0000 -0.1375137835
C   C28       1.0  0.05671  0.40269  0.01290  1.0000 -0.1375137835
C   C29       1.0  0.46964  0.84796  0.56260  1.0000 -0.1375137835
C   C30       1.0  0.84796  0.46964  0.93740  1.0000 -0.1375137835
C   C31       1.0  0.53036  0.15204  0.43740  1.0000 -0.1375137835
C   C32       1.0  0.15204  0.53036  0.06260  1.0000 -0.1375137835
C   C33       1.0  0.68577  0.19823  0.54270  1.0000 -0.1287097695
C   C34       1.0  0.19823  0.68577  0.95730  1.0000 -0.1287097695
C   C35       1.0  0.31423  0.80177  0.45730  1.0000 -0.1287097695
C   C36       1.0  0.80177  0.31423  0.04270  1.0000 -0.1287097695
C   C37       1.0  0.75044  0.18916  0.50080  1.0000 -0.109792548
C   C38       1.0  0.18916  0.75044  0.99920  1.0000 -0.109792548
C   C39       1.0  0.24956  0.81084  0.49920  1.0000 -0.109792548
C   C40       1.0  0.81084  0.24956  0.00080  1.0000 -0.109792548
C   C41       1.0  0.24590  0.60890  0.50670  1.0000 0.5489736584
C   C42       1.0  0.60890  0.24590  0.99330  1.0000 0.5489736584
C   C43       1.0  0.75410  0.39110  0.49330  1.0000 0.5489736584
C   C44       1.0  0.39110  0.75410  0.00670  1.0000 0.5489736584
C   C45       1.0  0.07975  0.32325  0.51280  1.0000 -0.2289852227
C   C46       1.0  0.32325  0.07975  0.98720  1.0000 -0.2289852227
C   C47       1.0  0.92025  0.67675  0.48720  1.0000 -0.2289852227
C   C48       1.0  0.67675  0.92025  0.01280  1.0000 -0.2289852227
C   C49       1.0  0.21184  0.43676  0.54930  1.0000 0.2865670708
C   C50       1.0  0.43676  0.21184  0.95070  1.0000 0.2865670708
C   C51       1.0  0.78816  0.56324  0.45070  1.0000 0.2865670708
C   C52       1.0  0.56324  0.78816  0.04930  1.0000 0.2865670708
C   C53       1.0  0.28200  0.42300  0.58240  1.0000 -0.2388294551
C   C54       1.0  0.42300  0.28200  0.91760  1.0000 -0.2388294551
C   C55       1.0  0.71800  0.57700  0.41760  1.0000 -0.2388294551
C   C56       1.0  0.57700  0.71800  0.08240  1.0000 -0.2388294551
C   C57       1.0  0.21640  0.29900  0.57430  1.0000 0.0888655998
C   C58       1.0  0.29900  0.21640  0.92570  1.0000 0.0888655998
C   C59       1.0  0.78360  0.70100  0.42570  1.0000 0.0888655998
C   C60       1.0  0.70100  0.78360  0.07430  1.0000 0.0888655998
C   C61       1.0  0.02369  0.20211  0.51020  1.0000 0.0888655998
C   C62       1.0  0.20211  0.02369  0.98980  1.0000 0.0888655998
C   C63       1.0  0.97631  0.79789  0.48980  1.0000 0.0888655998
C   C64       1.0  0.79789  0.97631  0.01020  1.0000 0.0888655998
Br  Br1       1.0  0.81616  0.71972  0.97159  1.0000 -0.6013887438
Br  Br2       1.0  0.71972  0.81616  0.52841  1.0000 -0.6013887438
Br  Br3       1.0  0.18384  0.28028  0.02841  1.0000 -0.6013887438
Br  Br4       1.0  0.28028  0.18384  0.47159  1.0000 -0.6013887438
N   N1        1.0  0.94971  0.03109  0.86480  1.0000 -0.2289852227
N   N2        1.0  0.03109  0.94971  0.63520  1.0000 -0.2289852227
N   N3        1.0  0.05029  0.96891  0.13520  1.0000 -0.2289852227
N   N4        1.0  0.96891  0.05029  0.36480  1.0000 -0.2289852227
N   N5        1.0  0.72435  0.08565  0.54060  1.0000 -0.1745784494
N   N6        1.0  0.08565  0.72435  0.95940  1.0000 -0.1745784494
N   N7        1.0  0.27565  0.91435  0.45940  1.0000 -0.1745784494
N   N8        1.0  0.91435  0.27565  0.04060  1.0000 -0.1745784494
N   N9        1.0  0.77694  0.02286  0.64580  1.0000 -0.4104900534
N   N10       1.0  0.02286  0.77694  0.85420  1.0000 -0.4104900534
N   N11       1.0  0.22306  0.97714  0.35420  1.0000 -0.4104900534
N   N12       1.0  0.97714  0.22306  0.14580  1.0000 -0.4104900534
N   N13       1.0  0.08907  0.18833  0.53930  1.0000 -0.2289852227
N   N14       1.0  0.18833  0.08907  0.96070  1.0000 -0.2289852227
N   N15       1.0  0.91093  0.81167  0.46070  1.0000 -0.2289852227
N   N16       1.0  0.81167  0.91093  0.03930  1.0000 -0.2289852227
N   N17       1.0  0.33807  0.74533  0.51280  1.0000 -0.156265876
N   N18       1.0  0.74533  0.33807  0.98720  1.0000 -0.156265876
N   N19       1.0  0.66193  0.25467  0.48720  1.0000 -0.156265876
N   N20       1.0  0.25467  0.66193  0.01280  1.0000 -0.156265876
N   N21       1.0  0.27991  0.56429  0.55530  1.0000 -0.4104900534
N   N22       1.0  0.56429  0.27991  0.94470  1.0000 -0.4104900534
N   N23       1.0  0.72009  0.43571  0.44470  1.0000 -0.4104900534
N   N24       1.0  0.43571  0.72009  0.05530  1.0000 -0.4104900534
O   O1        1.0  0.88735  0.23265  0.64150  1.0000 -0.5090906683
O   O2        1.0  0.23265  0.88735  0.85850  1.0000 -0.5090906683
O   O3        1.0  0.11265  0.76735  0.35850  1.0000 -0.5090906683
O   O4        1.0  0.76735  0.11265  0.14150  1.0000 -0.5090906683
O   O5        1.0  0.14214  0.53266  0.46000  1.0000 -0.5009464088
O   O6        1.0  0.53266  0.14214  0.04000  1.0000 -0.5009464088
O   O7        1.0  0.85786  0.46734  0.54000  1.0000 -0.5009464088
O   O8        1.0  0.46734  0.85786  0.96000  1.0000 -0.5009464088
