# DDEC6 charges by PACMAN v1.1 (https://github.com/mtap-research/PACMAN-charge/)
data_2006[Zn][dia]3[ASR]6
_chemical_formula_sum              "Zn12 H24 C24 O48"
_cell_length_a       11.3647
_cell_length_b       9.9781
_cell_length_c       18.7044
_cell_angle_alpha    90
_cell_angle_beta     126.413
_cell_angle_gamma    90

_symmetry_space_group_name_H-M    "P 1"
_symmetry_Int_Tables_number       1

loop_
  _symmetry_equiv_pos_as_xyz
  'x, y, z'

loop_
  _atom_site_type_symbol
  _atom_site_label
  _atom_site_symmetry_multiplicity
  _atom_site_fract_x
  _atom_site_fract_y
  _atom_site_fract_z
  _atom_site_occupancy
  _atom_site_charge
Zn  Zn1       1.0  0.62217  0.93024  0.86759  1.0000 0.9522366292
Zn  Zn2       1.0  0.37783  0.43024  0.63241  1.0000 0.9522366292
Zn  Zn3       1.0  0.37783  0.06976  0.13241  1.0000 0.9522366292
Zn  Zn4       1.0  0.62217  0.56976  0.36759  1.0000 0.9522366292
Zn  Zn5       1.0  0.43912  0.12463  0.69721  1.0000 0.9269804424
Zn  Zn6       1.0  0.56088  0.62463  0.80279  1.0000 0.9269804424
Zn  Zn7       1.0  0.56088  0.87537  0.30279  1.0000 0.9269804424
Zn  Zn8       1.0  0.43912  0.37537  0.19721  1.0000 0.9269804424
Zn  Zn9       1.0  0.50000  0.00000  0.00000  1.0000 0.9522366292
Zn  Zn10      1.0  0.50000  0.50000  0.50000  1.0000 0.9522366292
Zn  Zn11      1.0  0.00000  0.00000  0.00000  1.0000 0.9522366292
Zn  Zn12      1.0  0.00000  0.50000  0.50000  1.0000 0.9522366292
H   H1        1.0  0.48760  0.77860  0.63360  1.0000 0.0991871647
H   H2        1.0  0.51240  0.27860  0.86640  1.0000 0.0991871647
H   H3        1.0  0.51240  0.22140  0.36640  1.0000 0.0991871647
H   H4        1.0  0.48760  0.72140  0.13360  1.0000 0.0991871647
H   H5        1.0  0.22360  0.06450  0.74540  1.0000 0.088216757
H   H6        1.0  0.77640  0.56450  0.75460  1.0000 0.088216757
H   H7        1.0  0.77640  0.93550  0.25460  1.0000 0.088216757
H   H8        1.0  0.22360  0.43550  0.24540  1.0000 0.088216757
H   H9        1.0  0.46320  0.63010  0.92540  1.0000 0.088216757
H   H10       1.0  0.53680  0.13010  0.57460  1.0000 0.088216757
H   H11       1.0  0.53680  0.36990  0.07460  1.0000 0.088216757
H   H12       1.0  0.46320  0.86990  0.42540  1.0000 0.088216757
H   H13       1.0  0.75740  0.22900  0.79370  1.0000 0.088216757
H   H14       1.0  0.24260  0.72900  0.70630  1.0000 0.088216757
H   H15       1.0  0.24260  0.77100  0.20630  1.0000 0.088216757
H   H16       1.0  0.75740  0.27100  0.29370  1.0000 0.088216757
H   H17       1.0  0.77690  0.13200  0.08150  1.0000 0.088216757
H   H18       1.0  0.22310  0.63200  0.41850  1.0000 0.088216757
H   H19       1.0  0.22310  0.86800  0.91850  1.0000 0.088216757
H   H20       1.0  0.77690  0.36800  0.58150  1.0000 0.088216757
H   H21       1.0  0.96970  0.71350  0.96770  1.0000 0.088216757
H   H22       1.0  0.03030  0.21350  0.53230  1.0000 0.088216757
H   H23       1.0  0.03030  0.28650  0.03230  1.0000 0.088216757
H   H24       1.0  0.96970  0.78650  0.46770  1.0000 0.088216757
C   C1        1.0  0.49810  0.84750  0.67200  1.0000 0.4788156292
C   C2        1.0  0.50190  0.34750  0.82800  1.0000 0.4788156292
C   C3        1.0  0.50190  0.15250  0.32800  1.0000 0.4788156292
C   C4        1.0  0.49810  0.65250  0.17200  1.0000 0.4788156292
C   C5        1.0  0.31710  0.03920  0.79680  1.0000 0.4699874884
C   C6        1.0  0.68290  0.53920  0.70320  1.0000 0.4699874884
C   C7        1.0  0.68290  0.96080  0.20320  1.0000 0.4699874884
C   C8        1.0  0.31710  0.46080  0.29680  1.0000 0.4699874884
C   C9        1.0  0.49140  0.72080  0.92870  1.0000 0.4788156292
C   C10       1.0  0.50860  0.22080  0.57130  1.0000 0.4788156292
C   C11       1.0  0.50860  0.27920  0.07130  1.0000 0.4788156292
C   C12       1.0  0.49140  0.77920  0.42870  1.0000 0.4788156292
C   C13       1.0  0.77280  0.15630  0.83120  1.0000 0.4699874884
C   C14       1.0  0.22720  0.65630  0.66880  1.0000 0.4699874884
C   C15       1.0  0.22720  0.84370  0.16880  1.0000 0.4699874884
C   C16       1.0  0.77280  0.34370  0.33120  1.0000 0.4699874884
C   C17       1.0  0.77990  0.08530  0.03840  1.0000 0.4931966356
C   C18       1.0  0.22010  0.58530  0.46160  1.0000 0.4931966356
C   C19       1.0  0.22010  0.91470  0.96160  1.0000 0.4931966356
C   C20       1.0  0.77990  0.41470  0.53840  1.0000 0.4931966356
C   C21       1.0  0.86790  0.73230  0.93220  1.0000 0.4931966356
C   C22       1.0  0.13210  0.23230  0.56780  1.0000 0.4931966356
C   C23       1.0  0.13210  0.26770  0.06780  1.0000 0.4931966356
C   C24       1.0  0.86790  0.76770  0.43220  1.0000 0.4931966356
O   O1        1.0  0.55830  0.81534  0.75223  1.0000 -0.5488420301
O   O2        1.0  0.44170  0.31534  0.74777  1.0000 -0.5488420301
O   O3        1.0  0.44170  0.18466  0.24777  1.0000 -0.5488420301
O   O4        1.0  0.55830  0.68466  0.25223  1.0000 -0.5488420301
O   O5        1.0  0.45130  0.96048  0.63853  1.0000 -0.4909137992
O   O6        1.0  0.54870  0.46048  0.86147  1.0000 -0.4909137992
O   O7        1.0  0.54870  0.03952  0.36147  1.0000 -0.4909137992
O   O8        1.0  0.45130  0.53952  0.13853  1.0000 -0.4909137992
O   O9        1.0  0.41750  0.02126  0.78654  1.0000 -0.5488420301
O   O10       1.0  0.58250  0.52126  0.71346  1.0000 -0.5488420301
O   O11       1.0  0.58250  0.97874  0.21346  1.0000 -0.5488420301
O   O12       1.0  0.41750  0.47874  0.28654  1.0000 -0.5488420301
O   O13       1.0  0.32880  0.02720  0.86616  1.0000 -0.4909137992
O   O14       1.0  0.67120  0.52720  0.63384  1.0000 -0.4909137992
O   O15       1.0  0.67120  0.97280  0.13384  1.0000 -0.4909137992
O   O16       1.0  0.32880  0.47280  0.36616  1.0000 -0.4909137992
O   O17       1.0  0.52990  0.75429  0.87924  1.0000 -0.5488420301
O   O18       1.0  0.47010  0.25429  0.62076  1.0000 -0.5488420301
O   O19       1.0  0.47010  0.24571  0.12076  1.0000 -0.5488420301
O   O20       1.0  0.52990  0.74571  0.37924  1.0000 -0.5488420301
O   O21       1.0  0.48730  0.79442  0.98035  1.0000 -0.5007237502
O   O22       1.0  0.51270  0.29442  0.51965  1.0000 -0.5007237502
O   O23       1.0  0.51270  0.20558  0.01965  1.0000 -0.5007237502
O   O24       1.0  0.48730  0.70558  0.48035  1.0000 -0.5007237502
O   O25       1.0  0.65940  0.09456  0.81166  1.0000 -0.5434017314
O   O26       1.0  0.34060  0.59456  0.68834  1.0000 -0.5434017314
O   O27       1.0  0.34060  0.90544  0.18834  1.0000 -0.5434017314
O   O28       1.0  0.65940  0.40544  0.31166  1.0000 -0.5434017314
O   O29       1.0  0.90080  0.13200  0.89356  1.0000 -0.4909137992
O   O30       1.0  0.09920  0.63200  0.60644  1.0000 -0.4909137992
O   O31       1.0  0.09920  0.86800  0.10644  1.0000 -0.4909137992
O   O32       1.0  0.90080  0.36800  0.39356  1.0000 -0.4909137992
O   O33       1.0  0.66490  0.01943  0.97954  1.0000 -0.5434017314
O   O34       1.0  0.33510  0.51943  0.52046  1.0000 -0.5488420301
O   O35       1.0  0.33510  0.98057  0.02046  1.0000 -0.5488420301
O   O36       1.0  0.66490  0.48057  0.47954  1.0000 -0.5488420301
O   O37       1.0  0.89410  0.09415  0.04478  1.0000 -0.5007237502
O   O38       1.0  0.10590  0.59415  0.45522  1.0000 -0.5007237502
O   O39       1.0  0.10590  0.90585  0.95522  1.0000 -0.5007237502
O   O40       1.0  0.89410  0.40585  0.54478  1.0000 -0.5007237502
O   O41       1.0  0.83090  0.85441  0.93032  1.0000 -0.5434017314
O   O42       1.0  0.16910  0.35441  0.56968  1.0000 -0.5434017314
O   O43       1.0  0.16910  0.14559  0.06968  1.0000 -0.5434017314
O   O44       1.0  0.83090  0.64559  0.43032  1.0000 -0.5434017314
O   O45       1.0  0.78400  0.63628  0.89208  1.0000 -0.5007237502
O   O46       1.0  0.21600  0.13628  0.60792  1.0000 -0.5007237502
O   O47       1.0  0.21600  0.36372  0.10792  1.0000 -0.5007237502
O   O48       1.0  0.78400  0.86372  0.39208  1.0000 -0.5007237502
