# DDEC6 charges by PACMAN v1.1 (https://github.com/mtap-research/PACMAN-charge/)
data_2006[Zn][dia]3[ASR]2
_chemical_formula_sum              "Zn8 H80 C96 N32 O32"
_cell_length_a       17.1193
_cell_length_b       17.1193
_cell_length_c       17.1193
_cell_angle_alpha    115.337
_cell_angle_beta     115.337
_cell_angle_gamma    98.2857

_symmetry_space_group_name_H-M    "P 1"
_symmetry_Int_Tables_number       1

loop_
  _symmetry_equiv_pos_as_xyz
  'x, y, z'

loop_
  _atom_site_type_symbol
  _atom_site_label
  _atom_site_symmetry_multiplicity
  _atom_site_fract_x
  _atom_site_fract_y
  _atom_site_fract_z
  _atom_site_occupancy
  _atom_site_charge
Zn  Zn1       1.0  0.16187  0.47300  0.13449  1.0000 0.7641061591
Zn  Zn2       1.0  0.41149  0.22262  0.63449  1.0000 0.7641061591
Zn  Zn3       1.0  0.22300  0.58851  0.81113  1.0000 0.7641061591
Zn  Zn4       1.0  0.97262  0.83813  0.31113  1.0000 0.7641061591
Zn  Zn5       1.0  0.77738  0.41187  0.18887  1.0000 0.7641061591
Zn  Zn6       1.0  0.52700  0.66149  0.68887  1.0000 0.7641061591
Zn  Zn7       1.0  0.33851  0.02738  0.86551  1.0000 0.7641061591
Zn  Zn8       1.0  0.58813  0.77700  0.36551  1.0000 0.7641061591
H   H1        1.0  0.26110  0.58590  0.07400  1.0000 0.1186550936
H   H2        1.0  0.23810  0.06290  0.57400  1.0000 0.1186550936
H   H3        1.0  0.19080  0.31780  0.97240  1.0000 0.131871094
H   H4        1.0  0.40460  0.03160  0.47240  1.0000 0.131871094
H   H5        1.0  0.25800  0.26980  0.84640  1.0000 0.1130795376
H   H6        1.0  0.32660  0.83840  0.34640  1.0000 0.1130795376
H   H7        1.0  0.35670  0.42070  0.85980  1.0000 0.1402553739
H   H8        1.0  0.18910  0.75310  0.35980  1.0000 0.1402553739
H   H9        1.0  0.36520  0.50050  0.28190  1.0000 0.1186550936
H   H10       1.0  0.53140  0.16670  0.78190  1.0000 0.1186550936
H   H11       1.0  0.13360  0.33980  0.22180  1.0000 0.1402553739
H   H12       1.0  0.63200  0.33820  0.72180  1.0000 0.1402553739
H   H13       1.0  0.21220  0.29350  0.36490  1.0000 0.1186550936
H   H14       1.0  0.82140  0.40270  0.86490  1.0000 0.1186550936
H   H15       1.0  0.40470  0.35850  0.46240  1.0000 0.1402553739
H   H16       1.0  0.85390  0.30770  0.96240  1.0000 0.1402553739
H   H17       1.0  0.31160  0.51970  0.96150  1.0000 0.3013746561
H   H18       1.0  0.19180  0.89990  0.46150  1.0000 0.3013746561
H   H19       1.0  0.40740  0.44500  0.39160  1.0000 0.3013746561
H   H20       1.0  0.69660  0.23420  0.89160  1.0000 0.3013746561
H   H21       1.0  0.33590  0.76190  0.82480  1.0000 0.1186550936
H   H22       1.0  0.81290  0.73890  0.32480  1.0000 0.1186550936
H   H23       1.0  0.06780  0.59540  0.62700  1.0000 0.131871094
H   H24       1.0  0.78160  0.80920  0.12700  1.0000 0.131871094
H   H25       1.0  0.01980  0.67340  0.51180  1.0000 0.1130795376
H   H26       1.0  0.58840  0.74200  0.01180  1.0000 0.1130795376
H   H27       1.0  0.17070  0.81090  0.56400  1.0000 0.1402553739
H   H28       1.0  0.50310  0.64330  0.06400  1.0000 0.1402553739
H   H29       1.0  0.25050  0.46860  0.63530  1.0000 0.1186550936
H   H30       1.0  0.91670  0.63480  0.13530  1.0000 0.1186550936
H   H31       1.0  0.08980  0.36800  0.70620  1.0000 0.1402553739
H   H32       1.0  0.08820  0.86640  0.20620  1.0000 0.1402553739
H   H33       1.0  0.04350  0.17860  0.58130  1.0000 0.1186550936
H   H34       1.0  0.15270  0.78780  0.08130  1.0000 0.1186550936
H   H35       1.0  0.10850  0.14610  0.45380  1.0000 0.1402553739
H   H36       1.0  0.05770  0.59530  0.95380  1.0000 0.1402553739
H   H37       1.0  0.26970  0.80820  0.70810  1.0000 0.3013746561
H   H38       1.0  0.64990  0.68840  0.20810  1.0000 0.3013746561
H   H39       1.0  0.19500  0.30340  0.53760  1.0000 0.3013746561
H   H40       1.0  0.98420  0.59260  0.03760  1.0000 0.3013746561
H   H41       1.0  0.93710  0.51110  0.17520  1.0000 0.1186550936
H   H42       1.0  0.41410  0.48810  0.67520  1.0000 0.1186550936
H   H43       1.0  0.96840  0.44080  0.37300  1.0000 0.131871094
H   H44       1.0  0.68220  0.65460  0.87300  1.0000 0.131871094
H   H45       1.0  0.16160  0.50800  0.48820  1.0000 0.1130795376
H   H46       1.0  0.73020  0.57660  0.98820  1.0000 0.1130795376
H   H47       1.0  0.24690  0.60670  0.43600  1.0000 0.1402553739
H   H48       1.0  0.57930  0.43910  0.93600  1.0000 0.1402553739
H   H49       1.0  0.83330  0.61520  0.36470  1.0000 0.1186550936
H   H50       1.0  0.49950  0.78140  0.86470  1.0000 0.1186550936
H   H51       1.0  0.66180  0.38360  0.29380  1.0000 0.1402553739
H   H52       1.0  0.66020  0.88200  0.79380  1.0000 0.1402553739
H   H53       1.0  0.59730  0.46220  0.41870  1.0000 0.1186550936
H   H54       1.0  0.70650  0.07140  0.91870  1.0000 0.1186550936
H   H55       1.0  0.69230  0.65470  0.54620  1.0000 0.1402553739
H   H56       1.0  0.64150  0.10390  0.04620  1.0000 0.1402553739
H   H57       1.0  0.10010  0.56160  0.29190  1.0000 0.3013746561
H   H58       1.0  0.48030  0.44180  0.79190  1.0000 0.3013746561
H   H59       1.0  0.76580  0.65740  0.46240  1.0000 0.3013746561
H   H60       1.0  0.55500  0.94660  0.96240  1.0000 0.3013746561
H   H61       1.0  0.51190  0.18710  0.92600  1.0000 0.1186550936
H   H62       1.0  0.48890  0.66410  0.42600  1.0000 0.1186550936
H   H63       1.0  0.34540  0.21840  0.02760  1.0000 0.131871094
H   H64       1.0  0.55920  0.93220  0.52760  1.0000 0.131871094
H   H65       1.0  0.42340  0.41160  0.15360  1.0000 0.1130795376
H   H66       1.0  0.49200  0.98020  0.65360  1.0000 0.1130795376
H   H67       1.0  0.56090  0.49690  0.14020  1.0000 0.1402553739
H   H68       1.0  0.39330  0.82930  0.64020  1.0000 0.1402553739
H   H69       1.0  0.21860  0.08330  0.71810  1.0000 0.1186550936
H   H70       1.0  0.38480  0.74950  0.21810  1.0000 0.1186550936
H   H71       1.0  0.11800  0.91180  0.77820  1.0000 0.1402553739
H   H72       1.0  0.61640  0.91020  0.27820  1.0000 0.1402553739
H   H73       1.0  0.92860  0.84730  0.63510  1.0000 0.1186550936
H   H74       1.0  0.53780  0.95650  0.13510  1.0000 0.1186550936
H   H75       1.0  0.89610  0.94230  0.53760  1.0000 0.1402553739
H   H76       1.0  0.34530  0.89150  0.03760  1.0000 0.1402553739
H   H77       1.0  0.55820  0.35010  0.03850  1.0000 0.3013746561
H   H78       1.0  0.43840  0.73030  0.53850  1.0000 0.3013746561
H   H79       1.0  0.05340  0.01580  0.60840  1.0000 0.3013746561
H   H80       1.0  0.34260  0.80500  0.10840  1.0000 0.3013746561
C   C1        1.0  0.25373  0.52343  0.03970  1.0000 0.1839395361
C   C2        1.0  0.26627  0.03597  0.53970  1.0000 0.1839395361
C   C3        1.0  0.21552  0.37642  0.98370  1.0000 -0.1021264759
C   C4        1.0  0.35728  0.01818  0.48370  1.0000 -0.1021264759
C   C5        1.0  0.25944  0.39394  0.93930  1.0000 0.1495897565
C   C6        1.0  0.29536  0.92986  0.43930  1.0000 0.1495897565
C   C7        1.0  0.28132  0.33333  0.87020  1.0000 -0.1179771214
C   C8        1.0  0.28688  0.83888  0.37020  1.0000 -0.1179771214
C   C9        1.0  0.33077  0.35767  0.83670  1.0000 -0.2598140491
C   C10       1.0  0.22903  0.75593  0.33670  1.0000 -0.2598140491
C   C11       1.0  0.34568  0.28698  0.76330  1.0000 0.5977937328
C   C12       1.0  0.22632  0.66762  0.26330  1.0000 0.5977937328
C   C13       1.0  0.32362  0.46092  0.28370  1.0000 0.1495897565
C   C14       1.0  0.57278  0.21008  0.78370  1.0000 0.1495897565
C   C15       1.0  0.19706  0.37266  0.25100  1.0000 -0.1021264759
C   C16       1.0  0.62834  0.30394  0.75100  1.0000 -0.1021264759
C   C17       1.0  0.27005  0.37335  0.32690  1.0000 0.1402553739
C   C18       1.0  0.70355  0.30685  0.82690  1.0000 0.1402553739
C   C19       1.0  0.27007  0.32627  0.37960  1.0000 -0.1179771214
C   C20       1.0  0.80333  0.35953  0.87960  1.0000 -0.1179771214
C   C21       1.0  0.34644  0.32614  0.44730  1.0000 -0.2326740054
C   C22       1.0  0.87116  0.35086  0.94730  1.0000 -0.2326740054
C   C23       1.0  0.34353  0.27693  0.50000  1.0000 0.6066244589
C   C24       1.0  0.97307  0.40647  0.00000  1.0000 0.6066244589
C   C25       1.0  0.27343  0.73373  0.76970  1.0000 0.1839395361
C   C26       1.0  0.78597  0.74627  0.26970  1.0000 0.1839395361
C   C27       1.0  0.12642  0.64272  0.66090  1.0000 -0.1021264759
C   C28       1.0  0.76818  0.78448  0.16090  1.0000 -0.1021264759
C   C29       1.0  0.14394  0.70464  0.63450  1.0000 0.1495897565
C   C30       1.0  0.67986  0.74056  0.13450  1.0000 0.1495897565
C   C31       1.0  0.08332  0.71312  0.55200  1.0000 -0.1179771214
C   C32       1.0  0.58888  0.71868  0.05200  1.0000 -0.1179771214
C   C33       1.0  0.10767  0.77097  0.52690  1.0000 -0.2598140491
C   C34       1.0  0.50593  0.66923  0.02690  1.0000 -0.2598140491
C   C35       1.0  0.03698  0.77368  0.44130  1.0000 0.5977937328
C   C36       1.0  0.41762  0.65432  0.94130  1.0000 0.5977937328
C   C37       1.0  0.21092  0.42722  0.63730  1.0000 0.1495897565
C   C38       1.0  0.96008  0.67638  0.13730  1.0000 0.1495897565
C   C39       1.0  0.12266  0.37166  0.67560  1.0000 -0.1021264759
C   C40       1.0  0.05394  0.80294  0.17560  1.0000 -0.1021264759
C   C41       1.0  0.12335  0.29645  0.60330  1.0000 0.1402553739
C   C42       1.0  0.05685  0.72995  0.10330  1.0000 0.1402553739
C   C43       1.0  0.07627  0.19667  0.55620  1.0000 -0.1179771214
C   C44       1.0  0.10953  0.72993  0.05620  1.0000 -0.1179771214
C   C45       1.0  0.07614  0.12884  0.47970  1.0000 -0.2326740054
C   C46       1.0  0.10086  0.65356  0.97970  1.0000 -0.2326740054
C   C47       1.0  0.02693  0.02693  0.43340  1.0000 0.6066244589
C   C48       1.0  0.15647  0.65647  0.93340  1.0000 0.6066244589
C   C49       1.0  0.96403  0.50373  0.23030  1.0000 0.1839395361
C   C50       1.0  0.47657  0.51627  0.73030  1.0000 0.1839395361
C   C51       1.0  0.98182  0.46552  0.33910  1.0000 -0.1021264759
C   C52       1.0  0.62358  0.60728  0.83910  1.0000 -0.1021264759
C   C53       1.0  0.07014  0.50944  0.36550  1.0000 0.1495897565
C   C54       1.0  0.60606  0.54536  0.86550  1.0000 0.1495897565
C   C55       1.0  0.16112  0.53132  0.44800  1.0000 -0.1179771214
C   C56       1.0  0.66667  0.53688  0.94800  1.0000 -0.1179771214
C   C57       1.0  0.24407  0.58077  0.47310  1.0000 -0.2598140491
C   C58       1.0  0.64233  0.47903  0.97310  1.0000 -0.2598140491
C   C59       1.0  0.33238  0.59568  0.55870  1.0000 0.5977937328
C   C60       1.0  0.71302  0.47632  0.05870  1.0000 0.5977937328
C   C61       1.0  0.78992  0.57362  0.36270  1.0000 0.1495897565
C   C62       1.0  0.53908  0.82278  0.86270  1.0000 0.1495897565
C   C63       1.0  0.69606  0.44706  0.32440  1.0000 -0.1021264759
C   C64       1.0  0.62734  0.87834  0.82440  1.0000 -0.1021264759
C   C65       1.0  0.69315  0.52005  0.39670  1.0000 0.1402553739
C   C66       1.0  0.62665  0.95355  0.89670  1.0000 0.1402553739
C   C67       1.0  0.64047  0.52007  0.44380  1.0000 -0.1179771214
C   C68       1.0  0.67373  0.05333  0.94380  1.0000 -0.1179771214
C   C69       1.0  0.64914  0.59644  0.52030  1.0000 -0.2326740054
C   C70       1.0  0.67386  0.12116  0.02030  1.0000 -0.2326740054
C   C71       1.0  0.59353  0.59353  0.56660  1.0000 0.6066244589
C   C72       1.0  0.72307  0.22307  0.06660  1.0000 0.6066244589
C   C73       1.0  0.48373  0.21403  0.96030  1.0000 0.1839395361
C   C74       1.0  0.49627  0.72657  0.46030  1.0000 0.1839395361
C   C75       1.0  0.39272  0.23182  0.01630  1.0000 -0.1021264759
C   C76       1.0  0.53448  0.87358  0.51630  1.0000 -0.1021264759
C   C77       1.0  0.45464  0.32014  0.06070  1.0000 0.1495897565
C   C78       1.0  0.49056  0.85606  0.56070  1.0000 0.1495897565
C   C79       1.0  0.46312  0.41112  0.12980  1.0000 -0.1179771214
C   C80       1.0  0.46868  0.91668  0.62980  1.0000 -0.1179771214
C   C81       1.0  0.52097  0.49407  0.16330  1.0000 -0.2598140491
C   C82       1.0  0.41923  0.89233  0.66330  1.0000 -0.2598140491
C   C83       1.0  0.52368  0.58238  0.23670  1.0000 0.5977937328
C   C84       1.0  0.40432  0.96302  0.73670  1.0000 0.5977937328
C   C85       1.0  0.17722  0.03992  0.71630  1.0000 0.1495897565
C   C86       1.0  0.42638  0.78908  0.21630  1.0000 0.1495897565
C   C87       1.0  0.12166  0.94606  0.74900  1.0000 -0.1021264759
C   C88       1.0  0.55294  0.87734  0.24900  1.0000 -0.1021264759
C   C89       1.0  0.04645  0.94315  0.67310  1.0000 0.1402553739
C   C90       1.0  0.47995  0.87665  0.17310  1.0000 0.1402553739
C   C91       1.0  0.94667  0.89047  0.62040  1.0000 -0.1179771214
C   C92       1.0  0.47993  0.92373  0.12040  1.0000 -0.1179771214
C   C93       1.0  0.87884  0.89914  0.55270  1.0000 -0.2326740054
C   C94       1.0  0.40356  0.92386  0.05270  1.0000 -0.2326740054
C   C95       1.0  0.77693  0.84353  0.50000  1.0000 0.6066244589
C   C96       1.0  0.40647  0.97307  0.00000  1.0000 0.6066244589
N   N1        1.0  0.21300  0.45762  0.04750  1.0000 -0.2897691065
N   N2        1.0  0.33988  0.08450  0.54750  1.0000 -0.2897691065
N   N3        1.0  0.28294  0.48855  0.97653  1.0000 -0.2380832797
N   N4        1.0  0.23798  0.94359  0.47653  1.0000 -0.2380832797
N   N5        1.0  0.23103  0.42795  0.22388  1.0000 -0.2897691065
N   N6        1.0  0.54593  0.24285  0.72388  1.0000 -0.2897691065
N   N7        1.0  0.35020  0.43095  0.34645  1.0000 -0.2224192573
N   N8        1.0  0.66550  0.24625  0.84645  1.0000 -0.2224192573
N   N9        1.0  0.20762  0.66012  0.74462  1.0000 -0.2897691065
N   N10       1.0  0.83450  0.78700  0.24462  1.0000 -0.2897691065
N   N11       1.0  0.23855  0.76202  0.70561  1.0000 -0.2380832797
N   N12       1.0  0.69359  0.71706  0.20561  1.0000 -0.2380832797
N   N13       1.0  0.17795  0.45407  0.69692  1.0000 -0.2897691065
N   N14       1.0  0.99285  0.76897  0.19692  1.0000 -0.2897691065
N   N15       1.0  0.18095  0.33450  0.58075  1.0000 -0.2224192573
N   N16       1.0  0.99625  0.64980  0.08075  1.0000 -0.2224192573
N   N17       1.0  0.91550  0.46300  0.25538  1.0000 -0.2897691065
N   N18       1.0  0.54238  0.58988  0.75538  1.0000 -0.2897691065
N   N19       1.0  0.05641  0.53294  0.29439  1.0000 -0.2380832797
N   N20       1.0  0.51145  0.48798  0.79439  1.0000 -0.2380832797
N   N21       1.0  0.75715  0.48103  0.30308  1.0000 -0.2897691065
N   N22       1.0  0.57205  0.79593  0.80308  1.0000 -0.2897691065
N   N23       1.0  0.75375  0.60020  0.41925  1.0000 -0.2224192573
N   N24       1.0  0.56905  0.91550  0.91925  1.0000 -0.2224192573
N   N25       1.0  0.41012  0.16550  0.95250  1.0000 -0.2897691065
N   N26       1.0  0.53700  0.79238  0.45250  1.0000 -0.2897691065
N   N27       1.0  0.51202  0.30641  0.02347  1.0000 -0.2380832797
N   N28       1.0  0.46706  0.76145  0.52347  1.0000 -0.2380832797
N   N29       1.0  0.20407  0.00715  0.77612  1.0000 -0.2897691065
N   N30       1.0  0.51897  0.82205  0.27612  1.0000 -0.2897691065
N   N31       1.0  0.08450  0.00375  0.65355  1.0000 -0.2224192573
N   N32       1.0  0.39980  0.81905  0.15355  1.0000 -0.2224192573
O   O1        1.0  0.39471  0.31848  0.73491  1.0000 -0.5695684953
O   O2        1.0  0.16643  0.59020  0.23491  1.0000 -0.5695684953
O   O3        1.0  0.31572  0.20380  0.73248  1.0000 -0.5372111453
O   O4        1.0  0.27868  0.66676  0.23248  1.0000 -0.5372111453
O   O5        1.0  0.42248  0.27886  0.55798  1.0000 -0.5510557918
O   O6        1.0  0.02912  0.38550  0.05798  1.0000 -0.5510557918
O   O7        1.0  0.26836  0.23738  0.48724  1.0000 -0.5857586889
O   O8        1.0  0.99986  0.46888  0.98724  1.0000 -0.5857586889
O   O9        1.0  0.06848  0.83357  0.42377  1.0000 -0.5695684953
O   O10       1.0  0.34020  0.60529  0.92377  1.0000 -0.5695684953
O   O11       1.0  0.95380  0.72132  0.38808  1.0000 -0.5372111453
O   O12       1.0  0.41676  0.68428  0.88808  1.0000 -0.5372111453
O   O13       1.0  0.02886  0.97088  0.35638  1.0000 -0.5510557918
O   O14       1.0  0.13550  0.57752  0.85638  1.0000 -0.5510557918
O   O15       1.0  0.98738  0.00014  0.46902  1.0000 -0.5857586889
O   O16       1.0  0.21888  0.73164  0.96902  1.0000 -0.5857586889
O   O17       1.0  0.40980  0.64471  0.57623  1.0000 -0.5695684953
O   O18       1.0  0.68152  0.41643  0.07623  1.0000 -0.5695684953
O   O19       1.0  0.33324  0.56572  0.61192  1.0000 -0.5372111453
O   O20       1.0  0.79620  0.52868  0.11192  1.0000 -0.5372111453
O   O21       1.0  0.61450  0.67248  0.64362  1.0000 -0.5510557918
O   O22       1.0  0.72114  0.27912  0.14362  1.0000 -0.5510557918
O   O23       1.0  0.53112  0.51836  0.53098  1.0000 -0.5857586889
O   O24       1.0  0.76262  0.24986  0.03098  1.0000 -0.5857586889
O   O25       1.0  0.58357  0.65980  0.26509  1.0000 -0.5695684953
O   O26       1.0  0.35529  0.93152  0.76509  1.0000 -0.5695684953
O   O27       1.0  0.47132  0.58324  0.26752  1.0000 -0.5372111453
O   O28       1.0  0.43428  0.04620  0.76752  1.0000 -0.5372111453
O   O29       1.0  0.72088  0.86450  0.44202  1.0000 -0.5510557918
O   O30       1.0  0.32752  0.97114  0.94202  1.0000 -0.5510557918
O   O31       1.0  0.75014  0.78112  0.51276  1.0000 -0.5857586889
O   O32       1.0  0.48164  0.01262  0.01276  1.0000 -0.5857586889
