# DDEC6 charges by PACMAN v1.1 (https://github.com/mtap-research/PACMAN-charge/)
data_2006[Cu][hxg]3[ASR]1
_chemical_formula_sum              "Cu24 H48 C48 N72 O16"
_cell_length_a       17.482
_cell_length_b       17.482
_cell_length_c       17.482
_cell_angle_alpha    60
_cell_angle_beta     60
_cell_angle_gamma    60

_symmetry_space_group_name_H-M    "P 1"
_symmetry_Int_Tables_number       1

loop_
  _symmetry_equiv_pos_as_xyz
  'x, y, z'

loop_
  _atom_site_type_symbol
  _atom_site_label
  _atom_site_symmetry_multiplicity
  _atom_site_fract_x
  _atom_site_fract_y
  _atom_site_fract_z
  _atom_site_occupancy
  _atom_site_charge
Cu  Cu1       1.0  0.12500  0.73780  0.62500  1.0000 0.565767579
Cu  Cu2       1.0  0.62500  0.12500  0.73780  1.0000 0.565767579
Cu  Cu3       1.0  0.73780  0.62500  0.12500  1.0000 0.5645634579
Cu  Cu4       1.0  0.12500  0.51220  0.73780  1.0000 0.565767579
Cu  Cu5       1.0  0.62500  0.73780  0.51220  1.0000 0.565767579
Cu  Cu6       1.0  0.73780  0.51220  0.62500  1.0000 0.565767579
Cu  Cu7       1.0  0.51220  0.73780  0.12500  1.0000 0.565767579
Cu  Cu8       1.0  0.51220  0.62500  0.73780  1.0000 0.565767579
Cu  Cu9       1.0  0.73780  0.12500  0.51220  1.0000 0.565767579
Cu  Cu10      1.0  0.12500  0.62500  0.51220  1.0000 0.565767579
Cu  Cu11      1.0  0.51220  0.12500  0.62500  1.0000 0.565767579
Cu  Cu12      1.0  0.62500  0.51220  0.12500  1.0000 0.565767579
Cu  Cu13      1.0  0.62500  0.01220  0.12500  1.0000 0.5645634579
Cu  Cu14      1.0  0.12500  0.62500  0.01220  1.0000 0.565767579
Cu  Cu15      1.0  0.01220  0.12500  0.62500  1.0000 0.565767579
Cu  Cu16      1.0  0.62500  0.23780  0.01220  1.0000 0.565767579
Cu  Cu17      1.0  0.12500  0.01220  0.23780  1.0000 0.565767579
Cu  Cu18      1.0  0.01220  0.23780  0.12500  1.0000 0.565767579
Cu  Cu19      1.0  0.23780  0.01220  0.62500  1.0000 0.5645634579
Cu  Cu20      1.0  0.23780  0.12500  0.01220  1.0000 0.565767579
Cu  Cu21      1.0  0.01220  0.62500  0.23780  1.0000 0.565767579
Cu  Cu22      1.0  0.62500  0.12500  0.23780  1.0000 0.5645634579
Cu  Cu23      1.0  0.23780  0.62500  0.12500  1.0000 0.565767579
Cu  Cu24      1.0  0.12500  0.23780  0.62500  1.0000 0.565767579
H   H1        1.0  0.13790  0.92710  0.44310  1.0000 0.0851003053
H   H2        1.0  0.44310  0.13790  0.92710  1.0000 0.0851003053
H   H3        1.0  0.92710  0.44310  0.13790  1.0000 0.0851003053
H   H4        1.0  0.11210  0.32290  0.75810  1.0000 0.0851003053
H   H5        1.0  0.80690  0.75810  0.32290  1.0000 0.0851003053
H   H6        1.0  0.75810  0.80690  0.11210  1.0000 0.0851003053
H   H7        1.0  0.80690  0.11210  0.75810  1.0000 0.0851003053
H   H8        1.0  0.75810  0.32290  0.80690  1.0000 0.0851003053
H   H9        1.0  0.32290  0.75810  0.11210  1.0000 0.0851003053
H   H10       1.0  0.32290  0.80690  0.75810  1.0000 0.0851003053
H   H11       1.0  0.11210  0.75810  0.80690  1.0000 0.0851003053
H   H12       1.0  0.75810  0.11210  0.32290  1.0000 0.0846813815
H   H13       1.0  0.92710  0.13790  0.49190  1.0000 0.0851003053
H   H14       1.0  0.13790  0.44310  0.49190  1.0000 0.0846813815
H   H15       1.0  0.44310  0.92710  0.49190  1.0000 0.0851003053
H   H16       1.0  0.49190  0.44310  0.92710  1.0000 0.0851003053
H   H17       1.0  0.49190  0.92710  0.13790  1.0000 0.0846813815
H   H18       1.0  0.49190  0.13790  0.44310  1.0000 0.0851003053
H   H19       1.0  0.44310  0.49190  0.13790  1.0000 0.0851003053
H   H20       1.0  0.92710  0.49190  0.44310  1.0000 0.0851003053
H   H21       1.0  0.13790  0.49190  0.92710  1.0000 0.0851003053
H   H22       1.0  0.32290  0.11210  0.80690  1.0000 0.0851003053
H   H23       1.0  0.11210  0.80690  0.32290  1.0000 0.0851003053
H   H24       1.0  0.80690  0.32290  0.11210  1.0000 0.0851003053
H   H25       1.0  0.61210  0.82290  0.30690  1.0000 0.0846813815
H   H26       1.0  0.30690  0.61210  0.82290  1.0000 0.0851003053
H   H27       1.0  0.82290  0.30690  0.61210  1.0000 0.0851003053
H   H28       1.0  0.63790  0.42710  0.99190  1.0000 0.0851003053
H   H29       1.0  0.94310  0.99190  0.42710  1.0000 0.0851003053
H   H30       1.0  0.99190  0.94310  0.63790  1.0000 0.0846813815
H   H31       1.0  0.94310  0.63790  0.99190  1.0000 0.0846813815
H   H32       1.0  0.99190  0.42710  0.94310  1.0000 0.0846813815
H   H33       1.0  0.42710  0.99190  0.63790  1.0000 0.0851003053
H   H34       1.0  0.42710  0.94310  0.99190  1.0000 0.0851003053
H   H35       1.0  0.63790  0.99190  0.94310  1.0000 0.0846813815
H   H36       1.0  0.99190  0.63790  0.42710  1.0000 0.0846813815
H   H37       1.0  0.82290  0.61210  0.25810  1.0000 0.0846813815
H   H38       1.0  0.61210  0.30690  0.25810  1.0000 0.0851003053
H   H39       1.0  0.30690  0.82290  0.25810  1.0000 0.0846813815
H   H40       1.0  0.25810  0.30690  0.82290  1.0000 0.0851003053
H   H41       1.0  0.25810  0.82290  0.61210  1.0000 0.0851003053
H   H42       1.0  0.25810  0.61210  0.30690  1.0000 0.0851003053
H   H43       1.0  0.30690  0.25810  0.61210  1.0000 0.0851003053
H   H44       1.0  0.82290  0.25810  0.30690  1.0000 0.0851003053
H   H45       1.0  0.61210  0.25810  0.82290  1.0000 0.0851003053
H   H46       1.0  0.42710  0.63790  0.94310  1.0000 0.0851003053
H   H47       1.0  0.63790  0.94310  0.42710  1.0000 0.0851003053
H   H48       1.0  0.94310  0.42710  0.63790  1.0000 0.0851003053
C   C1        1.0  0.13198  0.88272  0.43198  1.0000 0.1196326685
C   C2        1.0  0.43198  0.13198  0.88272  1.0000 0.1196326685
C   C3        1.0  0.88272  0.43198  0.13198  1.0000 0.1196326685
C   C4        1.0  0.11802  0.36728  0.69668  1.0000 0.1196326685
C   C5        1.0  0.81802  0.69668  0.36728  1.0000 0.1196326685
C   C6        1.0  0.69668  0.81802  0.11802  1.0000 0.1196326685
C   C7        1.0  0.81802  0.11802  0.69668  1.0000 0.1196326685
C   C8        1.0  0.69668  0.36728  0.81802  1.0000 0.1196326685
C   C9        1.0  0.36728  0.69668  0.11802  1.0000 0.1196326685
C   C10       1.0  0.36728  0.81802  0.69668  1.0000 0.1196326685
C   C11       1.0  0.11802  0.69668  0.81802  1.0000 0.1196326685
C   C12       1.0  0.69668  0.11802  0.36728  1.0000 0.1196326685
C   C13       1.0  0.88272  0.13198  0.55332  1.0000 0.1196326685
C   C14       1.0  0.13198  0.43198  0.55332  1.0000 0.1196326685
C   C15       1.0  0.43198  0.88272  0.55332  1.0000 0.1196326685
C   C16       1.0  0.55332  0.43198  0.88272  1.0000 0.1196326685
C   C17       1.0  0.55332  0.88272  0.13198  1.0000 0.1196326685
C   C18       1.0  0.55332  0.13198  0.43198  1.0000 0.1196326685
C   C19       1.0  0.43198  0.55332  0.13198  1.0000 0.1196326685
C   C20       1.0  0.88272  0.55332  0.43198  1.0000 0.1196326685
C   C21       1.0  0.13198  0.55332  0.88272  1.0000 0.1196326685
C   C22       1.0  0.36728  0.11802  0.81802  1.0000 0.1196326685
C   C23       1.0  0.11802  0.81802  0.36728  1.0000 0.1196326685
C   C24       1.0  0.81802  0.36728  0.11802  1.0000 0.1196326685
C   C25       1.0  0.61802  0.86728  0.31802  1.0000 0.1196326685
C   C26       1.0  0.31802  0.61802  0.86728  1.0000 0.1196326685
C   C27       1.0  0.86728  0.31802  0.61802  1.0000 0.1196326685
C   C28       1.0  0.63198  0.38272  0.05332  1.0000 0.1196326685
C   C29       1.0  0.93198  0.05332  0.38272  1.0000 0.1196326685
C   C30       1.0  0.05332  0.93198  0.63198  1.0000 0.1196326685
C   C31       1.0  0.93198  0.63198  0.05332  1.0000 0.1196326685
C   C32       1.0  0.05332  0.38272  0.93198  1.0000 0.1196326685
C   C33       1.0  0.38272  0.05332  0.63198  1.0000 0.1196326685
C   C34       1.0  0.38272  0.93198  0.05332  1.0000 0.1196326685
C   C35       1.0  0.63198  0.05332  0.93198  1.0000 0.1196326685
C   C36       1.0  0.05332  0.63198  0.38272  1.0000 0.1196326685
C   C37       1.0  0.86728  0.61802  0.19668  1.0000 0.1196326685
C   C38       1.0  0.61802  0.31802  0.19668  1.0000 0.1196326685
C   C39       1.0  0.31802  0.86728  0.19668  1.0000 0.1196326685
C   C40       1.0  0.19668  0.31802  0.86728  1.0000 0.1196326685
C   C41       1.0  0.19668  0.86728  0.61802  1.0000 0.1196326685
C   C42       1.0  0.19668  0.61802  0.31802  1.0000 0.1196326685
C   C43       1.0  0.31802  0.19668  0.61802  1.0000 0.1196326685
C   C44       1.0  0.86728  0.19668  0.31802  1.0000 0.1196326685
C   C45       1.0  0.61802  0.19668  0.86728  1.0000 0.1196326685
C   C46       1.0  0.38272  0.63198  0.93198  1.0000 0.1196326685
C   C47       1.0  0.63198  0.93198  0.38272  1.0000 0.1196326685
C   C48       1.0  0.93198  0.38272  0.63198  1.0000 0.1196326685
N   N1        1.0  0.12953  0.79861  0.49333  1.0000 -0.2557375914
N   N2        1.0  0.49333  0.12953  0.79861  1.0000 -0.2548266714
N   N3        1.0  0.79861  0.49333  0.12953  1.0000 -0.2557375914
N   N4        1.0  0.12047  0.45139  0.67147  1.0000 -0.2557375914
N   N5        1.0  0.75667  0.67147  0.45139  1.0000 -0.2557375914
N   N6        1.0  0.67147  0.75667  0.12047  1.0000 -0.2548266714
N   N7        1.0  0.75667  0.12047  0.67147  1.0000 -0.2548266714
N   N8        1.0  0.67147  0.45139  0.75667  1.0000 -0.2557375914
N   N9        1.0  0.45139  0.67147  0.12047  1.0000 -0.2548266714
N   N10       1.0  0.45139  0.75667  0.67147  1.0000 -0.2557375914
N   N11       1.0  0.12047  0.67147  0.75667  1.0000 -0.2557375914
N   N12       1.0  0.67147  0.12047  0.45139  1.0000 -0.2557375914
N   N13       1.0  0.79861  0.12953  0.57853  1.0000 -0.2557375914
N   N14       1.0  0.12953  0.49333  0.57853  1.0000 -0.2557375914
N   N15       1.0  0.49333  0.79861  0.57853  1.0000 -0.2557375914
N   N16       1.0  0.57853  0.49333  0.79861  1.0000 -0.2557375914
N   N17       1.0  0.57853  0.79861  0.12953  1.0000 -0.2557375914
N   N18       1.0  0.57853  0.12953  0.49333  1.0000 -0.2557375914
N   N19       1.0  0.49333  0.57853  0.12953  1.0000 -0.2557375914
N   N20       1.0  0.79861  0.57853  0.49333  1.0000 -0.2557375914
N   N21       1.0  0.12953  0.57853  0.79861  1.0000 -0.2557375914
N   N22       1.0  0.45139  0.12047  0.75667  1.0000 -0.2557375914
N   N23       1.0  0.12047  0.75667  0.45139  1.0000 -0.2557375914
N   N24       1.0  0.75667  0.45139  0.12047  1.0000 -0.2548266714
N   N25       1.0  0.62047  0.95139  0.25667  1.0000 -0.2557375914
N   N26       1.0  0.25667  0.62047  0.95139  1.0000 -0.2557375914
N   N27       1.0  0.95139  0.25667  0.62047  1.0000 -0.2548266714
N   N28       1.0  0.62953  0.29861  0.07853  1.0000 -0.2557375914
N   N29       1.0  0.99333  0.07853  0.29861  1.0000 -0.2557375914
N   N30       1.0  0.07853  0.99333  0.62953  1.0000 -0.2557375914
N   N31       1.0  0.99333  0.62953  0.07853  1.0000 -0.2557375914
N   N32       1.0  0.07853  0.29861  0.99333  1.0000 -0.2557375914
N   N33       1.0  0.29861  0.07853  0.62953  1.0000 -0.2557375914
N   N34       1.0  0.29861  0.99333  0.07853  1.0000 -0.2557375914
N   N35       1.0  0.62953  0.07853  0.99333  1.0000 -0.2548266714
N   N36       1.0  0.07853  0.62953  0.29861  1.0000 -0.2557375914
N   N37       1.0  0.95139  0.62047  0.17147  1.0000 -0.2548266714
N   N38       1.0  0.62047  0.25667  0.17147  1.0000 -0.2548266714
N   N39       1.0  0.25667  0.95139  0.17147  1.0000 -0.2557375914
N   N40       1.0  0.17147  0.25667  0.95139  1.0000 -0.2548266714
N   N41       1.0  0.17147  0.95139  0.62047  1.0000 -0.2557375914
N   N42       1.0  0.17147  0.62047  0.25667  1.0000 -0.2548266714
N   N43       1.0  0.25667  0.17147  0.62047  1.0000 -0.2557375914
N   N44       1.0  0.95139  0.17147  0.25667  1.0000 -0.2557375914
N   N45       1.0  0.62047  0.17147  0.95139  1.0000 -0.2548266714
N   N46       1.0  0.29861  0.62953  0.99333  1.0000 -0.2557375914
N   N47       1.0  0.62953  0.99333  0.29861  1.0000 -0.2557375914
N   N48       1.0  0.99333  0.29861  0.62953  1.0000 -0.2557375914
N   N49       1.0  0.12500  0.89756  0.35244  1.0000 -0.3766088029
N   N50       1.0  0.35244  0.12500  0.89756  1.0000 -0.3766088029
N   N51       1.0  0.89756  0.35244  0.12500  1.0000 -0.3766088029
N   N52       1.0  0.12500  0.35244  0.62500  1.0000 -0.3766088029
N   N53       1.0  0.89756  0.62500  0.35244  1.0000 -0.3766088029
N   N54       1.0  0.62500  0.89756  0.12500  1.0000 -0.3766088029
N   N55       1.0  0.89756  0.12500  0.62500  1.0000 -0.3766088029
N   N56       1.0  0.62500  0.35244  0.89756  1.0000 -0.3766088029
N   N57       1.0  0.35244  0.62500  0.12500  1.0000 -0.3766088029
N   N58       1.0  0.35244  0.89756  0.62500  1.0000 -0.3766088029
N   N59       1.0  0.12500  0.62500  0.89756  1.0000 -0.3766088029
N   N60       1.0  0.62500  0.12500  0.35244  1.0000 -0.3766088029
N   N61       1.0  0.62500  0.85244  0.39756  1.0000 -0.3766088029
N   N62       1.0  0.39756  0.62500  0.85244  1.0000 -0.3766088029
N   N63       1.0  0.85244  0.39756  0.62500  1.0000 -0.3766088029
N   N64       1.0  0.62500  0.39756  0.12500  1.0000 -0.3766088029
N   N65       1.0  0.85244  0.12500  0.39756  1.0000 -0.3766088029
N   N66       1.0  0.12500  0.85244  0.62500  1.0000 -0.3766088029
N   N67       1.0  0.85244  0.62500  0.12500  1.0000 -0.3766088029
N   N68       1.0  0.12500  0.39756  0.85244  1.0000 -0.3766088029
N   N69       1.0  0.39756  0.12500  0.62500  1.0000 -0.3766088029
N   N70       1.0  0.39756  0.85244  0.12500  1.0000 -0.3766088029
N   N71       1.0  0.62500  0.12500  0.85244  1.0000 -0.3766088029
N   N72       1.0  0.12500  0.62500  0.39756  1.0000 -0.3766088029
O   O1        1.0  0.15854  0.61382  0.61382  1.0000 -0.135793372
O   O2        1.0  0.61382  0.15854  0.61382  1.0000 -0.1278335144
O   O3        1.0  0.61382  0.61382  0.15854  1.0000 -0.135793372
O   O4        1.0  0.09146  0.63618  0.63618  1.0000 -0.135793372
O   O5        1.0  0.63618  0.63618  0.63618  1.0000 -0.1278335144
O   O6        1.0  0.63618  0.63618  0.09146  1.0000 -0.1278335144
O   O7        1.0  0.63618  0.09146  0.63618  1.0000 -0.1278335144
O   O8        1.0  0.61382  0.61382  0.61382  1.0000 -0.1278335144
O   O9        1.0  0.59146  0.13618  0.13618  1.0000 -0.1278335144
O   O10       1.0  0.13618  0.59146  0.13618  1.0000 -0.1278335144
O   O11       1.0  0.13618  0.13618  0.59146  1.0000 -0.1278335144
O   O12       1.0  0.65854  0.11382  0.11382  1.0000 -0.135793372
O   O13       1.0  0.11382  0.11382  0.11382  1.0000 -0.135793372
O   O14       1.0  0.11382  0.11382  0.65854  1.0000 -0.1278335144
O   O15       1.0  0.11382  0.65854  0.11382  1.0000 -0.135793372
O   O16       1.0  0.13618  0.13618  0.13618  1.0000 -0.1278335144
