# DDEC6 charges by PACMAN v1.1 (https://github.com/mtap-research/PACMAN-charge/)
data_2006[Mg][dia]3[ASR]6
_chemical_formula_sum              "Mg12 H24 C24 O48"
_cell_length_a       11.2962
_cell_length_b       9.8184
_cell_length_c       18.1868
_cell_angle_alpha    90
_cell_angle_beta     126.717
_cell_angle_gamma    90

_symmetry_space_group_name_H-M    "P 1"
_symmetry_Int_Tables_number       1

loop_
  _symmetry_equiv_pos_as_xyz
  'x, y, z'

loop_
  _atom_site_type_symbol
  _atom_site_label
  _atom_site_symmetry_multiplicity
  _atom_site_fract_x
  _atom_site_fract_y
  _atom_site_fract_z
  _atom_site_occupancy
  _atom_site_charge
Mg  Mg1       1.0  0.62134  0.42040  0.36489  1.0000 1.3063327297
Mg  Mg2       1.0  0.37866  0.92040  0.13511  1.0000 1.3063327297
Mg  Mg3       1.0  0.37866  0.57960  0.63511  1.0000 1.3063327297
Mg  Mg4       1.0  0.62134  0.07960  0.86489  1.0000 1.3063327297
Mg  Mg5       1.0  0.50000  0.50000  0.50000  1.0000 1.2928965017
Mg  Mg6       1.0  0.50000  0.00000  0.00000  1.0000 1.2928965017
Mg  Mg7       1.0  0.43091  0.61114  0.19074  1.0000 1.2752945348
Mg  Mg8       1.0  0.56909  0.11114  0.30926  1.0000 1.2752945348
Mg  Mg9       1.0  0.56909  0.38886  0.80926  1.0000 1.2752945348
Mg  Mg10      1.0  0.43091  0.88886  0.69074  1.0000 1.2752945348
Mg  Mg11      1.0  1.00000  0.50000  0.50000  1.0000 1.2998652383
Mg  Mg12      1.0  0.00000  0.00000  0.00000  1.0000 1.2998652383
H   H1        1.0  0.21480  0.54500  0.23810  1.0000 0.0808915072
H   H2        1.0  0.78520  0.04500  0.26190  1.0000 0.0808915072
H   H3        1.0  0.78520  0.45500  0.76190  1.0000 0.0808915072
H   H4        1.0  0.21480  0.95500  0.73810  1.0000 0.0808915072
H   H5        1.0  0.50470  0.11880  0.45110  1.0000 0.0808915072
H   H6        1.0  0.49530  0.61880  0.04890  1.0000 0.0808915072
H   H7        1.0  0.49530  0.88120  0.54890  1.0000 0.0808915072
H   H8        1.0  0.50470  0.38120  0.95110  1.0000 0.0808915072
H   H9        1.0  0.97720  0.20490  0.48300  1.0000 0.0808915072
H   H10       1.0  0.02280  0.70490  0.01700  1.0000 0.0808915072
H   H11       1.0  0.02280  0.79510  0.51700  1.0000 0.0857364907
H   H12       1.0  0.97720  0.29510  0.98300  1.0000 0.0857364907
H   H13       1.0  0.49140  0.25900  0.13070  1.0000 0.0808915072
H   H14       1.0  0.50860  0.75900  0.36930  1.0000 0.0808915072
H   H15       1.0  0.50860  0.74100  0.86930  1.0000 0.0808915072
H   H16       1.0  0.49140  0.24100  0.63070  1.0000 0.0808915072
H   H17       1.0  0.76530  0.65740  0.57000  1.0000 0.0808915072
H   H18       1.0  0.23470  0.15740  0.93000  1.0000 0.0808915072
H   H19       1.0  0.23470  0.34260  0.43000  1.0000 0.0808915072
H   H20       1.0  0.76530  0.84260  0.07000  1.0000 0.0808915072
H   H21       1.0  0.75030  0.70010  0.27270  1.0000 0.0808915072
H   H22       1.0  0.24970  0.20010  0.22730  1.0000 0.0808915072
H   H23       1.0  0.24970  0.29990  0.72730  1.0000 0.0808915072
H   H24       1.0  0.75030  0.79990  0.77270  1.0000 0.0808915072
C   C1        1.0  0.31020  0.52050  0.29080  1.0000 0.5163375064
C   C2        1.0  0.68980  0.02050  0.20920  1.0000 0.5163375064
C   C3        1.0  0.68980  0.47950  0.70920  1.0000 0.5163375064
C   C4        1.0  0.31020  0.97950  0.79080  1.0000 0.5163375064
C   C5        1.0  0.51885  0.21260  0.44545  1.0000 0.5163375064
C   C6        1.0  0.48115  0.71260  0.05455  1.0000 0.5163375064
C   C7        1.0  0.48115  0.78740  0.55455  1.0000 0.5163375064
C   C8        1.0  0.51885  0.28740  0.94545  1.0000 0.5163375064
C   C9        1.0  0.87438  0.22390  0.44308  1.0000 0.5288788402
C   C10       1.0  0.12562  0.72390  0.05692  1.0000 0.5288788402
C   C11       1.0  0.12562  0.77610  0.55692  1.0000 0.5288788402
C   C12       1.0  0.87438  0.27610  0.94308  1.0000 0.5288788402
C   C13       1.0  0.49891  0.32930  0.16921  1.0000 0.5288788402
C   C14       1.0  0.50109  0.82930  0.33079  1.0000 0.5288788402
C   C15       1.0  0.50109  0.67070  0.83079  1.0000 0.5288788402
C   C16       1.0  0.49891  0.17070  0.66921  1.0000 0.5288788402
C   C17       1.0  0.77095  0.59980  0.53025  1.0000 0.5288788402
C   C18       1.0  0.22905  0.09980  0.96975  1.0000 0.5288788402
C   C19       1.0  0.22905  0.40020  0.46975  1.0000 0.5288788402
C   C20       1.0  0.77095  0.90020  0.03025  1.0000 0.5288788402
C   C21       1.0  0.76677  0.63520  0.31667  1.0000 0.5163375064
C   C22       1.0  0.23323  0.13520  0.18333  1.0000 0.5163375064
C   C23       1.0  0.23323  0.36480  0.68333  1.0000 0.5163375064
C   C24       1.0  0.76677  0.86480  0.81667  1.0000 0.5163375064
O   O1        1.0  0.41162  0.50634  0.28080  1.0000 -0.6817420995
O   O2        1.0  0.58838  0.00634  0.21920  1.0000 -0.6817420995
O   O3        1.0  0.58838  0.49366  0.71920  1.0000 -0.6817420995
O   O4        1.0  0.41162  0.99366  0.78080  1.0000 -0.6817420995
O   O5        1.0  0.32553  0.50513  0.36337  1.0000 -0.5730356103
O   O6        1.0  0.67447  0.00513  0.13663  1.0000 -0.5730356103
O   O7        1.0  0.67447  0.49487  0.63663  1.0000 -0.5730356103
O   O8        1.0  0.32553  0.99487  0.86337  1.0000 -0.5730356103
O   O9        1.0  0.54341  0.24386  0.38748  1.0000 -0.6817420995
O   O10       1.0  0.45659  0.74386  0.11252  1.0000 -0.6817420995
O   O11       1.0  0.45659  0.75614  0.61252  1.0000 -0.6817420995
O   O12       1.0  0.54341  0.25614  0.88748  1.0000 -0.6817420995
O   O13       1.0  0.51173  0.29308  0.49466  1.0000 -0.5730356103
O   O14       1.0  0.48827  0.79308  0.00534  1.0000 -0.5730356103
O   O15       1.0  0.48827  0.70692  0.50534  1.0000 -0.5730356103
O   O16       1.0  0.51173  0.20692  0.99466  1.0000 -0.5730356103
O   O17       1.0  0.83569  0.34790  0.43644  1.0000 -0.6707739309
O   O18       1.0  0.16431  0.84790  0.06356  1.0000 -0.6707739309
O   O19       1.0  0.16431  0.65210  0.56356  1.0000 -0.6707739309
O   O20       1.0  0.83569  0.15210  0.93644  1.0000 -0.6707739309
O   O21       1.0  0.79091  0.12614  0.40264  1.0000 -0.5730356103
O   O22       1.0  0.20909  0.62614  0.09736  1.0000 -0.5730356103
O   O23       1.0  0.20909  0.87386  0.59736  1.0000 -0.5730356103
O   O24       1.0  0.79091  0.37386  0.90264  1.0000 -0.5730356103
O   O25       1.0  0.56113  0.29929  0.25297  1.0000 -0.6707739309
O   O26       1.0  0.43887  0.79929  0.24703  1.0000 -0.6707739309
O   O27       1.0  0.43887  0.70071  0.74703  1.0000 -0.6707739309
O   O28       1.0  0.56113  0.20071  0.75297  1.0000 -0.6707739309
O   O29       1.0  0.44747  0.44223  0.13357  1.0000 -0.5804460571
O   O30       1.0  0.55253  0.94223  0.36643  1.0000 -0.5804460571
O   O31       1.0  0.55253  0.55777  0.86643  1.0000 -0.5804460571
O   O32       1.0  0.44747  0.05777  0.63357  1.0000 -0.5804460571
O   O33       1.0  0.65868  0.52563  0.47474  1.0000 -0.6817420995
O   O34       1.0  0.34132  0.02563  0.02526  1.0000 -0.6817420995
O   O35       1.0  0.34132  0.47437  0.52526  1.0000 -0.6817420995
O   O36       1.0  0.65868  0.97437  0.97474  1.0000 -0.6817420995
O   O37       1.0  0.88623  0.60325  0.53694  1.0000 -0.5804460571
O   O38       1.0  0.11377  0.10325  0.96306  1.0000 -0.5804460571
O   O39       1.0  0.11377  0.39675  0.46306  1.0000 -0.5804460571
O   O40       1.0  0.88623  0.89675  0.03694  1.0000 -0.5804460571
O   O41       1.0  0.65347  0.58114  0.30378  1.0000 -0.6707739309
O   O42       1.0  0.34653  0.08114  0.19622  1.0000 -0.6707739309
O   O43       1.0  0.34653  0.41886  0.69622  1.0000 -0.6707739309
O   O44       1.0  0.65347  0.91886  0.80378  1.0000 -0.6707739309
O   O45       1.0  0.89645  0.61074  0.38133  1.0000 -0.563881673
O   O46       1.0  0.10355  0.11074  0.11867  1.0000 -0.563881673
O   O47       1.0  0.10355  0.38926  0.61867  1.0000 -0.563881673
O   O48       1.0  0.89645  0.88926  0.88133  1.0000 -0.563881673
