# DDEC6 charges by PACMAN v1.1 (https://github.com/mtap-research/PACMAN-charge/)
data_2006[Mg][dia]3[ASR]8
_chemical_formula_sum              "Mg12 H24 C24 O48"
_cell_length_a       11.4007
_cell_length_b       9.9047
_cell_length_c       18.2659
_cell_angle_alpha    90
_cell_angle_beta     127.291
_cell_angle_gamma    90

_symmetry_space_group_name_H-M    "P 1"
_symmetry_Int_Tables_number       1

loop_
  _symmetry_equiv_pos_as_xyz
  'x, y, z'

loop_
  _atom_site_type_symbol
  _atom_site_label
  _atom_site_symmetry_multiplicity
  _atom_site_fract_x
  _atom_site_fract_y
  _atom_site_fract_z
  _atom_site_occupancy
  _atom_site_charge
Mg  Mg1       1.0  0.62037  0.42080  0.36509  1.0000 1.3070911709
Mg  Mg2       1.0  0.37963  0.92080  0.13491  1.0000 1.3070911709
Mg  Mg3       1.0  0.37963  0.57920  0.63491  1.0000 1.3070911709
Mg  Mg4       1.0  0.62037  0.07920  0.86509  1.0000 1.3070911709
Mg  Mg5       1.0  0.50000  0.50000  0.50000  1.0000 1.2921313886
Mg  Mg6       1.0  0.50000  0.00000  0.00000  1.0000 1.2921313886
Mg  Mg7       1.0  0.42914  0.61237  0.19041  1.0000 1.2767026667
Mg  Mg8       1.0  0.57086  0.11237  0.30959  1.0000 1.2767026667
Mg  Mg9       1.0  0.57086  0.38763  0.80959  1.0000 1.2767026667
Mg  Mg10      1.0  0.42914  0.88763  0.69041  1.0000 1.2767026667
Mg  Mg11      1.0  0.00000  0.50000  0.50000  1.0000 1.2987818364
Mg  Mg12      1.0  0.00000  0.00000  0.00000  1.0000 1.2987818364
H   H1        1.0  0.21520  0.53700  0.23760  1.0000 0.0806374529
H   H2        1.0  0.78480  0.03700  0.26240  1.0000 0.0806374529
H   H3        1.0  0.78480  0.46300  0.76240  1.0000 0.0806374529
H   H4        1.0  0.21520  0.96300  0.73760  1.0000 0.0806374529
H   H5        1.0  0.52040  0.12250  0.45810  1.0000 0.0806374529
H   H6        1.0  0.47960  0.62250  0.04190  1.0000 0.0806374529
H   H7        1.0  0.47960  0.87750  0.54190  1.0000 0.0806374529
H   H8        1.0  0.52040  0.37750  0.95810  1.0000 0.0806374529
H   H9        1.0  0.97670  0.21310  0.47150  1.0000 0.0806374529
H   H10       1.0  0.02330  0.71310  0.02850  1.0000 0.0874464637
H   H11       1.0  0.02330  0.78690  0.52850  1.0000 0.0874464637
H   H12       1.0  0.97670  0.28690  0.97150  1.0000 0.0806374529
H   H13       1.0  0.47180  0.26030  0.12720  1.0000 0.0874464637
H   H14       1.0  0.52820  0.76030  0.37280  1.0000 0.0874464637
H   H15       1.0  0.52820  0.73970  0.87280  1.0000 0.0874464637
H   H16       1.0  0.47180  0.23970  0.62720  1.0000 0.0874464637
H   H17       1.0  0.77000  0.65220  0.57230  1.0000 0.0806374529
H   H18       1.0  0.23000  0.15220  0.92770  1.0000 0.0806374529
H   H19       1.0  0.23000  0.34780  0.42770  1.0000 0.0806374529
H   H20       1.0  0.77000  0.84780  0.07230  1.0000 0.0806374529
H   H21       1.0  0.74500  0.70830  0.27850  1.0000 0.0806374529
H   H22       1.0  0.25500  0.20830  0.22150  1.0000 0.0874464637
H   H23       1.0  0.25500  0.29170  0.72150  1.0000 0.0806374529
H   H24       1.0  0.74500  0.79170  0.77850  1.0000 0.0806374529
C   C1        1.0  0.30937  0.51712  0.29011  1.0000 0.5211026861
C   C2        1.0  0.69063  0.01712  0.20989  1.0000 0.5211026861
C   C3        1.0  0.69063  0.48288  0.70989  1.0000 0.5211026861
C   C4        1.0  0.30937  0.98288  0.79011  1.0000 0.5211026861
C   C5        1.0  0.52955  0.21351  0.44998  1.0000 0.5211026861
C   C6        1.0  0.47045  0.71351  0.05002  1.0000 0.5211026861
C   C7        1.0  0.47045  0.78649  0.55002  1.0000 0.5211026861
C   C8        1.0  0.52955  0.28649  0.94998  1.0000 0.5211026861
C   C9        1.0  0.87576  0.22874  0.43652  1.0000 0.5328046772
C   C10       1.0  0.12424  0.72874  0.06348  1.0000 0.5328046772
C   C11       1.0  0.12424  0.77126  0.56348  1.0000 0.5328046772
C   C12       1.0  0.87576  0.27126  0.93652  1.0000 0.5328046772
C   C13       1.0  0.48551  0.32943  0.16617  1.0000 0.5328046772
C   C14       1.0  0.51449  0.82943  0.33383  1.0000 0.5328046772
C   C15       1.0  0.51449  0.67057  0.83383  1.0000 0.5328046772
C   C16       1.0  0.48551  0.17057  0.66617  1.0000 0.5328046772
C   C17       1.0  0.77385  0.59590  0.53305  1.0000 0.5328046772
C   C18       1.0  0.22615  0.09590  0.96695  1.0000 0.5328046772
C   C19       1.0  0.22615  0.40410  0.46695  1.0000 0.5328046772
C   C20       1.0  0.77385  0.90410  0.03305  1.0000 0.5328046772
C   C21       1.0  0.76239  0.64104  0.31954  1.0000 0.5211026861
C   C22       1.0  0.23761  0.14104  0.18046  1.0000 0.5211026861
C   C23       1.0  0.23761  0.35896  0.68046  1.0000 0.5211026861
C   C24       1.0  0.76239  0.85896  0.81954  1.0000 0.5211026861
O   O1        1.0  0.41105  0.50675  0.28084  1.0000 -0.6884383534
O   O2        1.0  0.58895  0.00675  0.21916  1.0000 -0.6799083309
O   O3        1.0  0.58895  0.49325  0.71916  1.0000 -0.6884383534
O   O4        1.0  0.41105  0.99325  0.78084  1.0000 -0.6884383534
O   O5        1.0  0.32469  0.50310  0.36259  1.0000 -0.5738357234
O   O6        1.0  0.67531  0.00310  0.13741  1.0000 -0.5738357234
O   O7        1.0  0.67531  0.49690  0.63741  1.0000 -0.5738357234
O   O8        1.0  0.32469  0.99690  0.86259  1.0000 -0.5738357234
O   O9        1.0  0.54983  0.24348  0.38999  1.0000 -0.6884383534
O   O10       1.0  0.45017  0.74348  0.11001  1.0000 -0.6884383534
O   O11       1.0  0.45017  0.75652  0.61001  1.0000 -0.6884383534
O   O12       1.0  0.54983  0.25652  0.88999  1.0000 -0.6884383534
O   O13       1.0  0.52117  0.29487  0.49770  1.0000 -0.5789444755
O   O14       1.0  0.47883  0.79487  0.00230  1.0000 -0.5789444755
O   O15       1.0  0.47883  0.70513  0.50230  1.0000 -0.5789444755
O   O16       1.0  0.52117  0.20513  0.99770  1.0000 -0.5789444755
O   O17       1.0  0.83487  0.35019  0.43271  1.0000 -0.6664484795
O   O18       1.0  0.16513  0.85019  0.06729  1.0000 -0.6664484795
O   O19       1.0  0.16513  0.64981  0.56729  1.0000 -0.6664484795
O   O20       1.0  0.83487  0.14981  0.93271  1.0000 -0.6664484795
O   O21       1.0  0.79372  0.12971  0.39804  1.0000 -0.5738357234
O   O22       1.0  0.20628  0.62971  0.10196  1.0000 -0.5738357234
O   O23       1.0  0.20628  0.87029  0.60196  1.0000 -0.5738357234
O   O24       1.0  0.79372  0.37029  0.89804  1.0000 -0.5789444755
O   O25       1.0  0.55521  0.30028  0.25121  1.0000 -0.6799083309
O   O26       1.0  0.44479  0.80028  0.24879  1.0000 -0.6799083309
O   O27       1.0  0.44479  0.69972  0.74879  1.0000 -0.6799083309
O   O28       1.0  0.55521  0.19972  0.75121  1.0000 -0.6799083309
O   O29       1.0  0.43453  0.44186  0.13101  1.0000 -0.5789444755
O   O30       1.0  0.56547  0.94186  0.36899  1.0000 -0.5789444755
O   O31       1.0  0.56547  0.55814  0.86899  1.0000 -0.5789444755
O   O32       1.0  0.43453  0.05814  0.63101  1.0000 -0.5789444755
O   O33       1.0  0.65919  0.52476  0.47550  1.0000 -0.6884383534
O   O34       1.0  0.34081  0.02476  0.02450  1.0000 -0.6884383534
O   O35       1.0  0.34081  0.47524  0.52450  1.0000 -0.6884383534
O   O36       1.0  0.65919  0.97524  0.97550  1.0000 -0.6884383534
O   O37       1.0  0.88881  0.59558  0.54047  1.0000 -0.5789444755
O   O38       1.0  0.11119  0.09558  0.95953  1.0000 -0.5789444755
O   O39       1.0  0.11119  0.40442  0.45953  1.0000 -0.5789444755
O   O40       1.0  0.88881  0.90442  0.04047  1.0000 -0.5789444755
O   O41       1.0  0.65013  0.57975  0.30280  1.0000 -0.6799083309
O   O42       1.0  0.34987  0.07975  0.19720  1.0000 -0.6799083309
O   O43       1.0  0.34987  0.42025  0.69720  1.0000 -0.6799083309
O   O44       1.0  0.65013  0.92025  0.80280  1.0000 -0.6799083309
O   O45       1.0  0.89191  0.61924  0.38521  1.0000 -0.5614832695
O   O46       1.0  0.10809  0.11924  0.11479  1.0000 -0.5614832695
O   O47       1.0  0.10809  0.38076  0.61479  1.0000 -0.5614832695
O   O48       1.0  0.89191  0.88076  0.88521  1.0000 -0.5614832695
