# DDEC6 charges by PACMAN v1.1 (https://github.com/mtap-research/PACMAN-charge/)
data_2006[Zn][sod]3[ASR]2
_chemical_formula_sum              "Zn6 H60 C84 N24"
_cell_length_a       14.2749
_cell_length_b       14.2749
_cell_length_c       14.2749
_cell_angle_alpha    107.264
_cell_angle_beta     107.264
_cell_angle_gamma    107.264

_symmetry_space_group_name_H-M    "P 1"
_symmetry_Int_Tables_number       1

loop_
  _symmetry_equiv_pos_as_xyz
  'x, y, z'

loop_
  _atom_site_type_symbol
  _atom_site_label
  _atom_site_symmetry_multiplicity
  _atom_site_fract_x
  _atom_site_fract_y
  _atom_site_fract_z
  _atom_site_occupancy
  _atom_site_charge
Zn  Zn1       1.0  0.74017  0.01350  0.27113  1.0000 0.6473015345
Zn  Zn2       1.0  0.01350  0.27113  0.74017  1.0000 0.6473015345
Zn  Zn3       1.0  0.27113  0.74017  0.01350  1.0000 0.6473015345
Zn  Zn4       1.0  0.25983  0.98650  0.72887  1.0000 0.6473015345
Zn  Zn5       1.0  0.98650  0.72887  0.25983  1.0000 0.6473015345
Zn  Zn6       1.0  0.72887  0.25983  0.98650  1.0000 0.6473015345
H   H1        1.0  0.50410  0.91020  0.10170  1.0000 0.1016806903
H   H2        1.0  0.91020  0.10170  0.50410  1.0000 0.1016806903
H   H3        1.0  0.10170  0.50410  0.91020  1.0000 0.1016806903
H   H4        1.0  0.49590  0.08980  0.89830  1.0000 0.1016806903
H   H5        1.0  0.08980  0.89830  0.49590  1.0000 0.1016806903
H   H6        1.0  0.89830  0.49590  0.08980  1.0000 0.1016806903
H   H7        1.0  0.69430  0.86840  0.41170  1.0000 0.1274239195
H   H8        1.0  0.86840  0.41170  0.69430  1.0000 0.1274239195
H   H9        1.0  0.41170  0.69430  0.86840  1.0000 0.1274239195
H   H10       1.0  0.30570  0.13160  0.58830  1.0000 0.1274239195
H   H11       1.0  0.13160  0.58830  0.30570  1.0000 0.1274239195
H   H12       1.0  0.58830  0.30570  0.13160  1.0000 0.1274239195
H   H13       1.0  0.60160  0.74050  0.45800  1.0000 0.1016806903
H   H14       1.0  0.74050  0.45800  0.60160  1.0000 0.1016806903
H   H15       1.0  0.45800  0.60160  0.74050  1.0000 0.1016806903
H   H16       1.0  0.39840  0.25950  0.54200  1.0000 0.1016806903
H   H17       1.0  0.25950  0.54200  0.39840  1.0000 0.1016806903
H   H18       1.0  0.54200  0.39840  0.25950  1.0000 0.1016806903
H   H19       1.0  0.41750  0.63050  0.35550  1.0000 0.1100727556
H   H20       1.0  0.63050  0.35550  0.41750  1.0000 0.1100727556
H   H21       1.0  0.35550  0.41750  0.63050  1.0000 0.1100727556
H   H22       1.0  0.58250  0.36950  0.64450  1.0000 0.1100727556
H   H23       1.0  0.36950  0.64450  0.58250  1.0000 0.1100727556
H   H24       1.0  0.64450  0.58250  0.36950  1.0000 0.1100727556
H   H25       1.0  0.32220  0.64530  0.20260  1.0000 0.1274239195
H   H26       1.0  0.64530  0.20260  0.32220  1.0000 0.1274239195
H   H27       1.0  0.20260  0.32220  0.64530  1.0000 0.1274239195
H   H28       1.0  0.67780  0.35470  0.79740  1.0000 0.1274239195
H   H29       1.0  0.35470  0.79740  0.67780  1.0000 0.1274239195
H   H30       1.0  0.79740  0.67780  0.35470  1.0000 0.1274239195
H   H31       1.0  0.75240  0.21150  0.19740  1.0000 0.1016806903
H   H32       1.0  0.21150  0.19740  0.75240  1.0000 0.1016806903
H   H33       1.0  0.19740  0.75240  0.21150  1.0000 0.1016806903
H   H34       1.0  0.24760  0.78850  0.80260  1.0000 0.1016806903
H   H35       1.0  0.78850  0.80260  0.24760  1.0000 0.1016806903
H   H36       1.0  0.80260  0.24760  0.78850  1.0000 0.1016806903
H   H37       1.0  0.65540  0.02020  0.82180  1.0000 0.1223144093
H   H38       1.0  0.02020  0.82180  0.65540  1.0000 0.1223144093
H   H39       1.0  0.82180  0.65540  0.02020  1.0000 0.1223144093
H   H40       1.0  0.34460  0.97980  0.17820  1.0000 0.1223144093
H   H41       1.0  0.97980  0.17820  0.34460  1.0000 0.1223144093
H   H42       1.0  0.17820  0.34460  0.97980  1.0000 0.1223144093
H   H43       1.0  0.67160  0.83370  0.04430  1.0000 0.1223144093
H   H44       1.0  0.83370  0.04430  0.67160  1.0000 0.1223144093
H   H45       1.0  0.04430  0.67160  0.83370  1.0000 0.1223144093
H   H46       1.0  0.32840  0.16630  0.95570  1.0000 0.1223144093
H   H47       1.0  0.16630  0.95570  0.32840  1.0000 0.1223144093
H   H48       1.0  0.95570  0.32840  0.16630  1.0000 0.1223144093
H   H49       1.0  0.62060  0.84160  0.75200  1.0000 0.1100727556
H   H50       1.0  0.84160  0.75200  0.62060  1.0000 0.1100727556
H   H51       1.0  0.75200  0.62060  0.84160  1.0000 0.1100727556
H   H52       1.0  0.37940  0.15840  0.24800  1.0000 0.1100727556
H   H53       1.0  0.15840  0.24800  0.37940  1.0000 0.1100727556
H   H54       1.0  0.24800  0.37940  0.15840  1.0000 0.1100727556
H   H55       1.0  0.62810  0.74630  0.85960  1.0000 0.1100727556
H   H56       1.0  0.74630  0.85960  0.62810  1.0000 0.1100727556
H   H57       1.0  0.85960  0.62810  0.74630  1.0000 0.1100727556
H   H58       1.0  0.37190  0.25370  0.14040  1.0000 0.1100727556
H   H59       1.0  0.25370  0.14040  0.37190  1.0000 0.1100727556
H   H60       1.0  0.14040  0.37190  0.25370  1.0000 0.1100727556
C   C1        1.0  0.50530  0.87580  0.14780  1.0000 0.1710041597
C   C2        1.0  0.87580  0.14780  0.50530  1.0000 0.1710041597
C   C3        1.0  0.14780  0.50530  0.87580  1.0000 0.1710041597
C   C4        1.0  0.49470  0.12420  0.85220  1.0000 0.1710041597
C   C5        1.0  0.12420  0.85220  0.49470  1.0000 0.1710041597
C   C6        1.0  0.85220  0.49470  0.12420  1.0000 0.1710041597
C   C7        1.0  0.56280  0.83520  0.28120  1.0000 0.1466203391
C   C8        1.0  0.83520  0.28120  0.56280  1.0000 0.1466203391
C   C9        1.0  0.28120  0.56280  0.83520  1.0000 0.1466203391
C   C10       1.0  0.43720  0.16480  0.71880  1.0000 0.1466203391
C   C11       1.0  0.16480  0.71880  0.43720  1.0000 0.1466203391
C   C12       1.0  0.71880  0.43720  0.16480  1.0000 0.1466203391
C   C13       1.0  0.62070  0.82510  0.37080  1.0000 -0.1883410142
C   C14       1.0  0.82510  0.37080  0.62070  1.0000 -0.1883410142
C   C15       1.0  0.37080  0.62070  0.82510  1.0000 -0.1883410142
C   C16       1.0  0.37930  0.17490  0.62920  1.0000 -0.1883410142
C   C17       1.0  0.17490  0.62920  0.37930  1.0000 -0.1883410142
C   C18       1.0  0.62920  0.37930  0.17490  1.0000 -0.1883410142
C   C19       1.0  0.56490  0.74870  0.39740  1.0000 -0.124149455
C   C20       1.0  0.74870  0.39740  0.56490  1.0000 -0.124149455
C   C21       1.0  0.39740  0.56490  0.74870  1.0000 -0.124149455
C   C22       1.0  0.43510  0.25130  0.60260  1.0000 -0.124149455
C   C23       1.0  0.25130  0.60260  0.43510  1.0000 -0.124149455
C   C24       1.0  0.60260  0.43510  0.25130  1.0000 -0.124149455
C   C25       1.0  0.45270  0.68140  0.33480  1.0000 -0.1121602993
C   C26       1.0  0.68140  0.33480  0.45270  1.0000 -0.1121602993
C   C27       1.0  0.33480  0.45270  0.68140  1.0000 -0.1121602993
C   C28       1.0  0.54730  0.31860  0.66520  1.0000 -0.1121602993
C   C29       1.0  0.31860  0.66520  0.54730  1.0000 -0.1121602993
C   C30       1.0  0.66520  0.54730  0.31860  1.0000 -0.1121602993
C   C31       1.0  0.45150  0.76850  0.21890  1.0000 0.1466203391
C   C32       1.0  0.76850  0.21890  0.45150  1.0000 0.1466203391
C   C33       1.0  0.21890  0.45150  0.76850  1.0000 0.1466203391
C   C34       1.0  0.54850  0.23150  0.78110  1.0000 0.1466203391
C   C35       1.0  0.23150  0.78110  0.54850  1.0000 0.1466203391
C   C36       1.0  0.78110  0.54850  0.23150  1.0000 0.1466203391
C   C37       1.0  0.39550  0.69010  0.24470  1.0000 -0.1883410142
C   C38       1.0  0.69010  0.24470  0.39550  1.0000 -0.1883410142
C   C39       1.0  0.24470  0.39550  0.69010  1.0000 -0.1883410142
C   C40       1.0  0.60450  0.30990  0.75530  1.0000 -0.1883410142
C   C41       1.0  0.30990  0.75530  0.60450  1.0000 -0.1883410142
C   C42       1.0  0.75530  0.60450  0.30990  1.0000 -0.1883410142
C   C43       1.0  0.73280  0.14800  0.13860  1.0000 0.1710041597
C   C44       1.0  0.14800  0.13860  0.73280  1.0000 0.1710041597
C   C45       1.0  0.13860  0.73280  0.14800  1.0000 0.1710041597
C   C46       1.0  0.26720  0.85200  0.86140  1.0000 0.1710041597
C   C47       1.0  0.85200  0.86140  0.26720  1.0000 0.1710041597
C   C48       1.0  0.86140  0.26720  0.85200  1.0000 0.1710041597
C   C49       1.0  0.68970  0.03950  0.97910  1.0000 0.1274239195
C   C50       1.0  0.03950  0.97910  0.68970  1.0000 0.1274239195
C   C51       1.0  0.97910  0.68970  0.03950  1.0000 0.1274239195
C   C52       1.0  0.31030  0.96050  0.02090  1.0000 0.1274239195
C   C53       1.0  0.96050  0.02090  0.31030  1.0000 0.1274239195
C   C54       1.0  0.02090  0.31030  0.96050  1.0000 0.1274239195
C   C55       1.0  0.66000  0.98410  0.86620  1.0000 -0.1806973217
C   C56       1.0  0.98410  0.86620  0.66000  1.0000 -0.1806973217
C   C57       1.0  0.86620  0.66000  0.98410  1.0000 -0.1883410142
C   C58       1.0  0.34000  0.01590  0.13380  1.0000 -0.1806973217
C   C59       1.0  0.01590  0.13380  0.34000  1.0000 -0.1806973217
C   C60       1.0  0.13380  0.34000  0.01590  1.0000 -0.1806973217
C   C61       1.0  0.69290  0.98430  0.04280  1.0000 0.1100727556
C   C62       1.0  0.98430  0.04280  0.69290  1.0000 0.1100727556
C   C63       1.0  0.04280  0.69290  0.98430  1.0000 0.1100727556
C   C64       1.0  0.30710  0.01570  0.95720  1.0000 0.1100727556
C   C65       1.0  0.01570  0.95720  0.30710  1.0000 0.1100727556
C   C66       1.0  0.95720  0.30710  0.01570  1.0000 0.1100727556
C   C67       1.0  0.66940  0.87070  0.00050  1.0000 -0.1806973217
C   C68       1.0  0.87070  0.00050  0.66940  1.0000 -0.1806973217
C   C69       1.0  0.00050  0.66940  0.87070  1.0000 -0.1806973217
C   C70       1.0  0.33060  0.12930  0.99950  1.0000 -0.1806973217
C   C71       1.0  0.12930  0.99950  0.33060  1.0000 -0.1806973217
C   C72       1.0  0.99950  0.33060  0.12930  1.0000 -0.1806973217
C   C73       1.0  0.63870  0.87750  0.82520  1.0000 -0.1121602993
C   C74       1.0  0.87750  0.82520  0.63870  1.0000 -0.1121602993
C   C75       1.0  0.82520  0.63870  0.87750  1.0000 -0.1121602993
C   C76       1.0  0.36130  0.12250  0.17480  1.0000 -0.1121602993
C   C77       1.0  0.12250  0.17480  0.36130  1.0000 -0.1121602993
C   C78       1.0  0.17480  0.36130  0.12250  1.0000 -0.1121602993
C   C79       1.0  0.64290  0.81920  0.89040  1.0000 -0.124149455
C   C80       1.0  0.81920  0.89040  0.64290  1.0000 -0.124149455
C   C81       1.0  0.89040  0.64290  0.81920  1.0000 -0.124149455
C   C82       1.0  0.35710  0.18080  0.10960  1.0000 -0.124149455
C   C83       1.0  0.18080  0.10960  0.35710  1.0000 -0.124149455
C   C84       1.0  0.10960  0.35710  0.18080  1.0000 -0.124149455
N   N1        1.0  0.59570  0.90220  0.23200  1.0000 -0.3687919058
N   N2        1.0  0.90220  0.23200  0.59570  1.0000 -0.3687919058
N   N3        1.0  0.23200  0.59570  0.90220  1.0000 -0.3687919058
N   N4        1.0  0.40430  0.09780  0.76800  1.0000 -0.3687919058
N   N5        1.0  0.09780  0.76800  0.40430  1.0000 -0.3687919058
N   N6        1.0  0.76800  0.40430  0.09780  1.0000 -0.3687919058
N   N7        1.0  0.72160  0.05720  0.14880  1.0000 -0.3555255585
N   N8        1.0  0.05720  0.14880  0.72160  1.0000 -0.3555255585
N   N9        1.0  0.14880  0.72160  0.05720  1.0000 -0.3555255585
N   N10       1.0  0.27840  0.94280  0.85120  1.0000 -0.3555255585
N   N11       1.0  0.94280  0.85120  0.27840  1.0000 -0.3555255585
N   N12       1.0  0.85120  0.27840  0.94280  1.0000 -0.3555255585
N   N13       1.0  0.41590  0.79640  0.13330  1.0000 -0.3687919058
N   N14       1.0  0.79640  0.13330  0.41590  1.0000 -0.3687919058
N   N15       1.0  0.13330  0.41590  0.79640  1.0000 -0.3687919058
N   N16       1.0  0.58410  0.20360  0.86670  1.0000 -0.3687919058
N   N17       1.0  0.20360  0.86670  0.58410  1.0000 -0.3687919058
N   N18       1.0  0.86670  0.58410  0.20360  1.0000 -0.3687919058
N   N19       1.0  0.71510  0.14510  0.04160  1.0000 -0.349704703
N   N20       1.0  0.14510  0.04160  0.71510  1.0000 -0.349704703
N   N21       1.0  0.04160  0.71510  0.14510  1.0000 -0.349704703
N   N22       1.0  0.28490  0.85490  0.95840  1.0000 -0.349704703
N   N23       1.0  0.85490  0.95840  0.28490  1.0000 -0.349704703
N   N24       1.0  0.95840  0.28490  0.85490  1.0000 -0.349704703
