# DDEC6 charges by PACMAN v1.1 (https://github.com/mtap-research/PACMAN-charge/)
data_2006[Mg][dia]3[ASR]3
_chemical_formula_sum              "Mg12 H24 C24 O48"
_cell_length_a       11.3805
_cell_length_b       9.8406
_cell_length_c       18.2126
_cell_angle_alpha    90
_cell_angle_beta     127.229
_cell_angle_gamma    90

_symmetry_space_group_name_H-M    "P 1"
_symmetry_Int_Tables_number       1

loop_
  _symmetry_equiv_pos_as_xyz
  'x, y, z'

loop_
  _atom_site_type_symbol
  _atom_site_label
  _atom_site_symmetry_multiplicity
  _atom_site_fract_x
  _atom_site_fract_y
  _atom_site_fract_z
  _atom_site_occupancy
  _atom_site_charge
Mg  Mg1       1.0  0.62210  0.41905  0.36563  1.0000 1.3117216214
Mg  Mg2       1.0  0.37790  0.91905  0.13437  1.0000 1.3117216214
Mg  Mg3       1.0  0.37790  0.58095  0.63437  1.0000 1.3117216214
Mg  Mg4       1.0  0.62210  0.08095  0.86563  1.0000 1.3117216214
Mg  Mg5       1.0  0.50000  0.50000  0.50000  1.0000 1.3010269984
Mg  Mg6       1.0  0.50000  0.00000  0.00000  1.0000 1.3010269984
Mg  Mg7       1.0  0.42869  0.60922  0.18940  1.0000 1.2783097609
Mg  Mg8       1.0  0.57131  0.10922  0.31060  1.0000 1.2783097609
Mg  Mg9       1.0  0.57131  0.39078  0.81060  1.0000 1.2783097609
Mg  Mg10      1.0  0.42869  0.89078  0.68940  1.0000 1.2783097609
Mg  Mg11      1.0  1.00000  0.50000  0.50000  1.0000 1.3010269984
Mg  Mg12      1.0  0.00000  0.00000  0.00000  1.0000 1.3010269984
H   H1        1.0  0.21610  0.53870  0.23690  1.0000 0.0823050449
H   H2        1.0  0.78390  0.03870  0.26310  1.0000 0.0823050449
H   H3        1.0  0.78390  0.46130  0.76310  1.0000 0.0823050449
H   H4        1.0  0.21610  0.96130  0.73690  1.0000 0.0823050449
H   H5        1.0  0.51700  0.11930  0.45680  1.0000 0.0823050449
H   H6        1.0  0.48300  0.61930  0.04320  1.0000 0.0823050449
H   H7        1.0  0.48300  0.88070  0.54320  1.0000 0.0823050449
H   H8        1.0  0.51700  0.38070  0.95680  1.0000 0.0823050449
H   H9        1.0  0.97720  0.20600  0.48110  1.0000 0.0874196239
H   H10       1.0  0.02280  0.70600  0.01890  1.0000 0.0874196239
H   H11       1.0  0.02280  0.79400  0.51890  1.0000 0.0874196239
H   H12       1.0  0.97720  0.29400  0.98110  1.0000 0.0874196239
H   H13       1.0  0.48990  0.25880  0.13100  1.0000 0.0874196239
H   H14       1.0  0.51010  0.75880  0.36900  1.0000 0.0874196239
H   H15       1.0  0.51010  0.74120  0.86900  1.0000 0.0874196239
H   H16       1.0  0.48990  0.24120  0.63100  1.0000 0.0874196239
H   H17       1.0  0.77020  0.65340  0.57090  1.0000 0.0823050449
H   H18       1.0  0.22980  0.15340  0.92910  1.0000 0.0823050449
H   H19       1.0  0.22980  0.34660  0.42910  1.0000 0.0823050449
H   H20       1.0  0.77020  0.84660  0.07090  1.0000 0.0823050449
H   H21       1.0  0.74660  0.69850  0.27300  1.0000 0.0874196239
H   H22       1.0  0.25340  0.19850  0.22700  1.0000 0.0874196239
H   H23       1.0  0.25340  0.30150  0.72700  1.0000 0.0874196239
H   H24       1.0  0.74660  0.80150  0.77300  1.0000 0.0874196239
C   C1        1.0  0.30984  0.51646  0.28931  1.0000 0.5187803492
C   C2        1.0  0.69016  0.01646  0.21069  1.0000 0.5187803492
C   C3        1.0  0.69016  0.48354  0.71069  1.0000 0.5187803492
C   C4        1.0  0.30984  0.98354  0.78931  1.0000 0.5187803492
C   C5        1.0  0.52525  0.21114  0.44862  1.0000 0.5187803492
C   C6        1.0  0.47475  0.71114  0.05138  1.0000 0.5187803492
C   C7        1.0  0.47475  0.78886  0.55138  1.0000 0.5187803492
C   C8        1.0  0.52525  0.28886  0.94862  1.0000 0.5187803492
C   C9        1.0  0.87634  0.22355  0.44295  1.0000 0.5311402067
C   C10       1.0  0.12366  0.72355  0.05705  1.0000 0.5311402067
C   C11       1.0  0.12366  0.77645  0.55705  1.0000 0.5311402067
C   C12       1.0  0.87634  0.27645  0.94295  1.0000 0.5311402067
C   C13       1.0  0.49751  0.32743  0.16875  1.0000 0.5311402067
C   C14       1.0  0.50249  0.82743  0.33125  1.0000 0.5311402067
C   C15       1.0  0.50249  0.67257  0.83125  1.0000 0.5311402067
C   C16       1.0  0.49751  0.17257  0.66875  1.0000 0.5311402067
C   C17       1.0  0.77204  0.59788  0.53030  1.0000 0.5311402067
C   C18       1.0  0.22796  0.09788  0.96970  1.0000 0.5311402067
C   C19       1.0  0.22796  0.40212  0.46970  1.0000 0.5311402067
C   C20       1.0  0.77204  0.90212  0.03030  1.0000 0.5311402067
C   C21       1.0  0.76438  0.63435  0.31616  1.0000 0.5187803492
C   C22       1.0  0.23562  0.13435  0.18384  1.0000 0.5187803492
C   C23       1.0  0.23562  0.36565  0.68384  1.0000 0.5187803492
C   C24       1.0  0.76438  0.86565  0.81616  1.0000 0.5187803492
O   O1        1.0  0.41127  0.50375  0.28018  1.0000 -0.6792402544
O   O2        1.0  0.58873  0.00375  0.21982  1.0000 -0.6792402544
O   O3        1.0  0.58873  0.49625  0.71982  1.0000 -0.6792402544
O   O4        1.0  0.41127  0.99625  0.78018  1.0000 -0.6792402544
O   O5        1.0  0.32522  0.50172  0.36212  1.0000 -0.5722476558
O   O6        1.0  0.67478  0.00172  0.13788  1.0000 -0.5722476558
O   O7        1.0  0.67478  0.49828  0.63788  1.0000 -0.5722476558
O   O8        1.0  0.32522  0.99828  0.86212  1.0000 -0.5722476558
O   O9        1.0  0.54676  0.24187  0.38954  1.0000 -0.6792402544
O   O10       1.0  0.45324  0.74187  0.11046  1.0000 -0.6792402544
O   O11       1.0  0.45324  0.75813  0.61046  1.0000 -0.6792402544
O   O12       1.0  0.54676  0.25813  0.88954  1.0000 -0.6792402544
O   O13       1.0  0.51441  0.29229  0.49604  1.0000 -0.5808247939
O   O14       1.0  0.48559  0.79229  0.00396  1.0000 -0.5808247939
O   O15       1.0  0.48559  0.70771  0.50396  1.0000 -0.5808247939
O   O16       1.0  0.51441  0.20771  0.99604  1.0000 -0.5808247939
O   O17       1.0  0.83653  0.34726  0.43667  1.0000 -0.6722795979
O   O18       1.0  0.16347  0.84726  0.06333  1.0000 -0.6722795979
O   O19       1.0  0.16347  0.65274  0.56333  1.0000 -0.6722795979
O   O20       1.0  0.83653  0.15274  0.93667  1.0000 -0.6722795979
O   O21       1.0  0.79300  0.12511  0.40292  1.0000 -0.5808247939
O   O22       1.0  0.20700  0.62511  0.09708  1.0000 -0.5808247939
O   O23       1.0  0.20700  0.87489  0.59708  1.0000 -0.5808247939
O   O24       1.0  0.79300  0.37489  0.90292  1.0000 -0.5808247939
O   O25       1.0  0.56061  0.29732  0.25313  1.0000 -0.6792402544
O   O26       1.0  0.43939  0.79732  0.24687  1.0000 -0.6792402544
O   O27       1.0  0.43939  0.70268  0.74687  1.0000 -0.6792402544
O   O28       1.0  0.56061  0.20268  0.75313  1.0000 -0.6792402544
O   O29       1.0  0.44545  0.44012  0.13259  1.0000 -0.5869602576
O   O30       1.0  0.55455  0.94012  0.36741  1.0000 -0.5869602576
O   O31       1.0  0.55455  0.55988  0.86741  1.0000 -0.5869602576
O   O32       1.0  0.44545  0.05988  0.63259  1.0000 -0.5869602576
O   O33       1.0  0.65811  0.52389  0.47534  1.0000 -0.6895473317
O   O34       1.0  0.34189  0.02389  0.02466  1.0000 -0.6895473317
O   O35       1.0  0.34189  0.47611  0.52466  1.0000 -0.6895473317
O   O36       1.0  0.65811  0.97611  0.97534  1.0000 -0.6895473317
O   O37       1.0  0.88392  0.60195  0.53411  1.0000 -0.5869602576
O   O38       1.0  0.11608  0.10195  0.96589  1.0000 -0.5869602576
O   O39       1.0  0.11608  0.39805  0.46589  1.0000 -0.5869602576
O   O40       1.0  0.88392  0.89805  0.03411  1.0000 -0.5869602576
O   O41       1.0  0.65168  0.57942  0.30339  1.0000 -0.6792402544
O   O42       1.0  0.34832  0.07942  0.19661  1.0000 -0.6792402544
O   O43       1.0  0.34832  0.42058  0.69661  1.0000 -0.6792402544
O   O44       1.0  0.65168  0.92058  0.80339  1.0000 -0.6792402544
O   O45       1.0  0.89459  0.61049  0.38031  1.0000 -0.5633883491
O   O46       1.0  0.10541  0.11049  0.11969  1.0000 -0.5633883491
O   O47       1.0  0.10541  0.38951  0.61969  1.0000 -0.5633883491
O   O48       1.0  0.89459  0.88951  0.88031  1.0000 -0.5633883491
