# DDEC6 charges by PACMAN v1.1 (https://github.com/mtap-research/PACMAN-charge/)
data_2006[Dy][nan]3[ASR]2
_chemical_formula_sum              "Dy4 H12 C36 O24"
_cell_length_a       10.3131
_cell_length_b       10.3131
_cell_length_c       14.495
_cell_angle_alpha    90
_cell_angle_beta     90
_cell_angle_gamma    90

_symmetry_space_group_name_H-M    "P 1"
_symmetry_Int_Tables_number       1

loop_
  _symmetry_equiv_pos_as_xyz
  'x, y, z'

loop_
  _atom_site_type_symbol
  _atom_site_label
  _atom_site_symmetry_multiplicity
  _atom_site_fract_x
  _atom_site_fract_y
  _atom_site_fract_z
  _atom_site_occupancy
  _atom_site_charge
Dy  Dy1       1.0  0.35089  0.35089  0.12500  1.0000 2.1193817745
Dy  Dy2       1.0  0.64911  0.64911  0.62500  1.0000 2.1193817745
Dy  Dy3       1.0  0.64911  0.35089  0.87500  1.0000 2.1193817745
Dy  Dy4       1.0  0.35089  0.64911  0.37500  1.0000 2.1193817745
H   H1        1.0  0.41730  0.93950  0.12530  1.0000 0.1383248012
H   H2        1.0  0.58270  0.06050  0.62530  1.0000 0.1383248012
H   H3        1.0  0.06050  0.41730  0.87530  1.0000 0.1383248012
H   H4        1.0  0.93950  0.58270  0.37530  1.0000 0.1383248012
H   H5        1.0  0.58270  0.93950  0.87470  1.0000 0.1383248012
H   H6        1.0  0.41730  0.06050  0.37470  1.0000 0.1383248012
H   H7        1.0  0.93950  0.41730  0.12470  1.0000 0.1383248012
H   H8        1.0  0.06050  0.58270  0.62470  1.0000 0.1383248012
H   H9        1.0  0.50000  0.60190  0.00000  1.0000 0.1082532371
H   H10       1.0  0.50000  0.39810  0.50000  1.0000 0.1082532371
H   H11       1.0  0.39810  0.50000  0.75000  1.0000 0.1082532371
H   H12       1.0  0.60190  0.50000  0.25000  1.0000 0.1082532371
C   C1        1.0  0.50000  0.10750  0.00000  1.0000 0.6767351519
C   C2        1.0  0.50000  0.89250  0.50000  1.0000 0.6767351519
C   C3        1.0  0.89250  0.50000  0.75000  1.0000 0.6767351519
C   C4        1.0  0.10750  0.50000  0.25000  1.0000 0.6767351519
C   C5        1.0  0.50000  0.96230  0.00000  1.0000 -0.0513873135
C   C6        1.0  0.50000  0.03770  0.50000  1.0000 -0.0513873135
C   C7        1.0  0.03770  0.50000  0.75000  1.0000 -0.0513873135
C   C8        1.0  0.96230  0.50000  0.25000  1.0000 -0.0513873135
C   C9        1.0  0.45200  0.89440  0.07560  1.0000 -0.0937387047
C   C10       1.0  0.54800  0.10560  0.57560  1.0000 -0.0937387047
C   C11       1.0  0.10560  0.45200  0.82560  1.0000 -0.0937387047
C   C12       1.0  0.89440  0.54800  0.32560  1.0000 -0.0937387047
C   C13       1.0  0.54800  0.89440  0.92440  1.0000 -0.0937387047
C   C14       1.0  0.45200  0.10560  0.42440  1.0000 -0.0937387047
C   C15       1.0  0.89440  0.45200  0.17440  1.0000 -0.0937387047
C   C16       1.0  0.10560  0.54800  0.67440  1.0000 -0.0937387047
C   C17       1.0  0.45550  0.76100  0.07730  1.0000 -0.0344811805
C   C18       1.0  0.54450  0.23900  0.57730  1.0000 -0.0344811805
C   C19       1.0  0.23900  0.45550  0.82730  1.0000 -0.0350132041
C   C20       1.0  0.76100  0.54450  0.32730  1.0000 -0.0344811805
C   C21       1.0  0.54450  0.76100  0.92270  1.0000 -0.0344811805
C   C22       1.0  0.45550  0.23900  0.42270  1.0000 -0.0344811805
C   C23       1.0  0.76100  0.45550  0.17270  1.0000 -0.0344811805
C   C24       1.0  0.23900  0.54450  0.67270  1.0000 -0.0344811805
C   C25       1.0  0.50000  0.69210  0.00000  1.0000 -0.1097005193
C   C26       1.0  0.50000  0.30790  0.50000  1.0000 -0.1097005193
C   C27       1.0  0.30790  0.50000  0.75000  1.0000 -0.1097005193
C   C28       1.0  0.69210  0.50000  0.25000  1.0000 -0.1097005193
C   C29       1.0  0.41030  0.68380  0.16000  1.0000 0.6409952531
C   C30       1.0  0.58970  0.31620  0.66000  1.0000 0.6409952531
C   C31       1.0  0.31620  0.41030  0.91000  1.0000 0.6409952531
C   C32       1.0  0.68380  0.58970  0.41000  1.0000 0.6409952531
C   C33       1.0  0.58970  0.68380  0.84000  1.0000 0.6409952531
C   C34       1.0  0.41030  0.31620  0.34000  1.0000 0.6409952531
C   C35       1.0  0.68380  0.41030  0.09000  1.0000 0.6409952531
C   C36       1.0  0.31620  0.58970  0.59000  1.0000 0.6409952531
O   O1        1.0  0.42870  0.16470  0.05890  1.0000 -0.7055908103
O   O2        1.0  0.57130  0.83530  0.55890  1.0000 -0.7055908103
O   O3        1.0  0.83530  0.42870  0.80890  1.0000 -0.7055908103
O   O4        1.0  0.16470  0.57130  0.30890  1.0000 -0.7055908103
O   O5        1.0  0.57130  0.16470  0.94110  1.0000 -0.7055908103
O   O6        1.0  0.42870  0.83530  0.44110  1.0000 -0.7055908103
O   O7        1.0  0.16470  0.42870  0.19110  1.0000 -0.7055908103
O   O8        1.0  0.83530  0.57130  0.69110  1.0000 -0.7055908103
O   O9        1.0  0.40280  0.74280  0.23480  1.0000 -0.6521797736
O   O10       1.0  0.59720  0.25720  0.73480  1.0000 -0.6521797736
O   O11       1.0  0.25720  0.40280  0.98480  1.0000 -0.6521797736
O   O12       1.0  0.74280  0.59720  0.48480  1.0000 -0.6521797736
O   O13       1.0  0.59720  0.74280  0.76520  1.0000 -0.6521797736
O   O14       1.0  0.40280  0.25720  0.26520  1.0000 -0.6521797736
O   O15       1.0  0.74280  0.40280  0.01520  1.0000 -0.6521797736
O   O16       1.0  0.25720  0.59720  0.51520  1.0000 -0.6521797736
O   O17       1.0  0.38760  0.56900  0.14970  1.0000 -0.6646407951
O   O18       1.0  0.61240  0.43100  0.64970  1.0000 -0.6646407951
O   O19       1.0  0.43100  0.38760  0.89970  1.0000 -0.6651677002
O   O20       1.0  0.56900  0.61240  0.39970  1.0000 -0.6651677002
O   O21       1.0  0.61240  0.56900  0.85030  1.0000 -0.6651677002
O   O22       1.0  0.38760  0.43100  0.35030  1.0000 -0.6651677002
O   O23       1.0  0.56900  0.38760  0.10030  1.0000 -0.6646407951
O   O24       1.0  0.43100  0.61240  0.60030  1.0000 -0.6646407951
