# DDEC6 charges by PACMAN v1.1 (https://github.com/mtap-research/PACMAN-charge/)
data_2006[Cu][srs]3[ASR]1
_chemical_formula_sum              "Cu8 H112 C120 N16 O16"
_cell_length_a       21.435
_cell_length_b       21.435
_cell_length_c       11.382
_cell_angle_alpha    90
_cell_angle_beta     90
_cell_angle_gamma    90

_symmetry_space_group_name_H-M    "P 1"
_symmetry_Int_Tables_number       1

loop_
  _symmetry_equiv_pos_as_xyz
  'x, y, z'

loop_
  _atom_site_type_symbol
  _atom_site_label
  _atom_site_symmetry_multiplicity
  _atom_site_fract_x
  _atom_site_fract_y
  _atom_site_fract_z
  _atom_site_occupancy
  _atom_site_charge
Cu  Cu1       1.0  0.81194  0.00000  0.75000  1.0000 0.4876426249
Cu  Cu2       1.0  0.50000  0.68806  0.25000  1.0000 0.4876426249
Cu  Cu3       1.0  0.50000  0.31194  0.25000  1.0000 0.4876426249
Cu  Cu4       1.0  0.18806  0.00000  0.75000  1.0000 0.4876426249
Cu  Cu5       1.0  0.68806  0.50000  0.75000  1.0000 0.4876426249
Cu  Cu6       1.0  0.00000  0.81194  0.25000  1.0000 0.4876426249
Cu  Cu7       1.0  0.00000  0.18806  0.25000  1.0000 0.4876426249
Cu  Cu8       1.0  0.31194  0.50000  0.75000  1.0000 0.4876426249
H   H1        1.0  0.69110  0.06720  0.79190  1.0000 0.1068876269
H   H2        1.0  0.56720  0.80890  0.29190  1.0000 0.1068876269
H   H3        1.0  0.43280  0.19110  0.29190  1.0000 0.1068876269
H   H4        1.0  0.56720  0.19110  0.20810  1.0000 0.1068876269
H   H5        1.0  0.30890  0.93280  0.79190  1.0000 0.1068876269
H   H6        1.0  0.69110  0.93280  0.70810  1.0000 0.1068876269
H   H7        1.0  0.30890  0.06720  0.70810  1.0000 0.1068876269
H   H8        1.0  0.43280  0.80890  0.20810  1.0000 0.1068876269
H   H9        1.0  0.62060  0.12730  0.69210  1.0000 0.1317566163
H   H10       1.0  0.62730  0.87940  0.19210  1.0000 0.1317566163
H   H11       1.0  0.37270  0.12060  0.19210  1.0000 0.1317566163
H   H12       1.0  0.62730  0.12060  0.30790  1.0000 0.1317566163
H   H13       1.0  0.37940  0.87270  0.69210  1.0000 0.1317566163
H   H14       1.0  0.62060  0.87270  0.80790  1.0000 0.1317566163
H   H15       1.0  0.37940  0.12730  0.80790  1.0000 0.1317566163
H   H16       1.0  0.37270  0.87940  0.30790  1.0000 0.1317566163
H   H17       1.0  0.72270  0.10030  0.39910  1.0000 0.1364285476
H   H18       1.0  0.60030  0.77730  0.89910  1.0000 0.1364285476
H   H19       1.0  0.39970  0.22270  0.89910  1.0000 0.1364285476
H   H20       1.0  0.60030  0.22270  0.60090  1.0000 0.1364285476
H   H21       1.0  0.27730  0.89970  0.39910  1.0000 0.1364285476
H   H22       1.0  0.72270  0.89970  0.10090  1.0000 0.1364285476
H   H23       1.0  0.27730  0.10030  0.10090  1.0000 0.1364285476
H   H24       1.0  0.39970  0.77730  0.60090  1.0000 0.1364285476
H   H25       1.0  0.78890  0.03980  0.50890  1.0000 0.121042254
H   H26       1.0  0.53980  0.71110  0.00890  1.0000 0.121042254
H   H27       1.0  0.46020  0.28890  0.00890  1.0000 0.121042254
H   H28       1.0  0.53980  0.28890  0.49110  1.0000 0.121042254
H   H29       1.0  0.21110  0.96020  0.50890  1.0000 0.121042254
H   H30       1.0  0.78890  0.96020  0.99110  1.0000 0.121042254
H   H31       1.0  0.21110  0.03980  0.99110  1.0000 0.121042254
H   H32       1.0  0.46020  0.71110  0.49110  1.0000 0.121042254
H   H33       1.0  0.94520  0.89940  0.96130  1.0000 0.148368252
H   H34       1.0  0.39940  0.55480  0.46130  1.0000 0.148368252
H   H35       1.0  0.60060  0.44520  0.46130  1.0000 0.148368252
H   H36       1.0  0.39940  0.44520  0.03870  1.0000 0.148368252
H   H37       1.0  0.05480  0.10060  0.96130  1.0000 0.148368252
H   H38       1.0  0.94520  0.10060  0.53870  1.0000 0.148368252
H   H39       1.0  0.05480  0.89940  0.53870  1.0000 0.148368252
H   H40       1.0  0.60060  0.55480  0.03870  1.0000 0.148368252
H   H41       1.0  0.00880  0.92510  0.91360  1.0000 0.148368252
H   H42       1.0  0.42510  0.49120  0.41360  1.0000 0.148368252
H   H43       1.0  0.57490  0.50880  0.41360  1.0000 0.148368252
H   H44       1.0  0.42510  0.50880  0.08640  1.0000 0.148368252
H   H45       1.0  0.99120  0.07490  0.91360  1.0000 0.148368252
H   H46       1.0  0.00880  0.07490  0.58640  1.0000 0.148368252
H   H47       1.0  0.99120  0.92510  0.58640  1.0000 0.148368252
H   H48       1.0  0.57490  0.49120  0.08640  1.0000 0.148368252
H   H49       1.0  0.97440  0.87120  0.84670  1.0000 0.148368252
H   H50       1.0  0.37120  0.52560  0.34670  1.0000 0.148368252
H   H51       1.0  0.62880  0.47440  0.34670  1.0000 0.148368252
H   H52       1.0  0.37120  0.47440  0.15330  1.0000 0.148368252
H   H53       1.0  0.02560  0.12880  0.84670  1.0000 0.148368252
H   H54       1.0  0.97440  0.12880  0.65330  1.0000 0.148368252
H   H55       1.0  0.02560  0.87120  0.65330  1.0000 0.148368252
H   H56       1.0  0.62880  0.52560  0.15330  1.0000 0.148368252
H   H57       1.0  0.80890  0.43280  0.70810  1.0000 0.1068876269
H   H58       1.0  0.93280  0.69110  0.20810  1.0000 0.1068876269
H   H59       1.0  0.06720  0.30890  0.20810  1.0000 0.1068876269
H   H60       1.0  0.93280  0.30890  0.29190  1.0000 0.1068876269
H   H61       1.0  0.19110  0.56720  0.70810  1.0000 0.1068876269
H   H62       1.0  0.80890  0.56720  0.79190  1.0000 0.1068876269
H   H63       1.0  0.19110  0.43280  0.79190  1.0000 0.1068876269
H   H64       1.0  0.06720  0.69110  0.29190  1.0000 0.1068876269
H   H65       1.0  0.87940  0.37270  0.80790  1.0000 0.1317566163
H   H66       1.0  0.87270  0.62060  0.30790  1.0000 0.1317566163
H   H67       1.0  0.12730  0.37940  0.30790  1.0000 0.1317566163
H   H68       1.0  0.87270  0.37940  0.19210  1.0000 0.1317566163
H   H69       1.0  0.12060  0.62730  0.80790  1.0000 0.1317566163
H   H70       1.0  0.87940  0.62730  0.69210  1.0000 0.1317566163
H   H71       1.0  0.12060  0.37270  0.69210  1.0000 0.1317566163
H   H72       1.0  0.12730  0.62060  0.19210  1.0000 0.1317566163
H   H73       1.0  0.77730  0.39970  0.10090  1.0000 0.1364285476
H   H74       1.0  0.89970  0.72270  0.60090  1.0000 0.1364285476
H   H75       1.0  0.10030  0.27730  0.60090  1.0000 0.1364285476
H   H76       1.0  0.89970  0.27730  0.89910  1.0000 0.1364285476
H   H77       1.0  0.22270  0.60030  0.10090  1.0000 0.1364285476
H   H78       1.0  0.77730  0.60030  0.39910  1.0000 0.1364285476
H   H79       1.0  0.22270  0.39970  0.39910  1.0000 0.1364285476
H   H80       1.0  0.10030  0.72270  0.89910  1.0000 0.1364285476
H   H81       1.0  0.71110  0.46020  0.99110  1.0000 0.121042254
H   H82       1.0  0.96020  0.78890  0.49110  1.0000 0.121042254
H   H83       1.0  0.03980  0.21110  0.49110  1.0000 0.121042254
H   H84       1.0  0.96020  0.21110  0.00890  1.0000 0.121042254
H   H85       1.0  0.28890  0.53980  0.99110  1.0000 0.121042254
H   H86       1.0  0.71110  0.53980  0.50890  1.0000 0.121042254
H   H87       1.0  0.28890  0.46020  0.50890  1.0000 0.121042254
H   H88       1.0  0.03980  0.78890  0.00890  1.0000 0.121042254
H   H89       1.0  0.55480  0.60060  0.53870  1.0000 0.148368252
H   H90       1.0  0.10060  0.94520  0.03870  1.0000 0.148368252
H   H91       1.0  0.89940  0.05480  0.03870  1.0000 0.148368252
H   H92       1.0  0.10060  0.05480  0.46130  1.0000 0.148368252
H   H93       1.0  0.44520  0.39940  0.53870  1.0000 0.148368252
H   H94       1.0  0.55480  0.39940  0.96130  1.0000 0.148368252
H   H95       1.0  0.44520  0.60060  0.96130  1.0000 0.148368252
H   H96       1.0  0.89940  0.94520  0.46130  1.0000 0.148368252
H   H97       1.0  0.49120  0.57490  0.58640  1.0000 0.148368252
H   H98       1.0  0.07490  0.00880  0.08640  1.0000 0.148368252
H   H99       1.0  0.92510  0.99120  0.08640  1.0000 0.148368252
H   H100      1.0  0.07490  0.99120  0.41360  1.0000 0.148368252
H   H101      1.0  0.50880  0.42510  0.58640  1.0000 0.148368252
H   H102      1.0  0.49120  0.42510  0.91360  1.0000 0.148368252
H   H103      1.0  0.50880  0.57490  0.91360  1.0000 0.148368252
H   H104      1.0  0.92510  0.00880  0.41360  1.0000 0.148368252
H   H105      1.0  0.52560  0.62880  0.65330  1.0000 0.148368252
H   H106      1.0  0.12880  0.97440  0.15330  1.0000 0.148368252
H   H107      1.0  0.87120  0.02560  0.15330  1.0000 0.148368252
H   H108      1.0  0.12880  0.02560  0.34670  1.0000 0.148368252
H   H109      1.0  0.47440  0.37120  0.65330  1.0000 0.148368252
H   H110      1.0  0.52560  0.37120  0.84670  1.0000 0.148368252
H   H111      1.0  0.47440  0.62880  0.84670  1.0000 0.148368252
H   H112      1.0  0.87120  0.97440  0.34670  1.0000 0.148368252
C   C1        1.0  0.69710  0.07400  0.71210  1.0000 0.0561066191
C   C2        1.0  0.57400  0.80290  0.21210  1.0000 0.0561066191
C   C3        1.0  0.42600  0.19710  0.21210  1.0000 0.0561066191
C   C4        1.0  0.57400  0.19710  0.28790  1.0000 0.0561066191
C   C5        1.0  0.30290  0.92600  0.71210  1.0000 0.0561066191
C   C6        1.0  0.69710  0.92600  0.78790  1.0000 0.0561066191
C   C7        1.0  0.30290  0.07400  0.78790  1.0000 0.0561066191
C   C8        1.0  0.42600  0.80290  0.28790  1.0000 0.0561066191
C   C9        1.0  0.65480  0.11050  0.65310  1.0000 -0.2007946302
C   C10       1.0  0.61050  0.84520  0.15310  1.0000 -0.2007946302
C   C11       1.0  0.38950  0.15480  0.15310  1.0000 -0.2007946302
C   C12       1.0  0.61050  0.15480  0.34690  1.0000 -0.2007946302
C   C13       1.0  0.34520  0.88950  0.65310  1.0000 -0.2007946302
C   C14       1.0  0.65480  0.88950  0.84690  1.0000 -0.2007946302
C   C15       1.0  0.34520  0.11050  0.84690  1.0000 -0.2007946302
C   C16       1.0  0.38950  0.84520  0.34690  1.0000 -0.2007946302
C   C17       1.0  0.66410  0.12220  0.53380  1.0000 0.0943697724
C   C18       1.0  0.62220  0.83590  0.03380  1.0000 0.0943697724
C   C19       1.0  0.37780  0.16410  0.03380  1.0000 0.0943697724
C   C20       1.0  0.62220  0.16410  0.46620  1.0000 0.0943697724
C   C21       1.0  0.33590  0.87780  0.53380  1.0000 0.0943697724
C   C22       1.0  0.66410  0.87780  0.96620  1.0000 0.0943697724
C   C23       1.0  0.33590  0.12220  0.96620  1.0000 0.0943697724
C   C24       1.0  0.37780  0.83590  0.46620  1.0000 0.0943697724
C   C25       1.0  0.71540  0.09440  0.47880  1.0000 -0.2066523521
C   C26       1.0  0.59440  0.78460  0.97880  1.0000 -0.2066523521
C   C27       1.0  0.40560  0.21540  0.97880  1.0000 -0.2066523521
C   C28       1.0  0.59440  0.21540  0.52120  1.0000 -0.2066523521
C   C29       1.0  0.28460  0.90560  0.47880  1.0000 -0.2066523521
C   C30       1.0  0.71540  0.90560  0.02120  1.0000 -0.2066523521
C   C31       1.0  0.28460  0.09440  0.02120  1.0000 -0.2066523521
C   C32       1.0  0.40560  0.78460  0.52120  1.0000 -0.2066523521
C   C33       1.0  0.75480  0.05800  0.54570  1.0000 0.0824707053
C   C34       1.0  0.55800  0.74520  0.04570  1.0000 0.0824707053
C   C35       1.0  0.44200  0.25480  0.04570  1.0000 0.0824707053
C   C36       1.0  0.55800  0.25480  0.45430  1.0000 0.0824707053
C   C37       1.0  0.24520  0.94200  0.54570  1.0000 0.0824707053
C   C38       1.0  0.75480  0.94200  0.95430  1.0000 0.0824707053
C   C39       1.0  0.24520  0.05800  0.95430  1.0000 0.0824707053
C   C40       1.0  0.44200  0.74520  0.45430  1.0000 0.0824707053
C   C41       1.0  0.93380  0.95660  0.81860  1.0000 0.3888844526
C   C42       1.0  0.45660  0.56620  0.31860  1.0000 0.3888844526
C   C43       1.0  0.54340  0.43380  0.31860  1.0000 0.3888844526
C   C44       1.0  0.45660  0.43380  0.18140  1.0000 0.3888844526
C   C45       1.0  0.06620  0.04340  0.81860  1.0000 0.3888844526
C   C46       1.0  0.93380  0.04340  0.68140  1.0000 0.3888844526
C   C47       1.0  0.06620  0.95660  0.68140  1.0000 0.3888844526
C   C48       1.0  0.54340  0.56620  0.18140  1.0000 0.3888844526
C   C49       1.0  0.96460  0.00000  0.75000  1.0000 -0.2327507199
C   C50       1.0  0.50000  0.53540  0.25000  1.0000 -0.2327507199
C   C51       1.0  0.50000  0.46460  0.25000  1.0000 -0.2327507199
C   C52       1.0  0.03540  0.00000  0.75000  1.0000 -0.2327507199
C   C53       1.0  0.96870  0.90870  0.89180  1.0000 -0.5435959944
C   C54       1.0  0.40870  0.53130  0.39180  1.0000 -0.5435959944
C   C55       1.0  0.59130  0.46870  0.39180  1.0000 -0.5435959944
C   C56       1.0  0.40870  0.46870  0.10820  1.0000 -0.5435959944
C   C57       1.0  0.03130  0.09130  0.89180  1.0000 -0.5435959944
C   C58       1.0  0.96870  0.09130  0.60820  1.0000 -0.5435959944
C   C59       1.0  0.03130  0.90870  0.60820  1.0000 -0.5435959944
C   C60       1.0  0.59130  0.53130  0.10820  1.0000 -0.5435959944
C   C61       1.0  0.80290  0.42600  0.78790  1.0000 0.0561066191
C   C62       1.0  0.92600  0.69710  0.28790  1.0000 0.0561066191
C   C63       1.0  0.07400  0.30290  0.28790  1.0000 0.0561066191
C   C64       1.0  0.92600  0.30290  0.21210  1.0000 0.0561066191
C   C65       1.0  0.19710  0.57400  0.78790  1.0000 0.0561066191
C   C66       1.0  0.80290  0.57400  0.71210  1.0000 0.0561066191
C   C67       1.0  0.19710  0.42600  0.71210  1.0000 0.0561066191
C   C68       1.0  0.07400  0.69710  0.21210  1.0000 0.0561066191
C   C69       1.0  0.84520  0.38950  0.84690  1.0000 -0.2007946302
C   C70       1.0  0.88950  0.65480  0.34690  1.0000 -0.2007946302
C   C71       1.0  0.11050  0.34520  0.34690  1.0000 -0.2007946302
C   C72       1.0  0.88950  0.34520  0.15310  1.0000 -0.2007946302
C   C73       1.0  0.15480  0.61050  0.84690  1.0000 -0.2007946302
C   C74       1.0  0.84520  0.61050  0.65310  1.0000 -0.2007946302
C   C75       1.0  0.15480  0.38950  0.65310  1.0000 -0.2007946302
C   C76       1.0  0.11050  0.65480  0.15310  1.0000 -0.2007946302
C   C77       1.0  0.83590  0.37780  0.96620  1.0000 0.0943697724
C   C78       1.0  0.87780  0.66410  0.46620  1.0000 0.0943697724
C   C79       1.0  0.12220  0.33590  0.46620  1.0000 0.0943697724
C   C80       1.0  0.87780  0.33590  0.03380  1.0000 0.0943697724
C   C81       1.0  0.16410  0.62220  0.96620  1.0000 0.0943697724
C   C82       1.0  0.83590  0.62220  0.53380  1.0000 0.0943697724
C   C83       1.0  0.16410  0.37780  0.53380  1.0000 0.0943697724
C   C84       1.0  0.12220  0.66410  0.03380  1.0000 0.0943697724
C   C85       1.0  0.78460  0.40560  0.02120  1.0000 -0.2066523521
C   C86       1.0  0.90560  0.71540  0.52120  1.0000 -0.2066523521
C   C87       1.0  0.09440  0.28460  0.52120  1.0000 -0.2066523521
C   C88       1.0  0.90560  0.28460  0.97880  1.0000 -0.2066523521
C   C89       1.0  0.21540  0.59440  0.02120  1.0000 -0.2066523521
C   C90       1.0  0.78460  0.59440  0.47880  1.0000 -0.2066523521
C   C91       1.0  0.21540  0.40560  0.47880  1.0000 -0.2066523521
C   C92       1.0  0.09440  0.71540  0.97880  1.0000 -0.2066523521
C   C93       1.0  0.74520  0.44200  0.95430  1.0000 0.0824707053
C   C94       1.0  0.94200  0.75480  0.45430  1.0000 0.0824707053
C   C95       1.0  0.05800  0.24520  0.45430  1.0000 0.0824707053
C   C96       1.0  0.94200  0.24520  0.04570  1.0000 0.0824707053
C   C97       1.0  0.25480  0.55800  0.95430  1.0000 0.0824707053
C   C98       1.0  0.74520  0.55800  0.54570  1.0000 0.0824707053
C   C99       1.0  0.25480  0.44200  0.54570  1.0000 0.0824707053
C   C100      1.0  0.05800  0.75480  0.04570  1.0000 0.0824707053
C   C101      1.0  0.56620  0.54340  0.68140  1.0000 0.3888844526
C   C102      1.0  0.04340  0.93380  0.18140  1.0000 0.3888844526
C   C103      1.0  0.95660  0.06620  0.18140  1.0000 0.3888844526
C   C104      1.0  0.04340  0.06620  0.31860  1.0000 0.3888844526
C   C105      1.0  0.43380  0.45660  0.68140  1.0000 0.3888844526
C   C106      1.0  0.56620  0.45660  0.81860  1.0000 0.3888844526
C   C107      1.0  0.43380  0.54340  0.81860  1.0000 0.3888844526
C   C108      1.0  0.95660  0.93380  0.31860  1.0000 0.3888844526
C   C109      1.0  0.53540  0.50000  0.75000  1.0000 -0.2327507199
C   C110      1.0  0.00000  0.96460  0.25000  1.0000 -0.2327507199
C   C111      1.0  0.00000  0.03540  0.25000  1.0000 -0.2327507199
C   C112      1.0  0.46460  0.50000  0.75000  1.0000 -0.2327507199
C   C113      1.0  0.53130  0.59130  0.60820  1.0000 -0.5435959944
C   C114      1.0  0.09130  0.96870  0.10820  1.0000 -0.5435959944
C   C115      1.0  0.90870  0.03130  0.10820  1.0000 -0.5435959944
C   C116      1.0  0.09130  0.03130  0.39180  1.0000 -0.5435959944
C   C117      1.0  0.46870  0.40870  0.60820  1.0000 -0.5435959944
C   C118      1.0  0.53130  0.40870  0.89180  1.0000 -0.5435959944
C   C119      1.0  0.46870  0.59130  0.89180  1.0000 -0.5435959944
C   C120      1.0  0.90870  0.96870  0.39180  1.0000 -0.5435959944
N   N1        1.0  0.74680  0.04760  0.66000  1.0000 -0.23985914
N   N2        1.0  0.54760  0.75320  0.16000  1.0000 -0.23985914
N   N3        1.0  0.45240  0.24680  0.16000  1.0000 -0.23985914
N   N4        1.0  0.54760  0.24680  0.34000  1.0000 -0.23985914
N   N5        1.0  0.25320  0.95240  0.66000  1.0000 -0.23985914
N   N6        1.0  0.74680  0.95240  0.84000  1.0000 -0.23985914
N   N7        1.0  0.25320  0.04760  0.84000  1.0000 -0.23985914
N   N8        1.0  0.45240  0.75320  0.34000  1.0000 -0.23985914
N   N9        1.0  0.75320  0.45240  0.84000  1.0000 -0.23985914
N   N10       1.0  0.95240  0.74680  0.34000  1.0000 -0.23985914
N   N11       1.0  0.04760  0.25320  0.34000  1.0000 -0.23985914
N   N12       1.0  0.95240  0.25320  0.16000  1.0000 -0.23985914
N   N13       1.0  0.24680  0.54760  0.84000  1.0000 -0.23985914
N   N14       1.0  0.75320  0.54760  0.66000  1.0000 -0.23985914
N   N15       1.0  0.24680  0.45240  0.66000  1.0000 -0.23985914
N   N16       1.0  0.04760  0.74680  0.16000  1.0000 -0.23985914
O   O1        1.0  0.87378  0.95130  0.82930  1.0000 -0.4995951861
O   O2        1.0  0.45130  0.62622  0.32930  1.0000 -0.4995951861
O   O3        1.0  0.54870  0.37378  0.32930  1.0000 -0.4995951861
O   O4        1.0  0.45130  0.37378  0.17070  1.0000 -0.4995951861
O   O5        1.0  0.12622  0.04870  0.82930  1.0000 -0.4995951861
O   O6        1.0  0.87378  0.04870  0.67070  1.0000 -0.4995951861
O   O7        1.0  0.12622  0.95130  0.67070  1.0000 -0.4995951861
O   O8        1.0  0.54870  0.62622  0.17070  1.0000 -0.4995951861
O   O9        1.0  0.62622  0.54870  0.67070  1.0000 -0.4995951861
O   O10       1.0  0.04870  0.87378  0.17070  1.0000 -0.4995951861
O   O11       1.0  0.95130  0.12622  0.17070  1.0000 -0.4995951861
O   O12       1.0  0.04870  0.12622  0.32930  1.0000 -0.4995951861
O   O13       1.0  0.37378  0.45130  0.67070  1.0000 -0.4995951861
O   O14       1.0  0.62622  0.45130  0.82930  1.0000 -0.4995951861
O   O15       1.0  0.37378  0.54870  0.82930  1.0000 -0.4995951861
O   O16       1.0  0.95130  0.87378  0.32930  1.0000 -0.4995951861
