# DDEC6 charges by PACMAN v1.1 (https://github.com/mtap-research/PACMAN-charge/)
data_2006[Ga][nan]3[ASR]1
_chemical_formula_sum              "Ga8 P8 C4 O40"
_cell_length_a       8.8691
_cell_length_b       8.8691
_cell_length_c       13.084
_cell_angle_alpha    86.1411
_cell_angle_beta     93.8589
_cell_angle_gamma    75.0706

_symmetry_space_group_name_H-M    "P 1"
_symmetry_Int_Tables_number       1

loop_
  _symmetry_equiv_pos_as_xyz
  'x, y, z'

loop_
  _atom_site_type_symbol
  _atom_site_label
  _atom_site_symmetry_multiplicity
  _atom_site_fract_x
  _atom_site_fract_y
  _atom_site_fract_z
  _atom_site_occupancy
  _atom_site_charge
Ga  Ga1       1.0  0.48575  0.74815  0.06100  1.0000 1.4367295548
Ga  Ga2       1.0  0.74815  0.48575  0.43900  1.0000 1.4315843627
Ga  Ga3       1.0  0.51425  0.25185  0.93900  1.0000 1.4315843627
Ga  Ga4       1.0  0.25185  0.51425  0.56100  1.0000 1.4367295548
Ga  Ga5       1.0  0.61556  0.91730  0.63363  1.0000 1.5642668054
Ga  Ga6       1.0  0.91730  0.61556  0.86637  1.0000 1.5642668054
Ga  Ga7       1.0  0.38444  0.08270  0.36637  1.0000 1.5642668054
Ga  Ga8       1.0  0.08270  0.38444  0.13363  1.0000 1.5642668054
P   P1        1.0  0.64031  0.90743  0.87706  1.0000 1.5970013186
P   P2        1.0  0.90743  0.64031  0.62294  1.0000 1.5970013186
P   P3        1.0  0.35969  0.09257  0.12294  1.0000 1.5970013186
P   P4        1.0  0.09257  0.35969  0.37706  1.0000 1.5970013186
P   P5        1.0  0.76467  0.42983  0.01667  1.0000 1.5731983627
P   P6        1.0  0.42983  0.76467  0.48333  1.0000 1.5731983627
P   P7        1.0  0.23533  0.57017  0.98333  1.0000 1.5753814027
P   P8        1.0  0.57017  0.23533  0.51667  1.0000 1.5731983627
C   C1        1.0  0.67760  0.67760  0.25000  1.0000 0.4929602936
C   C2        1.0  0.32240  0.32240  0.75000  1.0000 0.4929602936
C   C3        1.0  0.56790  0.56790  0.25000  1.0000 0.4981499955
C   C4        1.0  0.43210  0.43210  0.75000  1.0000 0.4981499955
O   O1        1.0  0.63860  0.57860  0.01390  1.0000 -0.7584812745
O   O2        1.0  0.57860  0.63860  0.48610  1.0000 -0.7584812745
O   O3        1.0  0.36140  0.42140  0.98610  1.0000 -0.7584812745
O   O4        1.0  0.42140  0.36140  0.51390  1.0000 -0.7584812745
O   O5        1.0  0.66430  0.76910  0.17050  1.0000 -0.4283311769
O   O6        1.0  0.76910  0.66430  0.32950  1.0000 -0.4283311769
O   O7        1.0  0.33570  0.23090  0.82950  1.0000 -0.4283311769
O   O8        1.0  0.23090  0.33570  0.67050  1.0000 -0.4283311769
O   O9        1.0  0.46210  0.59350  0.17810  1.0000 -0.401326786
O   O10       1.0  0.59350  0.46210  0.32190  1.0000 -0.401326786
O   O11       1.0  0.53790  0.40650  0.82190  1.0000 -0.401326786
O   O12       1.0  0.40650  0.53790  0.67810  1.0000 -0.401326786
O   O13       1.0  0.52100  0.87100  0.94540  1.0000 -0.7015702829
O   O14       1.0  0.87100  0.52100  0.55460  1.0000 -0.7015702829
O   O15       1.0  0.47900  0.12900  0.05460  1.0000 -0.7015702829
O   O16       1.0  0.12900  0.47900  0.44540  1.0000 -0.7015702829
O   O17       1.0  0.64680  0.07740  0.87850  1.0000 -0.7377840341
O   O18       1.0  0.07740  0.64680  0.62150  1.0000 -0.7377840341
O   O19       1.0  0.35320  0.92260  0.12150  1.0000 -0.7377840341
O   O20       1.0  0.92260  0.35320  0.37850  1.0000 -0.7377840341
O   O21       1.0  0.58860  0.87300  0.76760  1.0000 -0.7377840341
O   O22       1.0  0.87300  0.58860  0.73240  1.0000 -0.7377840341
O   O23       1.0  0.41140  0.12700  0.23240  1.0000 -0.7377840341
O   O24       1.0  0.12700  0.41140  0.26760  1.0000 -0.7377840341
O   O25       1.0  0.80870  0.80230  0.90650  1.0000 -0.7377840341
O   O26       1.0  0.80230  0.80870  0.59350  1.0000 -0.7377840341
O   O27       1.0  0.19130  0.19770  0.09350  1.0000 -0.7377840341
O   O28       1.0  0.19770  0.19130  0.40650  1.0000 -0.7377840341
O   O29       1.0  0.87420  0.44260  0.93000  1.0000 -0.7467527941
O   O30       1.0  0.44260  0.87420  0.57000  1.0000 -0.7467527941
O   O31       1.0  0.12580  0.55740  0.07000  1.0000 -0.7467527941
O   O32       1.0  0.55740  0.12580  0.43000  1.0000 -0.7377840341
O   O33       1.0  0.70070  0.28790  0.00710  1.0000 -0.6793680891
O   O34       1.0  0.28790  0.70070  0.49290  1.0000 -0.6793680891
O   O35       1.0  0.29930  0.71210  0.99290  1.0000 -0.6793680891
O   O36       1.0  0.71210  0.29930  0.50710  1.0000 -0.6793680891
O   O37       1.0  0.87160  0.39780  0.11950  1.0000 -0.7377840341
O   O38       1.0  0.39780  0.87160  0.38050  1.0000 -0.7377840341
O   O39       1.0  0.12840  0.60220  0.88050  1.0000 -0.7377840341
O   O40       1.0  0.60220  0.12840  0.61950  1.0000 -0.7377840341
