# DDEC6 charges by PACMAN v1.1 (https://github.com/mtap-research/PACMAN-charge/)
data_2006[Mn][dia]3[ASR]1
_chemical_formula_sum              "Mn12 H24 C24 O48"
_cell_length_a       11.6954
_cell_length_b       10.151
_cell_length_c       18.689
_cell_angle_alpha    90
_cell_angle_beta     127.079
_cell_angle_gamma    90

_symmetry_space_group_name_H-M    "P 1"
_symmetry_Int_Tables_number       1

loop_
  _symmetry_equiv_pos_as_xyz
  'x, y, z'

loop_
  _atom_site_type_symbol
  _atom_site_label
  _atom_site_symmetry_multiplicity
  _atom_site_fract_x
  _atom_site_fract_y
  _atom_site_fract_z
  _atom_site_occupancy
  _atom_site_charge
Mn  Mn1       1.0  0.00000  0.00000  0.50000  1.0000 0.9997451336
Mn  Mn2       1.0  0.00000  0.50000  0.00000  1.0000 0.9997451336
Mn  Mn3       1.0  0.50000  0.00000  0.50000  1.0000 0.9997451336
Mn  Mn4       1.0  0.50000  0.50000  0.00000  1.0000 0.9997451336
Mn  Mn5       1.0  0.42560  0.89731  0.18599  1.0000 0.9777448549
Mn  Mn6       1.0  0.57440  0.39731  0.31401  1.0000 0.9777448549
Mn  Mn7       1.0  0.57440  0.10269  0.81401  1.0000 0.9777448549
Mn  Mn8       1.0  0.42560  0.60269  0.68599  1.0000 0.9777448549
Mn  Mn9       1.0  0.62580  0.08260  0.36901  1.0000 0.9777448549
Mn  Mn10      1.0  0.37420  0.58260  0.13099  1.0000 0.9777448549
Mn  Mn11      1.0  0.37420  0.91740  0.63099  1.0000 0.9740651877
Mn  Mn12      1.0  0.62580  0.41740  0.86901  1.0000 0.9777448549
H   H1        1.0  0.51620  0.75270  0.37140  1.0000 0.0683583201
H   H2        1.0  0.48380  0.25270  0.12860  1.0000 0.0683583201
H   H3        1.0  0.48380  0.24730  0.62860  1.0000 0.0683583201
H   H4        1.0  0.51620  0.74730  0.87140  1.0000 0.0683583201
H   H5        1.0  0.23810  0.16110  0.42930  1.0000 0.0683583201
H   H6        1.0  0.76190  0.66110  0.07070  1.0000 0.0683583201
H   H7        1.0  0.76190  0.83890  0.57070  1.0000 0.0683583201
H   H8        1.0  0.23810  0.33890  0.92930  1.0000 0.0683583201
H   H9        1.0  0.21630  0.98700  0.23320  1.0000 0.0922111509
H   H10       1.0  0.78370  0.48700  0.26680  1.0000 0.0922111509
H   H11       1.0  0.78370  0.01300  0.76680  1.0000 0.0922111509
H   H12       1.0  0.21630  0.51300  0.73320  1.0000 0.0922111509
H   H13       1.0  0.49240  0.61540  0.54380  1.0000 0.0764543817
H   H14       1.0  0.50760  0.11540  0.95620  1.0000 0.0764543817
H   H15       1.0  0.50760  0.38460  0.45620  1.0000 0.0764543817
H   H16       1.0  0.49240  0.88460  0.04380  1.0000 0.0764543817
H   H17       1.0  0.74110  0.80340  0.26410  1.0000 0.0522232533
H   H18       1.0  0.25890  0.30340  0.23590  1.0000 0.0522232533
H   H19       1.0  0.25890  0.19660  0.73590  1.0000 0.0522232533
H   H20       1.0  0.74110  0.69660  0.76410  1.0000 0.0522232533
H   H21       1.0  0.98700  0.29410  0.48500  1.0000 0.0764543817
H   H22       1.0  0.01300  0.79410  0.01500  1.0000 0.0764543817
H   H23       1.0  0.01300  0.70590  0.51500  1.0000 0.0764543817
H   H24       1.0  0.98700  0.20590  0.98500  1.0000 0.0764543817
C   C1        1.0  0.50004  0.67850  0.32944  1.0000 0.4817936377
C   C2        1.0  0.49996  0.17850  0.17056  1.0000 0.4817936377
C   C3        1.0  0.49996  0.32150  0.67056  1.0000 0.4817936377
C   C4        1.0  0.50004  0.82150  0.82944  1.0000 0.4817936377
C   C5        1.0  0.76233  0.86870  0.31473  1.0000 0.468569704
C   C6        1.0  0.23767  0.36870  0.18527  1.0000 0.468569704
C   C7        1.0  0.23767  0.13130  0.68527  1.0000 0.468569704
C   C8        1.0  0.76233  0.63130  0.81473  1.0000 0.468569704
C   C9        1.0  0.30954  0.98670  0.28962  1.0000 0.468569704
C   C10       1.0  0.69046  0.48670  0.21038  1.0000 0.468569704
C   C11       1.0  0.69046  0.01330  0.71038  1.0000 0.468569704
C   C12       1.0  0.30954  0.51330  0.78962  1.0000 0.468569704
C   C13       1.0  0.47800  0.71050  0.55150  1.0000 0.468569704
C   C14       1.0  0.52200  0.21050  0.94850  1.0000 0.468569704
C   C15       1.0  0.52200  0.28950  0.44850  1.0000 0.468569704
C   C16       1.0  0.47800  0.78950  0.05150  1.0000 0.468569704
C   C17       1.0  0.87967  0.27980  0.44537  1.0000 0.4890752615
C   C18       1.0  0.12033  0.77980  0.05463  1.0000 0.4890752615
C   C19       1.0  0.12033  0.72020  0.55463  1.0000 0.4890752615
C   C20       1.0  0.87967  0.22020  0.94537  1.0000 0.4890752615
C   C21       1.0  0.22512  0.10010  0.46728  1.0000 0.4817936377
C   C22       1.0  0.77488  0.60010  0.03272  1.0000 0.4817936377
C   C23       1.0  0.77488  0.89990  0.53272  1.0000 0.4817936377
C   C24       1.0  0.22512  0.39990  0.96728  1.0000 0.4817936377
O   O1        1.0  0.44158  0.70417  0.24818  1.0000 -0.5494196772
O   O2        1.0  0.55842  0.20417  0.25182  1.0000 -0.5494196772
O   O3        1.0  0.55842  0.29583  0.75182  1.0000 -0.5494196772
O   O4        1.0  0.44158  0.79583  0.74818  1.0000 -0.5494196772
O   O5        1.0  0.84036  0.16091  0.43906  1.0000 -0.542115566
O   O6        1.0  0.15964  0.66091  0.06094  1.0000 -0.542115566
O   O7        1.0  0.15964  0.83909  0.56094  1.0000 -0.542115566
O   O8        1.0  0.84036  0.33909  0.93906  1.0000 -0.542115566
O   O9        1.0  0.33478  0.02839  0.52102  1.0000 -0.5494196772
O   O10       1.0  0.66522  0.52839  0.97898  1.0000 -0.5494196772
O   O11       1.0  0.66522  0.97161  0.47898  1.0000 -0.5494196772
O   O12       1.0  0.33478  0.47161  0.02102  1.0000 -0.5494196772
O   O13       1.0  0.45357  0.73892  0.60717  1.0000 -0.5494196772
O   O14       1.0  0.54643  0.23892  0.89283  1.0000 -0.5494196772
O   O15       1.0  0.54643  0.26108  0.39283  1.0000 -0.5494196772
O   O16       1.0  0.45357  0.76108  0.10717  1.0000 -0.5494196772
O   O17       1.0  0.65465  0.92199  0.30339  1.0000 -0.5494196772
O   O18       1.0  0.34535  0.42199  0.19661  1.0000 -0.5494196772
O   O19       1.0  0.34535  0.07801  0.69661  1.0000 -0.5494196772
O   O20       1.0  0.65465  0.57801  0.80339  1.0000 -0.5494196772
O   O21       1.0  0.40912  0.99716  0.28166  1.0000 -0.5494196772
O   O22       1.0  0.59088  0.49716  0.21834  1.0000 -0.5494196772
O   O23       1.0  0.59088  0.00284  0.71834  1.0000 -0.5494196772
O   O24       1.0  0.40912  0.50284  0.78166  1.0000 -0.5494196772
O   O25       1.0  0.32198  0.99930  0.35912  1.0000 -0.4878420858
O   O26       1.0  0.67802  0.49930  0.14088  1.0000 -0.4878420858
O   O27       1.0  0.67802  0.00070  0.64088  1.0000 -0.4878420858
O   O28       1.0  0.32198  0.50070  0.85912  1.0000 -0.4878420858
O   O29       1.0  0.80021  0.37593  0.40734  1.0000 -0.4977619518
O   O30       1.0  0.19979  0.87593  0.09266  1.0000 -0.4977619518
O   O31       1.0  0.19979  0.62407  0.59266  1.0000 -0.4977619518
O   O32       1.0  0.80021  0.12407  0.90734  1.0000 -0.4977619518
O   O33       1.0  0.55229  0.57107  0.36733  1.0000 -0.4977619518
O   O34       1.0  0.44771  0.07107  0.13267  1.0000 -0.4977619518
O   O35       1.0  0.44771  0.42893  0.63267  1.0000 -0.4977619518
O   O36       1.0  0.55229  0.92893  0.86733  1.0000 -0.4977619518
O   O37       1.0  0.11625  0.10463  0.46262  1.0000 -0.4878420858
O   O38       1.0  0.88375  0.60463  0.03738  1.0000 -0.4977619518
O   O39       1.0  0.88375  0.89537  0.53738  1.0000 -0.4977619518
O   O40       1.0  0.11625  0.39537  0.96262  1.0000 -0.4977619518
O   O41       1.0  0.88853  0.88870  0.37675  1.0000 -0.4811225056
O   O42       1.0  0.11147  0.38870  0.12325  1.0000 -0.4811225056
O   O43       1.0  0.11147  0.11130  0.62325  1.0000 -0.4811225056
O   O44       1.0  0.88853  0.61130  0.87675  1.0000 -0.4811225056
O   O45       1.0  0.48587  0.78879  0.50420  1.0000 -0.4977619518
O   O46       1.0  0.51413  0.28879  0.99580  1.0000 -0.4977619518
O   O47       1.0  0.51413  0.21121  0.49580  1.0000 -0.4977619518
O   O48       1.0  0.48587  0.71121  0.00420  1.0000 -0.4977619518
