# DDEC6 charges by PACMAN v1.1 (https://github.com/mtap-research/PACMAN-charge/)
data_2006[Zn][pcu]3[ASR]2
_chemical_formula_sum              "Zn8 H88 C144 N8 O32"
_cell_length_a       16.1578
_cell_length_b       18.807
_cell_length_c       18.1039
_cell_angle_alpha    90
_cell_angle_beta     92.615
_cell_angle_gamma    90

_symmetry_space_group_name_H-M    "P 1"
_symmetry_Int_Tables_number       1

loop_
  _symmetry_equiv_pos_as_xyz
  'x, y, z'

loop_
  _atom_site_type_symbol
  _atom_site_label
  _atom_site_symmetry_multiplicity
  _atom_site_fract_x
  _atom_site_fract_y
  _atom_site_fract_z
  _atom_site_occupancy
  _atom_site_charge
Zn  Zn1       1.0  0.36545  0.99980  0.17234  1.0000 0.828162383
Zn  Zn2       1.0  0.36545  0.50020  0.67234  1.0000 0.828162383
Zn  Zn3       1.0  0.18579  0.00078  0.14218  1.0000 0.8240013976
Zn  Zn4       1.0  0.18579  0.49922  0.64218  1.0000 0.8240013976
Zn  Zn5       1.0  0.63455  0.49980  0.32766  1.0000 0.828162383
Zn  Zn6       1.0  0.63455  0.00020  0.82766  1.0000 0.828162383
Zn  Zn7       1.0  0.81421  0.50078  0.35782  1.0000 0.8240013976
Zn  Zn8       1.0  0.81421  0.99922  0.85782  1.0000 0.8240013976
H   H1        1.0  0.42400  0.15300  0.00500  1.0000 0.1198834441
H   H2        1.0  0.42400  0.34700  0.50500  1.0000 0.1198834441
H   H3        1.0  0.44200  0.24330  0.91360  1.0000 0.1119257727
H   H4        1.0  0.44200  0.25670  0.41360  1.0000 0.1119257727
H   H5        1.0  0.37100  0.33580  0.83350  1.0000 0.1198834441
H   H6        1.0  0.37100  0.16420  0.33350  1.0000 0.1198834441
H   H7        1.0  0.12700  0.37300  0.83540  1.0000 0.1198834441
H   H8        1.0  0.12700  0.12700  0.33540  1.0000 0.1198834441
H   H9        1.0  0.11500  0.28880  0.93120  1.0000 0.1198834441
H   H10       1.0  0.11500  0.21120  0.43120  1.0000 0.1198834441
H   H11       1.0  0.17460  0.19280  0.01300  1.0000 0.1198834441
H   H12       1.0  0.17460  0.30720  0.51300  1.0000 0.1198834441
H   H13       1.0  0.41500  0.82250  0.03080  1.0000 0.1198834441
H   H14       1.0  0.41500  0.67750  0.53080  1.0000 0.1198834441
H   H15       1.0  0.43000  0.72880  0.95030  1.0000 0.1198834441
H   H16       1.0  0.43000  0.77120  0.45030  1.0000 0.1198834441
H   H17       1.0  0.36860  0.65040  0.85140  1.0000 0.1274138401
H   H18       1.0  0.36860  0.84960  0.35140  1.0000 0.1274138401
H   H19       1.0  0.13700  0.69130  0.76710  1.0000 0.1198834441
H   H20       1.0  0.13700  0.80870  0.26710  1.0000 0.1198834441
H   H21       1.0  0.11600  0.78170  0.85280  1.0000 0.1119257727
H   H22       1.0  0.11600  0.71830  0.35280  1.0000 0.1119257727
H   H23       1.0  0.17830  0.85870  0.95140  1.0000 0.1119257727
H   H24       1.0  0.17830  0.64130  0.45140  1.0000 0.1119257727
H   H25       1.0  0.04410  0.07580  0.19230  1.0000 0.1198834441
H   H26       1.0  0.04410  0.42420  0.69230  1.0000 0.1198834441
H   H27       1.0  0.89800  0.07400  0.18800  1.0000 0.1394549652
H   H28       1.0  0.89800  0.42600  0.68800  1.0000 0.1394549652
H   H29       1.0  0.77400  0.96760  0.06900  1.0000 0.1274138401
H   H30       1.0  0.77400  0.53240  0.56900  1.0000 0.1274138401
H   H31       1.0  0.77500  0.03140  0.21090  1.0000 0.1198834441
H   H32       1.0  0.77500  0.46860  0.71090  1.0000 0.1198834441
H   H33       1.0  0.65600  0.03200  0.27200  1.0000 0.1394549652
H   H34       1.0  0.65600  0.46800  0.77200  1.0000 0.1394549652
H   H35       1.0  0.51500  0.02500  0.27600  1.0000 0.1274138401
H   H36       1.0  0.51500  0.47500  0.77600  1.0000 0.1274138401
H   H37       1.0  0.49600  0.98090  0.07140  1.0000 0.1119257727
H   H38       1.0  0.49600  0.51910  0.57140  1.0000 0.1119257727
H   H39       1.0  0.62900  0.98500  0.06120  1.0000 0.1394549652
H   H40       1.0  0.62900  0.51500  0.56120  1.0000 0.1394549652
H   H41       1.0  0.91430  0.91580  0.04260  1.0000 0.1394549652
H   H42       1.0  0.91430  0.58420  0.54260  1.0000 0.1394549652
H   H43       1.0  0.05370  0.92090  0.05530  1.0000 0.1119257727
H   H44       1.0  0.05370  0.57910  0.55530  1.0000 0.1119257727
H   H45       1.0  0.57600  0.65300  0.49500  1.0000 0.1198834441
H   H46       1.0  0.57600  0.84700  0.99500  1.0000 0.1198834441
H   H47       1.0  0.55800  0.74330  0.58640  1.0000 0.1119257727
H   H48       1.0  0.55800  0.75670  0.08640  1.0000 0.1119257727
H   H49       1.0  0.62900  0.83580  0.66650  1.0000 0.1198834441
H   H50       1.0  0.62900  0.66420  0.16650  1.0000 0.1198834441
H   H51       1.0  0.87300  0.87300  0.66460  1.0000 0.1198834441
H   H52       1.0  0.87300  0.62700  0.16460  1.0000 0.1198834441
H   H53       1.0  0.88500  0.78880  0.56880  1.0000 0.1198834441
H   H54       1.0  0.88500  0.71120  0.06880  1.0000 0.1198834441
H   H55       1.0  0.82540  0.69280  0.48700  1.0000 0.1198834441
H   H56       1.0  0.82540  0.80720  0.98700  1.0000 0.1198834441
H   H57       1.0  0.58500  0.32250  0.46920  1.0000 0.1198834441
H   H58       1.0  0.58500  0.17750  0.96920  1.0000 0.1198834441
H   H59       1.0  0.57000  0.22880  0.54970  1.0000 0.1198834441
H   H60       1.0  0.57000  0.27120  0.04970  1.0000 0.1198834441
H   H61       1.0  0.63140  0.15040  0.64860  1.0000 0.1274138401
H   H62       1.0  0.63140  0.34960  0.14860  1.0000 0.1274138401
H   H63       1.0  0.86300  0.19130  0.73290  1.0000 0.1198834441
H   H64       1.0  0.86300  0.30870  0.23290  1.0000 0.1198834441
H   H65       1.0  0.88400  0.28170  0.64720  1.0000 0.1119257727
H   H66       1.0  0.88400  0.21830  0.14720  1.0000 0.1119257727
H   H67       1.0  0.82170  0.35870  0.54860  1.0000 0.1119257727
H   H68       1.0  0.82170  0.14130  0.04860  1.0000 0.1119257727
H   H69       1.0  0.95590  0.57580  0.30770  1.0000 0.1198834441
H   H70       1.0  0.95590  0.92420  0.80770  1.0000 0.1198834441
H   H71       1.0  0.10200  0.57400  0.31200  1.0000 0.1394549652
H   H72       1.0  0.10200  0.92600  0.81200  1.0000 0.1394549652
H   H73       1.0  0.22600  0.46760  0.43100  1.0000 0.1274138401
H   H74       1.0  0.22600  0.03240  0.93100  1.0000 0.1274138401
H   H75       1.0  0.22500  0.53140  0.28910  1.0000 0.1198834441
H   H76       1.0  0.22500  0.96860  0.78910  1.0000 0.1198834441
H   H77       1.0  0.34400  0.53200  0.22800  1.0000 0.1394549652
H   H78       1.0  0.34400  0.96800  0.72800  1.0000 0.1394549652
H   H79       1.0  0.48500  0.52500  0.22400  1.0000 0.1274138401
H   H80       1.0  0.48500  0.97500  0.72400  1.0000 0.1274138401
H   H81       1.0  0.50400  0.48090  0.42860  1.0000 0.1119257727
H   H82       1.0  0.50400  0.01910  0.92860  1.0000 0.1119257727
H   H83       1.0  0.37100  0.48500  0.43880  1.0000 0.1394549652
H   H84       1.0  0.37100  0.01500  0.93880  1.0000 0.1394549652
H   H85       1.0  0.08570  0.41580  0.45740  1.0000 0.1394549652
H   H86       1.0  0.08570  0.08420  0.95740  1.0000 0.1394549652
H   H87       1.0  0.94630  0.42090  0.44470  1.0000 0.1119257727
H   H88       1.0  0.94630  0.07910  0.94470  1.0000 0.1119257727
C   C1        1.0  0.28823  0.10408  0.06651  1.0000 0.5726495792
C   C2        1.0  0.28823  0.39592  0.56651  1.0000 0.5726495792
C   C3        1.0  0.29743  0.16462  0.01359  1.0000 -0.0214891089
C   C4        1.0  0.29743  0.33538  0.51359  1.0000 -0.0214891089
C   C5        1.0  0.37661  0.18047  0.98701  1.0000 -0.1234376504
C   C6        1.0  0.37661  0.31953  0.48701  1.0000 -0.1234376504
C   C7        1.0  0.38545  0.23251  0.93594  1.0000 -0.1479414257
C   C8        1.0  0.38545  0.26749  0.43594  1.0000 -0.1479414257
C   C9        1.0  0.31563  0.27185  0.90841  1.0000 0.0733400673
C   C10       1.0  0.31563  0.22815  0.40841  1.0000 0.0733400673
C   C11       1.0  0.32180  0.32376  0.85279  1.0000 -0.1479414257
C   C12       1.0  0.32180  0.17624  0.35279  1.0000 -0.1479414257
C   C13       1.0  0.25303  0.35965  0.82510  1.0000 -0.028067834
C   C14       1.0  0.25303  0.14035  0.32510  1.0000 -0.028067834
C   C15       1.0  0.17517  0.34667  0.85499  1.0000 -0.1054725911
C   C16       1.0  0.17517  0.15333  0.35499  1.0000 -0.1054725911
C   C17       1.0  0.16721  0.29749  0.90946  1.0000 -0.1574516672
C   C18       1.0  0.16721  0.20251  0.40946  1.0000 -0.1574516672
C   C19       1.0  0.23665  0.25770  0.93684  1.0000 0.0794838054
C   C20       1.0  0.23665  0.24230  0.43684  1.0000 0.0794838054
C   C21       1.0  0.22985  0.20342  0.98977  1.0000 -0.1717106133
C   C22       1.0  0.22985  0.29658  0.48977  1.0000 -0.1717106133
C   C23       1.0  0.26101  0.41201  0.76341  1.0000 0.5896496435
C   C24       1.0  0.26101  0.08799  0.26341  1.0000 0.5896496435
C   C25       1.0  0.28810  0.90852  0.05428  1.0000 0.5784901042
C   C26       1.0  0.28810  0.59148  0.55428  1.0000 0.5784901042
C   C27       1.0  0.29619  0.85042  0.99862  1.0000 -0.0214891089
C   C28       1.0  0.29619  0.64958  0.49862  1.0000 -0.0214891089
C   C29       1.0  0.37128  0.81213  0.99637  1.0000 -0.1234376504
C   C30       1.0  0.37128  0.68787  0.49637  1.0000 -0.1234376504
C   C31       1.0  0.37928  0.75725  0.94900  1.0000 -0.1479414257
C   C32       1.0  0.37928  0.74275  0.44900  1.0000 -0.1479414257
C   C33       1.0  0.31282  0.73733  0.89948  1.0000 0.0733400673
C   C34       1.0  0.31282  0.76267  0.39948  1.0000 0.0733400673
C   C35       1.0  0.31910  0.68043  0.84906  1.0000 -0.1574516672
C   C36       1.0  0.31910  0.81957  0.34906  1.0000 -0.1574516672
C   C37       1.0  0.25403  0.66249  0.80175  1.0000 -0.0214891089
C   C38       1.0  0.25403  0.83751  0.30175  1.0000 -0.0214891089
C   C39       1.0  0.17910  0.70073  0.80354  1.0000 -0.0975571315
C   C40       1.0  0.17910  0.79927  0.30354  1.0000 -0.0975571315
C   C41       1.0  0.17043  0.75565  0.85126  1.0000 -0.1717106133
C   C42       1.0  0.17043  0.74435  0.35126  1.0000 -0.1717106133
C   C43       1.0  0.23729  0.77585  0.90050  1.0000 0.0794838054
C   C44       1.0  0.23729  0.72415  0.40050  1.0000 0.0794838054
C   C45       1.0  0.23080  0.83225  0.95144  1.0000 -0.1717106133
C   C46       1.0  0.23080  0.66775  0.45144  1.0000 -0.1717106133
C   C47       1.0  0.26365  0.60229  0.74867  1.0000 0.5896496435
C   C48       1.0  0.26365  0.89771  0.24867  1.0000 0.5896496435
C   C49       1.0  0.01584  0.04469  0.16387  1.0000 0.0884630314
C   C50       1.0  0.01584  0.45531  0.66387  1.0000 0.0884630314
C   C51       1.0  0.93058  0.04394  0.16050  1.0000 -0.2008535127
C   C52       1.0  0.93058  0.45606  0.66050  1.0000 -0.2008535127
C   C53       1.0  0.88859  0.99398  0.11629  1.0000 0.1610465978
C   C54       1.0  0.88859  0.50602  0.61629  1.0000 0.1610465978
C   C55       1.0  0.79815  0.98881  0.11379  1.0000 -0.1234376504
C   C56       1.0  0.79815  0.51119  0.61379  1.0000 -0.1234376504
C   C57       1.0  0.75229  0.01264  0.16722  1.0000 -0.1271110292
C   C58       1.0  0.75229  0.48736  0.66722  1.0000 -0.1271110292
C   C59       1.0  0.66190  0.00830  0.16835  1.0000 0.149495538
C   C60       1.0  0.66190  0.49170  0.66835  1.0000 0.149495538
C   C61       1.0  0.62291  0.02090  0.23385  1.0000 -0.1948727707
C   C62       1.0  0.62291  0.47910  0.73385  1.0000 -0.1948727707
C   C63       1.0  0.53823  0.01641  0.23538  1.0000 0.0884630314
C   C64       1.0  0.53823  0.48359  0.73538  1.0000 0.0884630314
C   C65       1.0  0.52807  0.98901  0.11237  1.0000 0.0794838054
C   C66       1.0  0.52807  0.51099  0.61237  1.0000 0.0794838054
C   C67       1.0  0.61170  0.99225  0.10634  1.0000 -0.1755847375
C   C68       1.0  0.61170  0.50775  0.60634  1.0000 -0.1717106133
C   C69       1.0  0.93607  0.94928  0.07478  1.0000 -0.1948727707
C   C70       1.0  0.93607  0.55072  0.57478  1.0000 -0.1948727707
C   C71       1.0  0.02119  0.95301  0.08158  1.0000 0.0794838054
C   C72       1.0  0.02119  0.54699  0.58158  1.0000 0.0794838054
C   C73       1.0  0.71177  0.60408  0.43349  1.0000 0.5726495792
C   C74       1.0  0.71177  0.89592  0.93349  1.0000 0.5726495792
C   C75       1.0  0.70257  0.66462  0.48641  1.0000 -0.0214891089
C   C76       1.0  0.70257  0.83538  0.98641  1.0000 -0.0214891089
C   C77       1.0  0.62339  0.68047  0.51299  1.0000 -0.1271110292
C   C78       1.0  0.62339  0.81953  0.01299  1.0000 -0.1234376504
C   C79       1.0  0.61455  0.73251  0.56406  1.0000 -0.1479414257
C   C80       1.0  0.61455  0.76749  0.06406  1.0000 -0.1479414257
C   C81       1.0  0.68437  0.77185  0.59159  1.0000 0.0733400673
C   C82       1.0  0.68437  0.72815  0.09159  1.0000 0.0733400673
C   C83       1.0  0.67820  0.82376  0.64721  1.0000 -0.1479414257
C   C84       1.0  0.67820  0.67624  0.14721  1.0000 -0.1479414257
C   C85       1.0  0.74697  0.85965  0.67490  1.0000 -0.028067834
C   C86       1.0  0.74697  0.64035  0.17490  1.0000 -0.028067834
C   C87       1.0  0.82483  0.84667  0.64501  1.0000 -0.1054725911
C   C88       1.0  0.82483  0.65333  0.14501  1.0000 -0.1054725911
C   C89       1.0  0.83279  0.79749  0.59054  1.0000 -0.1574516672
C   C90       1.0  0.83279  0.70251  0.09054  1.0000 -0.1574516672
C   C91       1.0  0.76335  0.75770  0.56316  1.0000 0.0794838054
C   C92       1.0  0.76335  0.74230  0.06316  1.0000 0.0794838054
C   C93       1.0  0.77015  0.70342  0.51023  1.0000 -0.1717106133
C   C94       1.0  0.77015  0.79658  0.01023  1.0000 -0.1717106133
C   C95       1.0  0.73899  0.91201  0.73659  1.0000 0.5896496435
C   C96       1.0  0.73899  0.58799  0.23659  1.0000 0.5896496435
C   C97       1.0  0.71190  0.40852  0.44572  1.0000 0.5784901042
C   C98       1.0  0.71190  0.09148  0.94572  1.0000 0.5784901042
C   C99       1.0  0.70381  0.35042  0.50138  1.0000 -0.0214891089
C   C100      1.0  0.70381  0.14958  0.00138  1.0000 -0.0214891089
C   C101      1.0  0.62872  0.31213  0.50363  1.0000 -0.1234376504
C   C102      1.0  0.62872  0.18787  0.00363  1.0000 -0.1234376504
C   C103      1.0  0.62072  0.25725  0.55100  1.0000 -0.1479414257
C   C104      1.0  0.62072  0.24275  0.05100  1.0000 -0.1479414257
C   C105      1.0  0.68718  0.23733  0.60052  1.0000 0.0733400673
C   C106      1.0  0.68718  0.26267  0.10052  1.0000 0.0733400673
C   C107      1.0  0.68090  0.18043  0.65094  1.0000 -0.1574516672
C   C108      1.0  0.68090  0.31957  0.15094  1.0000 -0.1574516672
C   C109      1.0  0.74597  0.16249  0.69825  1.0000 -0.0214891089
C   C110      1.0  0.74597  0.33751  0.19825  1.0000 -0.0214891089
C   C111      1.0  0.82090  0.20073  0.69646  1.0000 -0.0975571315
C   C112      1.0  0.82090  0.29927  0.19646  1.0000 -0.0975571315
C   C113      1.0  0.82957  0.25565  0.64874  1.0000 -0.1717106133
C   C114      1.0  0.82957  0.24435  0.14874  1.0000 -0.1717106133
C   C115      1.0  0.76271  0.27585  0.59950  1.0000 0.0794838054
C   C116      1.0  0.76271  0.22415  0.09950  1.0000 0.0794838054
C   C117      1.0  0.76920  0.33225  0.54856  1.0000 -0.1717106133
C   C118      1.0  0.76920  0.16775  0.04856  1.0000 -0.1717106133
C   C119      1.0  0.73635  0.10229  0.75133  1.0000 0.5896496435
C   C120      1.0  0.73635  0.39771  0.25133  1.0000 0.5896496435
C   C121      1.0  0.98416  0.54469  0.33613  1.0000 0.0884630314
C   C122      1.0  0.98416  0.95531  0.83613  1.0000 0.0884630314
C   C123      1.0  0.06942  0.54394  0.33950  1.0000 -0.2008535127
C   C124      1.0  0.06942  0.95606  0.83950  1.0000 -0.2008535127
C   C125      1.0  0.11141  0.49398  0.38371  1.0000 0.1610465978
C   C126      1.0  0.11141  0.00602  0.88371  1.0000 0.1610465978
C   C127      1.0  0.20185  0.48881  0.38621  1.0000 -0.1234376504
C   C128      1.0  0.20185  0.01119  0.88621  1.0000 -0.1234376504
C   C129      1.0  0.24771  0.51264  0.33278  1.0000 -0.1271110292
C   C130      1.0  0.24771  0.98736  0.83278  1.0000 -0.1271110292
C   C131      1.0  0.33810  0.50830  0.33165  1.0000 0.149495538
C   C132      1.0  0.33810  0.99170  0.83165  1.0000 0.149495538
C   C133      1.0  0.37709  0.52090  0.26615  1.0000 -0.1948727707
C   C134      1.0  0.37709  0.97910  0.76615  1.0000 -0.1948727707
C   C135      1.0  0.46177  0.51641  0.26462  1.0000 0.0884630314
C   C136      1.0  0.46177  0.98359  0.76462  1.0000 0.0884630314
C   C137      1.0  0.47193  0.48901  0.38763  1.0000 0.0794838054
C   C138      1.0  0.47193  0.01099  0.88763  1.0000 0.0794838054
C   C139      1.0  0.38830  0.49225  0.39366  1.0000 -0.1755847375
C   C140      1.0  0.38830  0.00775  0.89366  1.0000 -0.1717106133
C   C141      1.0  0.06393  0.44928  0.42522  1.0000 -0.2008535127
C   C142      1.0  0.06393  0.05072  0.92522  1.0000 -0.2008535127
C   C143      1.0  0.97881  0.45301  0.41842  1.0000 0.0794838054
C   C144      1.0  0.97881  0.04699  0.91842  1.0000 0.0794838054
N   N1        1.0  0.06133  0.99922  0.12619  1.0000 -0.2116927247
N   N2        1.0  0.06133  0.50078  0.62619  1.0000 -0.2116927247
N   N3        1.0  0.49051  0.00069  0.17592  1.0000 -0.2008535127
N   N4        1.0  0.49051  0.49931  0.67592  1.0000 -0.2008535127
N   N5        1.0  0.93867  0.49922  0.37381  1.0000 -0.2116927247
N   N6        1.0  0.93867  0.00078  0.87381  1.0000 -0.2116927247
N   N7        1.0  0.50949  0.50069  0.32408  1.0000 -0.2008535127
N   N8        1.0  0.50949  0.99931  0.82408  1.0000 -0.2008535127
O   O1        1.0  0.35299  0.06994  0.08538  1.0000 -0.5502791201
O   O2        1.0  0.35299  0.43006  0.58538  1.0000 -0.5561297278
O   O3        1.0  0.21681  0.09103  0.08767  1.0000 -0.5435196857
O   O4        1.0  0.21681  0.40897  0.58767  1.0000 -0.5435196857
O   O5        1.0  0.19566  0.44138  0.73839  1.0000 -0.5502791201
O   O6        1.0  0.19566  0.05862  0.23839  1.0000 -0.5502791201
O   O7        1.0  0.33257  0.42152  0.74070  1.0000 -0.5435196857
O   O8        1.0  0.33257  0.07848  0.24070  1.0000 -0.5502791201
O   O9        1.0  0.21963  0.94100  0.05467  1.0000 -0.5561297278
O   O10       1.0  0.21963  0.55900  0.55467  1.0000 -0.5561297278
O   O11       1.0  0.35003  0.92020  0.09650  1.0000 -0.5435196857
O   O12       1.0  0.35003  0.57980  0.59650  1.0000 -0.5435196857
O   O13       1.0  0.33228  0.57086  0.74993  1.0000 -0.5435196857
O   O14       1.0  0.33228  0.92914  0.24993  1.0000 -0.5435196857
O   O15       1.0  0.20172  0.58826  0.70613  1.0000 -0.5502791201
O   O16       1.0  0.20172  0.91174  0.20613  1.0000 -0.5502791201
O   O17       1.0  0.64701  0.56994  0.41462  1.0000 -0.5502791201
O   O18       1.0  0.64701  0.93006  0.91462  1.0000 -0.5561297278
O   O19       1.0  0.78319  0.59103  0.41233  1.0000 -0.5435196857
O   O20       1.0  0.78319  0.90897  0.91233  1.0000 -0.5435196857
O   O21       1.0  0.80434  0.94138  0.76161  1.0000 -0.5502791201
O   O22       1.0  0.80434  0.55862  0.26161  1.0000 -0.5502791201
O   O23       1.0  0.66743  0.92152  0.75930  1.0000 -0.5435196857
O   O24       1.0  0.66743  0.57848  0.25930  1.0000 -0.5435196857
O   O25       1.0  0.78037  0.44100  0.44533  1.0000 -0.5561297278
O   O26       1.0  0.78037  0.05900  0.94533  1.0000 -0.5561297278
O   O27       1.0  0.64997  0.42020  0.40350  1.0000 -0.5435196857
O   O28       1.0  0.64997  0.07980  0.90350  1.0000 -0.5435196857
O   O29       1.0  0.66772  0.07086  0.75007  1.0000 -0.5435196857
O   O30       1.0  0.66772  0.42914  0.25007  1.0000 -0.5435196857
O   O31       1.0  0.79828  0.08826  0.79387  1.0000 -0.5502791201
O   O32       1.0  0.79828  0.41174  0.29387  1.0000 -0.5502791201
