# DDEC6 charges by PACMAN v1.1 (https://github.com/mtap-research/PACMAN-charge/)
data_2006[Zn][tfw]3[ASR]1
_chemical_formula_sum              "Zn4 P4 H20 C20 N4 O16"
_cell_length_a       11.764
_cell_length_b       11.764
_cell_length_c       9.0656
_cell_angle_alpha    89.8109
_cell_angle_beta     90.1891
_cell_angle_gamma    128.46

_symmetry_space_group_name_H-M    "P 1"
_symmetry_Int_Tables_number       1

loop_
  _symmetry_equiv_pos_as_xyz
  'x, y, z'

loop_
  _atom_site_type_symbol
  _atom_site_label
  _atom_site_symmetry_multiplicity
  _atom_site_fract_x
  _atom_site_fract_y
  _atom_site_fract_z
  _atom_site_occupancy
  _atom_site_charge
Zn  Zn1       1.0  0.29312  0.84624  0.92996  1.0000 0.9714392108
Zn  Zn2       1.0  0.84624  0.29312  0.57004  1.0000 0.9714392108
Zn  Zn3       1.0  0.70688  0.15376  0.07004  1.0000 0.9714392108
Zn  Zn4       1.0  0.15376  0.70688  0.42996  1.0000 0.9714392108
P   P1        1.0  0.12070  0.56456  0.73671  1.0000 1.4951992911
P   P2        1.0  0.56456  0.12070  0.76329  1.0000 1.4944232387
P   P3        1.0  0.87930  0.43544  0.26329  1.0000 1.4951992911
P   P4        1.0  0.43544  0.87930  0.23671  1.0000 1.4951992911
H   H1        1.0  0.16630  0.47270  0.88590  1.0000 0.3844449801
H   H2        1.0  0.47270  0.16630  0.61410  1.0000 0.3844449801
H   H3        1.0  0.83370  0.52730  0.11410  1.0000 0.3844449801
H   H4        1.0  0.52730  0.83370  0.38590  1.0000 0.3844449801
H   H5        1.0  0.38430  0.14410  0.01460  1.0000 0.1300789845
H   H6        1.0  0.14410  0.38430  0.48540  1.0000 0.1300789845
H   H7        1.0  0.61570  0.85590  0.98540  1.0000 0.1300789845
H   H8        1.0  0.85590  0.61570  0.51460  1.0000 0.1300789845
H   H9        1.0  0.29880  0.23800  0.15380  1.0000 0.1399002598
H   H10       1.0  0.23800  0.29880  0.34620  1.0000 0.1399002598
H   H11       1.0  0.70120  0.76200  0.84620  1.0000 0.1399002598
H   H12       1.0  0.76200  0.70120  0.65380  1.0000 0.1399002598
H   H13       1.0  0.93000  0.83460  0.21270  1.0000 0.1399002598
H   H14       1.0  0.83460  0.93000  0.28730  1.0000 0.1399002598
H   H15       1.0  0.07000  0.16540  0.78730  1.0000 0.1399002598
H   H16       1.0  0.16540  0.07000  0.71270  1.0000 0.1399002598
H   H17       1.0  0.02620  0.75220  0.06880  1.0000 0.1100489498
H   H18       1.0  0.75220  0.02620  0.43120  1.0000 0.1100489498
H   H19       1.0  0.97380  0.24780  0.93120  1.0000 0.1100489498
H   H20       1.0  0.24780  0.97380  0.56880  1.0000 0.1100489498
C   C1        1.0  0.29190  0.08110  0.05490  1.0000 0.099861933
C   C2        1.0  0.08110  0.29190  0.44510  1.0000 0.099861933
C   C3        1.0  0.70810  0.91890  0.94510  1.0000 0.099861933
C   C4        1.0  0.91890  0.70810  0.55490  1.0000 0.099861933
C   C5        1.0  0.24132  0.13828  0.13920  1.0000 -0.1878052986
C   C6        1.0  0.13828  0.24132  0.36080  1.0000 -0.1878052986
C   C7        1.0  0.75868  0.86172  0.86080  1.0000 -0.1878052986
C   C8        1.0  0.86172  0.75868  0.63920  1.0000 -0.1878052986
C   C9        1.0  0.10385  0.04655  0.20240  1.0000 0.1100489498
C   C10       1.0  0.04655  0.10385  0.29760  1.0000 0.1100489498
C   C11       1.0  0.89615  0.95345  0.79760  1.0000 0.1100489498
C   C12       1.0  0.95345  0.89615  0.70240  1.0000 0.1100489498
C   C13       1.0  0.02299  0.90001  0.17400  1.0000 -0.1878052986
C   C14       1.0  0.90001  0.02299  0.32600  1.0000 -0.1878052986
C   C15       1.0  0.97701  0.09999  0.82600  1.0000 -0.1878052986
C   C16       1.0  0.09999  0.97701  0.67400  1.0000 -0.1878052986
C   C17       1.0  0.08194  0.85126  0.08700  1.0000 0.099861933
C   C18       1.0  0.85126  0.08194  0.41300  1.0000 0.099861933
C   C19       1.0  0.91806  0.14874  0.91300  1.0000 0.099861933
C   C20       1.0  0.14874  0.91806  0.58700  1.0000 0.099861933
N   N1        1.0  0.21408  0.93912  0.02850  1.0000 -0.2456234748
N   N2        1.0  0.93912  0.21408  0.47150  1.0000 -0.2456234748
N   N3        1.0  0.78592  0.06088  0.97150  1.0000 -0.2456234748
N   N4        1.0  0.06088  0.78592  0.52850  1.0000 -0.2456234748
O   O1        1.0  0.12858  0.66956  0.84150  1.0000 -0.7967832329
O   O2        1.0  0.66956  0.12858  0.65850  1.0000 -0.7967832329
O   O3        1.0  0.87142  0.33044  0.15850  1.0000 -0.7967832329
O   O4        1.0  0.33044  0.87142  0.34150  1.0000 -0.7967832329
O   O5        1.0  0.36803  0.80017  0.09160  1.0000 -0.7967832329
O   O6        1.0  0.80017  0.36803  0.40840  1.0000 -0.7967832329
O   O7        1.0  0.63197  0.19983  0.90840  1.0000 -0.7967832329
O   O8        1.0  0.19983  0.63197  0.59160  1.0000 -0.7967832329
O   O9        1.0  0.96265  0.43747  0.71540  1.0000 -0.8112955707
O   O10       1.0  0.43747  0.96265  0.78460  1.0000 -0.8112955707
O   O11       1.0  0.03735  0.56253  0.28460  1.0000 -0.8112955707
O   O12       1.0  0.56253  0.03735  0.21540  1.0000 -0.8112955707
O   O13       1.0  0.20271  0.51129  0.80600  1.0000 -0.6544946301
O   O14       1.0  0.51129  0.20271  0.69400  1.0000 -0.6544946301
O   O15       1.0  0.79729  0.48871  0.19400  1.0000 -0.6544946301
O   O16       1.0  0.48871  0.79729  0.30600  1.0000 -0.6544946301
