# DDEC6 charges by PACMAN v1.1 (https://github.com/mtap-research/PACMAN-charge/)
data_2006[Zn][dia]3[ASR]4
_chemical_formula_sum              "Zn12 H24 C24 O48"
_cell_length_a       11.3108
_cell_length_b       9.8274
_cell_length_c       18.1577
_cell_angle_alpha    90
_cell_angle_beta     126.996
_cell_angle_gamma    90

_symmetry_space_group_name_H-M    "P 1"
_symmetry_Int_Tables_number       1

loop_
  _symmetry_equiv_pos_as_xyz
  'x, y, z'

loop_
  _atom_site_type_symbol
  _atom_site_label
  _atom_site_symmetry_multiplicity
  _atom_site_fract_x
  _atom_site_fract_y
  _atom_site_fract_z
  _atom_site_occupancy
  _atom_site_charge
Zn  Zn1       1.0  0.62537  0.91929  0.86750  1.0000 0.9481282694
Zn  Zn2       1.0  0.37463  0.41929  0.63250  1.0000 0.9481282694
Zn  Zn3       1.0  0.37463  0.08071  0.13250  1.0000 0.9481282694
Zn  Zn4       1.0  0.62537  0.58071  0.36750  1.0000 0.9481282694
Zn  Zn5       1.0  0.42816  0.10555  0.68676  1.0000 0.9254884732
Zn  Zn6       1.0  0.57184  0.60555  0.81324  1.0000 0.9254884732
Zn  Zn7       1.0  0.57184  0.89445  0.31324  1.0000 0.9249913705
Zn  Zn8       1.0  0.42816  0.39445  0.18676  1.0000 0.9254884732
Zn  Zn9       1.0  0.50000  0.00000  0.00000  1.0000 0.9481282694
Zn  Zn10      1.0  0.50000  0.50000  0.50000  1.0000 0.9481282694
Zn  Zn11      1.0  0.00000  0.00000  0.00000  1.0000 0.9481282694
Zn  Zn12      1.0  0.00000  0.50000  0.50000  1.0000 0.9481282694
H   H1        1.0  0.49590  0.75180  0.63310  1.0000 0.0885491361
H   H2        1.0  0.50410  0.25180  0.86690  1.0000 0.0885491361
H   H3        1.0  0.50410  0.24820  0.36690  1.0000 0.0885491361
H   H4        1.0  0.49590  0.74820  0.13310  1.0000 0.0885491361
H   H5        1.0  0.21230  0.03590  0.73420  1.0000 0.0885491361
H   H6        1.0  0.78770  0.53590  0.76580  1.0000 0.0885491361
H   H7        1.0  0.78770  0.96410  0.26580  1.0000 0.0885491361
H   H8        1.0  0.21230  0.46410  0.23420  1.0000 0.0885491361
H   H9        1.0  0.51340  0.61580  0.95620  1.0000 0.0885491361
H   H10       1.0  0.48660  0.11580  0.54380  1.0000 0.0885491361
H   H11       1.0  0.48660  0.38420  0.04380  1.0000 0.0885491361
H   H12       1.0  0.51340  0.88420  0.45620  1.0000 0.0885491361
H   H13       1.0  0.75210  0.18460  0.76600  1.0000 0.0885491361
H   H14       1.0  0.24790  0.68460  0.73400  1.0000 0.0885491361
H   H15       1.0  0.24790  0.81540  0.23400  1.0000 0.0885491361
H   H16       1.0  0.75210  0.31540  0.26600  1.0000 0.0885491361
H   H17       1.0  0.76850  0.15470  0.07240  1.0000 0.0839466987
H   H18       1.0  0.23150  0.65470  0.42760  1.0000 0.0839466987
H   H19       1.0  0.23150  0.84530  0.92760  1.0000 0.0839466987
H   H20       1.0  0.76850  0.34530  0.57240  1.0000 0.0839466987
H   H21       1.0  0.98180  0.70110  0.99120  1.0000 0.0885491361
H   H22       1.0  0.01820  0.20110  0.50880  1.0000 0.0885491361
H   H23       1.0  0.01820  0.29890  0.00880  1.0000 0.0885491361
H   H24       1.0  0.98180  0.79890  0.49120  1.0000 0.0885491361
C   C1        1.0  0.50220  0.82390  0.67010  1.0000 0.4915082864
C   C2        1.0  0.49780  0.32390  0.82990  1.0000 0.4915082864
C   C3        1.0  0.49780  0.17610  0.32990  1.0000 0.4915082864
C   C4        1.0  0.50220  0.67610  0.17010  1.0000 0.4915082864
C   C5        1.0  0.30800  0.01480  0.78840  1.0000 0.473274714
C   C6        1.0  0.69200  0.51480  0.71160  1.0000 0.473274714
C   C7        1.0  0.69200  0.98520  0.21160  1.0000 0.473274714
C   C8        1.0  0.30800  0.48520  0.28840  1.0000 0.473274714
C   C9        1.0  0.52220  0.71010  0.94900  1.0000 0.473274714
C   C10       1.0  0.47780  0.21010  0.55100  1.0000 0.473274714
C   C11       1.0  0.47780  0.28990  0.05100  1.0000 0.473274714
C   C12       1.0  0.52220  0.78990  0.44900  1.0000 0.473274714
C   C13       1.0  0.76980  0.12500  0.81290  1.0000 0.473274714
C   C14       1.0  0.23020  0.62500  0.68710  1.0000 0.473274714
C   C15       1.0  0.23020  0.87500  0.18710  1.0000 0.473274714
C   C16       1.0  0.76980  0.37500  0.31290  1.0000 0.473274714
C   C17       1.0  0.77130  0.10190  0.02960  1.0000 0.4915082864
C   C18       1.0  0.22870  0.60190  0.47040  1.0000 0.4915082864
C   C19       1.0  0.22870  0.89810  0.97040  1.0000 0.4915082864
C   C20       1.0  0.77130  0.39810  0.52960  1.0000 0.4915082864
C   C21       1.0  0.87860  0.71880  0.94900  1.0000 0.4915082864
C   C22       1.0  0.12140  0.21880  0.55100  1.0000 0.4915082864
C   C23       1.0  0.12140  0.28120  0.05100  1.0000 0.4915082864
C   C24       1.0  0.87860  0.78120  0.44900  1.0000 0.4915082864
O   O1        1.0  0.56380  0.79700  0.75440  1.0000 -0.5399462345
O   O2        1.0  0.43620  0.29700  0.74560  1.0000 -0.5399462345
O   O3        1.0  0.43620  0.20300  0.24560  1.0000 -0.5399462345
O   O4        1.0  0.56380  0.70300  0.25440  1.0000 -0.5399462345
O   O5        1.0  0.44900  0.93620  0.63110  1.0000 -0.4993971052
O   O6        1.0  0.55100  0.43620  0.86890  1.0000 -0.4993971052
O   O7        1.0  0.55100  0.06380  0.36890  1.0000 -0.4993971052
O   O8        1.0  0.44900  0.56380  0.13110  1.0000 -0.4993971052
O   O9        1.0  0.41130  0.00340  0.78040  1.0000 -0.5399462345
O   O10       1.0  0.58870  0.50340  0.71960  1.0000 -0.5399462345
O   O11       1.0  0.58870  0.99660  0.21960  1.0000 -0.5399462345
O   O12       1.0  0.41130  0.49660  0.28040  1.0000 -0.5399462345
O   O13       1.0  0.32050  0.00080  0.86080  1.0000 -0.4993971052
O   O14       1.0  0.67950  0.50080  0.63920  1.0000 -0.4993971052
O   O15       1.0  0.67950  0.99920  0.13920  1.0000 -0.4993971052
O   O16       1.0  0.32050  0.49920  0.36080  1.0000 -0.4993971052
O   O17       1.0  0.54240  0.74230  0.88980  1.0000 -0.5399462345
O   O18       1.0  0.45760  0.24230  0.61020  1.0000 -0.5399462345
O   O19       1.0  0.45760  0.25770  0.11020  1.0000 -0.5399462345
O   O20       1.0  0.54240  0.75770  0.38980  1.0000 -0.5399462345
O   O21       1.0  0.51280  0.78910  0.99840  1.0000 -0.4993971052
O   O22       1.0  0.48720  0.28910  0.50160  1.0000 -0.4993971052
O   O23       1.0  0.48720  0.21090  0.00160  1.0000 -0.4993971052
O   O24       1.0  0.51280  0.71090  0.49840  1.0000 -0.4993971052
O   O25       1.0  0.65570  0.08060  0.80420  1.0000 -0.5472415599
O   O26       1.0  0.34430  0.58060  0.69580  1.0000 -0.5472415599
O   O27       1.0  0.34430  0.91940  0.19580  1.0000 -0.5472415599
O   O28       1.0  0.65570  0.41940  0.30420  1.0000 -0.5472415599
O   O29       1.0  0.90100  0.09860  0.87590  1.0000 -0.4841319012
O   O30       1.0  0.09900  0.59860  0.62410  1.0000 -0.4841319012
O   O31       1.0  0.09900  0.90140  0.12410  1.0000 -0.4841319012
O   O32       1.0  0.90100  0.40140  0.37590  1.0000 -0.4841319012
O   O33       1.0  0.66110  0.02250  0.97660  1.0000 -0.5472415599
O   O34       1.0  0.33890  0.52250  0.52340  1.0000 -0.5472415599
O   O35       1.0  0.33890  0.97750  0.02340  1.0000 -0.5472415599
O   O36       1.0  0.66110  0.47750  0.47660  1.0000 -0.5472415599
O   O37       1.0  0.88040  0.11660  0.03050  1.0000 -0.5066737371
O   O38       1.0  0.11960  0.61660  0.46950  1.0000 -0.5066737371
O   O39       1.0  0.11960  0.88340  0.96950  1.0000 -0.5066737371
O   O40       1.0  0.88040  0.38340  0.53050  1.0000 -0.5066737371
O   O41       1.0  0.83800  0.84320  0.94020  1.0000 -0.5399462345
O   O42       1.0  0.16200  0.34320  0.55980  1.0000 -0.5399462345
O   O43       1.0  0.16200  0.15680  0.05980  1.0000 -0.5399462345
O   O44       1.0  0.83800  0.65680  0.44020  1.0000 -0.5399462345
O   O45       1.0  0.79680  0.61940  0.90820  1.0000 -0.4993971052
O   O46       1.0  0.20320  0.11940  0.59180  1.0000 -0.4993971052
O   O47       1.0  0.20320  0.38060  0.09180  1.0000 -0.4993971052
O   O48       1.0  0.79680  0.88060  0.40820  1.0000 -0.4993971052
