# DDEC6 charges by PACMAN v1.1 (https://github.com/mtap-research/PACMAN-charge/)
data_2007[CuW][pcu]3[ASR]1
_chemical_formula_sum              "Cu12 H64 W4 C80 S12 I6 N16"
_cell_length_a       15.3163
_cell_length_b       15.3163
_cell_length_c       16.881
_cell_angle_alpha    82.0817
_cell_angle_beta     97.9183
_cell_angle_gamma    71.6381

_symmetry_space_group_name_H-M    "P 1"
_symmetry_Int_Tables_number       1

loop_
  _symmetry_equiv_pos_as_xyz
  'x, y, z'

loop_
  _atom_site_type_symbol
  _atom_site_label
  _atom_site_symmetry_multiplicity
  _atom_site_fract_x
  _atom_site_fract_y
  _atom_site_fract_z
  _atom_site_occupancy
  _atom_site_charge
Cu  Cu1       1.0  0.34547  0.14581  0.60015  1.0000 0.2773187924
Cu  Cu2       1.0  0.14581  0.34547  0.89985  1.0000 0.2773187924
Cu  Cu3       1.0  0.65453  0.85419  0.39985  1.0000 0.2773187924
Cu  Cu4       1.0  0.85419  0.65453  0.10015  1.0000 0.2773187924
Cu  Cu5       1.0  0.04102  0.14606  0.90412  1.0000 0.2992323614
Cu  Cu6       1.0  0.14606  0.04102  0.59588  1.0000 0.2992323614
Cu  Cu7       1.0  0.95898  0.85394  0.09588  1.0000 0.305401953
Cu  Cu8       1.0  0.85394  0.95898  0.40412  1.0000 0.2992323614
Cu  Cu9       1.0  0.80074  0.83416  0.59147  1.0000 0.2992323614
Cu  Cu10      1.0  0.83416  0.80074  0.90853  1.0000 0.2992323614
Cu  Cu11      1.0  0.19926  0.16584  0.40853  1.0000 0.2992323614
Cu  Cu12      1.0  0.16584  0.19926  0.09147  1.0000 0.2992323614
H   H1        1.0  0.18530  0.22950  0.67690  1.0000 0.1092935795
H   H2        1.0  0.22950  0.18530  0.82310  1.0000 0.1092935795
H   H3        1.0  0.81470  0.77050  0.32310  1.0000 0.1092935795
H   H4        1.0  0.77050  0.81470  0.17690  1.0000 0.1092935795
H   H5        1.0  0.06470  0.35810  0.66400  1.0000 0.1391161749
H   H6        1.0  0.35810  0.06470  0.83600  1.0000 0.1391161749
H   H7        1.0  0.93530  0.64190  0.33600  1.0000 0.1391161749
H   H8        1.0  0.64190  0.93530  0.16400  1.0000 0.1391161749
H   H9        1.0  0.18990  0.48790  0.52240  1.0000 0.1391161749
H   H10       1.0  0.48790  0.18990  0.97760  1.0000 0.1391161749
H   H11       1.0  0.81010  0.51210  0.47760  1.0000 0.1391161749
H   H12       1.0  0.51210  0.81010  0.02240  1.0000 0.1391161749
H   H13       1.0  0.31240  0.35000  0.55370  1.0000 0.1092935795
H   H14       1.0  0.35000  0.31240  0.94630  1.0000 0.1092935795
H   H15       1.0  0.68760  0.65000  0.44630  1.0000 0.1092935795
H   H16       1.0  0.65000  0.68760  0.05370  1.0000 0.1092935795
H   H17       1.0  0.42410  0.25250  0.71050  1.0000 0.0990184823
H   H18       1.0  0.25250  0.42410  0.78950  1.0000 0.0990184823
H   H19       1.0  0.57590  0.74750  0.28950  1.0000 0.0990184823
H   H20       1.0  0.74750  0.57590  0.21050  1.0000 0.0990184823
H   H21       1.0  0.56580  0.24540  0.78150  1.0000 0.1312358417
H   H22       1.0  0.24540  0.56580  0.71850  1.0000 0.1312358417
H   H23       1.0  0.43420  0.75460  0.21850  1.0000 0.1312358417
H   H24       1.0  0.75460  0.43420  0.28150  1.0000 0.1312358417
H   H25       1.0  0.68510  0.03310  0.68160  1.0000 0.1391161749
H   H26       1.0  0.03310  0.68510  0.81840  1.0000 0.1391161749
H   H27       1.0  0.31490  0.96690  0.31840  1.0000 0.1391161749
H   H28       1.0  0.96690  0.31490  0.18160  1.0000 0.1391161749
H   H29       1.0  0.54890  0.04150  0.61730  1.0000 0.1246709098
H   H30       1.0  0.04150  0.54890  0.88270  1.0000 0.1246709098
H   H31       1.0  0.45110  0.95850  0.38270  1.0000 0.1246709098
H   H32       1.0  0.95850  0.45110  0.11730  1.0000 0.1246709098
H   H33       1.0  0.96880  0.75820  0.52340  1.0000 0.0990184823
H   H34       1.0  0.75820  0.96880  0.97660  1.0000 0.0990184823
H   H35       1.0  0.03120  0.24180  0.47660  1.0000 0.0990184823
H   H36       1.0  0.24180  0.03120  0.02340  1.0000 0.0990184823
H   H37       1.0  0.07510  0.61770  0.51600  1.0000 0.1312358417
H   H38       1.0  0.61770  0.07510  0.98400  1.0000 0.1312358417
H   H39       1.0  0.92490  0.38230  0.48400  1.0000 0.1312358417
H   H40       1.0  0.38230  0.92490  0.01600  1.0000 0.1312358417
H   H41       1.0  0.95660  0.48240  0.65520  1.0000 0.1312358417
H   H42       1.0  0.48240  0.95660  0.84480  1.0000 0.1312358417
H   H43       1.0  0.04340  0.51760  0.34480  1.0000 0.1312358417
H   H44       1.0  0.51760  0.04340  0.15520  1.0000 0.1312358417
H   H45       1.0  0.84630  0.62230  0.65610  1.0000 0.1092935795
H   H46       1.0  0.62230  0.84630  0.84390  1.0000 0.1092935795
H   H47       1.0  0.15370  0.37770  0.34390  1.0000 0.1092935795
H   H48       1.0  0.37770  0.15370  0.15610  1.0000 0.1092935795
H   H49       1.0  0.95180  0.01980  0.82260  1.0000 0.1092935795
H   H50       1.0  0.01980  0.95180  0.67740  1.0000 0.1092935795
H   H51       1.0  0.04820  0.98020  0.17740  1.0000 0.1092935795
H   H52       1.0  0.98020  0.04820  0.32260  1.0000 0.1092935795
H   H53       1.0  0.81430  0.01610  0.76190  1.0000 0.1312358417
H   H54       1.0  0.01610  0.81430  0.73810  1.0000 0.1312358417
H   H55       1.0  0.18570  0.98390  0.23810  1.0000 0.1312358417
H   H56       1.0  0.98390  0.18570  0.26190  1.0000 0.1312358417
H   H57       1.0  0.69520  0.27200  0.79920  1.0000 0.1092935795
H   H58       1.0  0.27200  0.69520  0.70080  1.0000 0.1092935795
H   H59       1.0  0.30480  0.72800  0.20080  1.0000 0.1092935795
H   H60       1.0  0.72800  0.30480  0.29920  1.0000 0.1092935795
H   H61       1.0  0.84040  0.26800  0.87240  1.0000 0.0900833924
H   H62       1.0  0.26800  0.84040  0.62760  1.0000 0.0900833924
H   H63       1.0  0.15960  0.73200  0.12760  1.0000 0.0900833924
H   H64       1.0  0.73200  0.15960  0.37240  1.0000 0.0900833924
W   W1        1.0  0.29946  0.01728  0.52744  1.0000 0.7131046672
W   W2        1.0  0.01728  0.29946  0.97256  1.0000 0.7159779091
W   W3        1.0  0.70054  0.98272  0.47256  1.0000 0.7131046672
W   W4        1.0  0.98272  0.70054  0.02744  1.0000 0.7131046672
C   C1        1.0  0.18430  0.28370  0.64380  1.0000 0.0512982412
C   C2        1.0  0.28370  0.18430  0.85620  1.0000 0.0512982412
C   C3        1.0  0.81570  0.71630  0.35620  1.0000 0.0512982412
C   C4        1.0  0.71630  0.81570  0.14380  1.0000 0.0512982412
C   C5        1.0  0.11510  0.36030  0.63980  1.0000 -0.213576382
C   C6        1.0  0.36030  0.11510  0.86020  1.0000 -0.213576382
C   C7        1.0  0.88490  0.63970  0.36020  1.0000 -0.213576382
C   C8        1.0  0.63970  0.88490  0.13980  1.0000 -0.213576382
C   C9        1.0  0.11560  0.44580  0.59980  1.0000 0.1092935795
C   C10       1.0  0.44580  0.11560  0.90020  1.0000 0.1092935795
C   C11       1.0  0.88440  0.55420  0.40020  1.0000 0.1092935795
C   C12       1.0  0.55420  0.88440  0.09980  1.0000 0.1092935795
C   C13       1.0  0.18800  0.43720  0.55840  1.0000 -0.2345784287
C   C14       1.0  0.43720  0.18800  0.94160  1.0000 -0.2345784287
C   C15       1.0  0.81200  0.56280  0.44160  1.0000 -0.2345784287
C   C16       1.0  0.56280  0.81200  0.05840  1.0000 -0.2345784287
C   C17       1.0  0.25710  0.35210  0.57140  1.0000 0.076054262
C   C18       1.0  0.35210  0.25710  0.92860  1.0000 0.076054262
C   C19       1.0  0.74290  0.64790  0.42860  1.0000 0.076054262
C   C20       1.0  0.64790  0.74290  0.07140  1.0000 0.076054262
C   C21       1.0  0.47800  0.20660  0.70450  1.0000 0.0626009769
C   C22       1.0  0.20660  0.47800  0.79550  1.0000 0.0626009769
C   C23       1.0  0.52200  0.79340  0.29550  1.0000 0.0626009769
C   C24       1.0  0.79340  0.52200  0.20450  1.0000 0.0626009769
C   C25       1.0  0.56370  0.20370  0.74670  1.0000 -0.213576382
C   C26       1.0  0.20370  0.56370  0.75330  1.0000 -0.213576382
C   C27       1.0  0.43630  0.79630  0.25330  1.0000 -0.213576382
C   C28       1.0  0.79630  0.43630  0.24670  1.0000 -0.213576382
C   C29       1.0  0.64360  0.14060  0.73740  1.0000 0.1092935795
C   C30       1.0  0.14060  0.64360  0.76260  1.0000 0.1092935795
C   C31       1.0  0.35640  0.85940  0.26260  1.0000 0.1092935795
C   C32       1.0  0.85940  0.35640  0.23740  1.0000 0.1092935795
C   C33       1.0  0.63220  0.08000  0.68830  1.0000 -0.1795835393
C   C34       1.0  0.08000  0.63220  0.81170  1.0000 -0.1795835393
C   C35       1.0  0.36780  0.92000  0.31170  1.0000 -0.1795835393
C   C36       1.0  0.92000  0.36780  0.18830  1.0000 -0.1795835393
C   C37       1.0  0.55100  0.08460  0.65060  1.0000 0.0305322647
C   C38       1.0  0.08460  0.55100  0.84940  1.0000 0.0305322647
C   C39       1.0  0.44900  0.91540  0.34940  1.0000 0.0305322647
C   C40       1.0  0.91540  0.44900  0.15060  1.0000 0.0305322647
C   C41       1.0  0.96520  0.70320  0.55130  1.0000 0.1092935795
C   C42       1.0  0.70320  0.96520  0.94870  1.0000 0.1092935795
C   C43       1.0  0.03480  0.29680  0.44870  1.0000 0.1092935795
C   C44       1.0  0.29680  0.03480  0.05130  1.0000 0.1092935795
C   C45       1.0  0.03230  0.61830  0.55030  1.0000 -0.1988716852
C   C46       1.0  0.61830  0.03230  0.94970  1.0000 -0.1988716852
C   C47       1.0  0.96770  0.38170  0.44970  1.0000 -0.1988716852
C   C48       1.0  0.38170  0.96770  0.05030  1.0000 -0.1988716852
C   C49       1.0  0.03890  0.53790  0.59570  1.0000 0.0990184823
C   C50       1.0  0.53790  0.03890  0.90430  1.0000 0.0990184823
C   C51       1.0  0.96110  0.46210  0.40430  1.0000 0.0990184823
C   C52       1.0  0.46210  0.96110  0.09570  1.0000 0.0990184823
C   C53       1.0  0.96230  0.53830  0.63100  1.0000 -0.1886778629
C   C54       1.0  0.53830  0.96230  0.86900  1.0000 -0.1886778629
C   C55       1.0  0.03770  0.46170  0.36900  1.0000 -0.1886778629
C   C56       1.0  0.46170  0.03770  0.13100  1.0000 -0.1886778629
C   C57       1.0  0.89580  0.62160  0.62960  1.0000 0.0305322647
C   C58       1.0  0.62160  0.89580  0.87040  1.0000 0.0305322647
C   C59       1.0  0.10420  0.37840  0.37040  1.0000 0.0305322647
C   C60       1.0  0.37840  0.10420  0.12960  1.0000 0.0305322647
C   C61       1.0  0.89900  0.07120  0.82140  1.0000 0.1092935795
C   C62       1.0  0.07120  0.89900  0.67860  1.0000 0.0990184823
C   C63       1.0  0.10100  0.92880  0.17860  1.0000 0.0990184823
C   C64       1.0  0.92880  0.10100  0.32140  1.0000 0.0990184823
C   C65       1.0  0.81580  0.06820  0.78360  1.0000 -0.168784419
C   C66       1.0  0.06820  0.81580  0.71640  1.0000 -0.168784419
C   C67       1.0  0.18420  0.93180  0.21640  1.0000 -0.168784419
C   C68       1.0  0.93180  0.18420  0.28360  1.0000 -0.168784419
C   C69       1.0  0.73700  0.13900  0.77740  1.0000 0.0900833924
C   C70       1.0  0.13900  0.73700  0.72260  1.0000 0.0900833924
C   C71       1.0  0.26300  0.86100  0.22260  1.0000 0.0900833924
C   C72       1.0  0.86100  0.26300  0.27740  1.0000 0.0900833924
C   C73       1.0  0.74730  0.21790  0.80740  1.0000 -0.1988716852
C   C74       1.0  0.21790  0.74730  0.69260  1.0000 -0.1988716852
C   C75       1.0  0.25270  0.78210  0.19260  1.0000 -0.1988716852
C   C76       1.0  0.78210  0.25270  0.30740  1.0000 -0.1988716852
C   C77       1.0  0.83550  0.21730  0.84990  1.0000 0.0626009769
C   C78       1.0  0.21730  0.83550  0.65010  1.0000 0.0626009769
C   C79       1.0  0.16450  0.78270  0.15010  1.0000 0.0626009769
C   C80       1.0  0.78270  0.16450  0.34990  1.0000 0.0626009769
S   S1        1.0  0.04399  0.15403  0.03967  1.0000 -0.4495402481
S   S2        1.0  0.15403  0.04399  0.46033  1.0000 -0.4495402481
S   S3        1.0  0.95601  0.84597  0.96033  1.0000 -0.4495402481
S   S4        1.0  0.84597  0.95601  0.53967  1.0000 -0.4495402481
S   S5        1.0  0.29374  0.03178  0.65729  1.0000 -0.4734679782
S   S6        1.0  0.03178  0.29374  0.84271  1.0000 -0.4734679782
S   S7        1.0  0.70626  0.96822  0.34271  1.0000 -0.4734679782
S   S8        1.0  0.96822  0.70626  0.15729  1.0000 -0.4734679782
S   S9        1.0  0.35269  0.12701  0.46995  1.0000 -0.4734679782
S   S10       1.0  0.12701  0.35269  0.03005  1.0000 -0.4734679782
S   S11       1.0  0.64731  0.87299  0.53005  1.0000 -0.4734679782
S   S12       1.0  0.87299  0.64731  0.96995  1.0000 -0.4789961796
I   I1        1.0  0.15529  0.00593  0.86294  1.0000 -0.4789961796
I   I2        1.0  0.00593  0.15529  0.63706  1.0000 -0.4789961796
I   I3        1.0  0.84471  0.99407  0.13706  1.0000 -0.4789961796
I   I4        1.0  0.99407  0.84471  0.36294  1.0000 -0.4789961796
I   I5        1.0  0.80791  0.80791  0.75000  1.0000 -0.4572653304
I   I6        1.0  0.19209  0.19209  0.25000  1.0000 -0.4572653304
N   N1        1.0  0.25180  0.27820  0.60480  1.0000 -0.1795835393
N   N2        1.0  0.27820  0.25180  0.89520  1.0000 -0.1795835393
N   N3        1.0  0.74820  0.72180  0.39520  1.0000 -0.1886778629
N   N4        1.0  0.72180  0.74820  0.10480  1.0000 -0.1886778629
N   N5        1.0  0.89830  0.70730  0.58960  1.0000 -0.1795835393
N   N6        1.0  0.70730  0.89830  0.91040  1.0000 -0.1795835393
N   N7        1.0  0.10170  0.29270  0.41040  1.0000 -0.1795835393
N   N8        1.0  0.29270  0.10170  0.08960  1.0000 -0.1795835393
N   N9        1.0  0.91310  0.13770  0.85580  1.0000 -0.1795835393
N   N10       1.0  0.13770  0.91310  0.64420  1.0000 -0.1795835393
N   N11       1.0  0.08690  0.86230  0.14420  1.0000 -0.1795835393
N   N12       1.0  0.86230  0.08690  0.35580  1.0000 -0.1795835393
N   N13       1.0  0.46920  0.14780  0.65650  1.0000 -0.1795835393
N   N14       1.0  0.14780  0.46920  0.84350  1.0000 -0.1795835393
N   N15       1.0  0.53080  0.85220  0.34350  1.0000 -0.1795835393
N   N16       1.0  0.85220  0.53080  0.15650  1.0000 -0.1795835393
