# DDEC6 charges by PACMAN v1.1 (https://github.com/mtap-research/PACMAN-charge/)
data_2007[Mn][dia]3[ASR]1
_chemical_formula_sum              "Mn12 H24 C24 O48"
_cell_length_a       11.624
_cell_length_b       10.165
_cell_length_c       18.5457
_cell_angle_alpha    90
_cell_angle_beta     127.397
_cell_angle_gamma    90

_symmetry_space_group_name_H-M    "P 1"
_symmetry_Int_Tables_number       1

loop_
  _symmetry_equiv_pos_as_xyz
  'x, y, z'

loop_
  _atom_site_type_symbol
  _atom_site_label
  _atom_site_symmetry_multiplicity
  _atom_site_fract_x
  _atom_site_fract_y
  _atom_site_fract_z
  _atom_site_occupancy
  _atom_site_charge
Mn  Mn1       1.0  0.12434  0.08549  0.86828  1.0000 0.9688522159
Mn  Mn2       1.0  0.87566  0.58549  0.63172  1.0000 0.9688522159
Mn  Mn3       1.0  0.87566  0.91451  0.13172  1.0000 0.9688522159
Mn  Mn4       1.0  0.12434  0.41451  0.36828  1.0000 0.9688522159
Mn  Mn5       1.0  0.00000  0.00000  0.00000  1.0000 0.99496136
Mn  Mn6       1.0  0.00000  0.50000  0.50000  1.0000 0.99496136
Mn  Mn7       1.0  0.92204  0.90075  0.68359  1.0000 0.978843966
Mn  Mn8       1.0  0.07796  0.40075  0.81641  1.0000 0.978843966
Mn  Mn9       1.0  0.07796  0.09925  0.31641  1.0000 0.978843966
Mn  Mn10      1.0  0.92204  0.59925  0.18359  1.0000 0.978843966
Mn  Mn11      1.0  0.50000  0.00000  0.00000  1.0000 1.0015960722
Mn  Mn12      1.0  0.50000  0.50000  0.50000  1.0000 1.0015960722
H   H1        1.0  0.70860  0.97760  0.73250  1.0000 0.0901789468
H   H2        1.0  0.29140  0.47760  0.76750  1.0000 0.0901789468
H   H3        1.0  0.29140  0.02240  0.26750  1.0000 0.0901789468
H   H4        1.0  0.70860  0.52240  0.23250  1.0000 0.0901789468
H   H5        1.0  0.01830  0.38250  0.96200  1.0000 0.0901789468
H   H6        1.0  0.98170  0.88250  0.53800  1.0000 0.0901789468
H   H7        1.0  0.98170  0.61750  0.03800  1.0000 0.0901789468
H   H8        1.0  0.01830  0.11750  0.46200  1.0000 0.0901789468
H   H9        1.0  0.99690  0.25210  0.63350  1.0000 0.0901789468
H   H10       1.0  0.00310  0.75210  0.86650  1.0000 0.0901789468
H   H11       1.0  0.00310  0.74790  0.36650  1.0000 0.0901789468
H   H12       1.0  0.99690  0.24790  0.13350  1.0000 0.0901789468
H   H13       1.0  0.48650  0.29770  0.99420  1.0000 0.0901789468
H   H14       1.0  0.51350  0.79770  0.50580  1.0000 0.0901789468
H   H15       1.0  0.51350  0.70230  0.00580  1.0000 0.0901789468
H   H16       1.0  0.48650  0.20230  0.49420  1.0000 0.0901789468
H   H17       1.0  0.24230  0.82150  0.76210  1.0000 0.0901789468
H   H18       1.0  0.75770  0.32150  0.73790  1.0000 0.0901789468
H   H19       1.0  0.75770  0.17850  0.23790  1.0000 0.0901789468
H   H20       1.0  0.24230  0.67850  0.26210  1.0000 0.0901789468
H   H21       1.0  0.26950  0.83980  0.06980  1.0000 0.0901789468
H   H22       1.0  0.73050  0.33980  0.43020  1.0000 0.0901789468
H   H23       1.0  0.73050  0.16020  0.93020  1.0000 0.0901789468
H   H24       1.0  0.26950  0.66020  0.56980  1.0000 0.0901789468
C   C1        1.0  0.80325  0.99440  0.78634  1.0000 0.4660630289
C   C2        1.0  0.19675  0.49440  0.71366  1.0000 0.4660630289
C   C3        1.0  0.19675  0.00560  0.21366  1.0000 0.4660630289
C   C4        1.0  0.80325  0.50560  0.28634  1.0000 0.4660630289
C   C5        1.0  0.02740  0.29203  0.95334  1.0000 0.4660630289
C   C6        1.0  0.97260  0.79203  0.54666  1.0000 0.4660630289
C   C7        1.0  0.97260  0.70797  0.04666  1.0000 0.4660630289
C   C8        1.0  0.02740  0.20797  0.45334  1.0000 0.4660630289
C   C9        1.0  0.99989  0.18332  0.66928  1.0000 0.4894904136
C   C10       1.0  0.00011  0.68332  0.83072  1.0000 0.4894904136
C   C11       1.0  0.00011  0.81668  0.33072  1.0000 0.4894904136
C   C12       1.0  0.99989  0.31668  0.16928  1.0000 0.4894904136
C   C13       1.0  0.38512  0.28238  0.95320  1.0000 0.4894904136
C   C14       1.0  0.61488  0.78238  0.54680  1.0000 0.4894904136
C   C15       1.0  0.61488  0.71762  0.04680  1.0000 0.4894904136
C   C16       1.0  0.38512  0.21762  0.45320  1.0000 0.4894904136
C   C17       1.0  0.26209  0.87986  0.80847  1.0000 0.4660630289
C   C18       1.0  0.73791  0.37986  0.69153  1.0000 0.4660630289
C   C19       1.0  0.73791  0.12014  0.19153  1.0000 0.4660630289
C   C20       1.0  0.26209  0.62014  0.30847  1.0000 0.4660630289
C   C21       1.0  0.27196  0.89497  0.02940  1.0000 0.4838048084
C   C22       1.0  0.72804  0.39497  0.47060  1.0000 0.4838048084
C   C23       1.0  0.72804  0.10503  0.97060  1.0000 0.4838048084
C   C24       1.0  0.27196  0.60503  0.52940  1.0000 0.4838048084
O   O1        1.0  0.90525  0.00177  0.77908  1.0000 -0.5582057596
O   O2        1.0  0.09475  0.50177  0.72092  1.0000 -0.5582057596
O   O3        1.0  0.09475  0.99823  0.22092  1.0000 -0.5582057596
O   O4        1.0  0.90525  0.49823  0.27908  1.0000 -0.5582057596
O   O5        1.0  0.04758  0.26400  0.89442  1.0000 -0.5653775246
O   O6        1.0  0.95242  0.76400  0.60558  1.0000 -0.5653775246
O   O7        1.0  0.95242  0.73600  0.10558  1.0000 -0.5653775246
O   O8        1.0  0.04758  0.23600  0.39442  1.0000 -0.5653775246
O   O9        1.0  0.06156  0.20867  0.75264  1.0000 -0.5582057596
O   O10       1.0  0.93844  0.70867  0.74736  1.0000 -0.5582057596
O   O11       1.0  0.93844  0.79133  0.24736  1.0000 -0.5582057596
O   O12       1.0  0.06156  0.29133  0.25264  1.0000 -0.5582057596
O   O13       1.0  0.34222  0.16327  0.94275  1.0000 -0.5513562919
O   O14       1.0  0.65778  0.66327  0.55725  1.0000 -0.5513562919
O   O15       1.0  0.65778  0.83673  0.05725  1.0000 -0.5513562919
O   O16       1.0  0.34222  0.33673  0.44275  1.0000 -0.5513562919
O   O17       1.0  0.15343  0.92556  0.80131  1.0000 -0.5582057596
O   O18       1.0  0.84657  0.42556  0.69869  1.0000 -0.5582057596
O   O19       1.0  0.84657  0.07444  0.19869  1.0000 -0.5582057596
O   O20       1.0  0.15343  0.57444  0.30131  1.0000 -0.5582057596
O   O21       1.0  0.16379  0.97174  0.97809  1.0000 -0.5582057596
O   O22       1.0  0.83621  0.47174  0.52191  1.0000 -0.5582057596
O   O23       1.0  0.83621  0.02826  0.02191  1.0000 -0.5582057596
O   O24       1.0  0.16379  0.52826  0.47809  1.0000 -0.5582057596
O   O25       1.0  0.81698  0.00728  0.85731  1.0000 -0.4906791174
O   O26       1.0  0.18302  0.50728  0.64269  1.0000 -0.4906791174
O   O27       1.0  0.18302  0.99272  0.14269  1.0000 -0.4906791174
O   O28       1.0  0.81698  0.49272  0.35731  1.0000 -0.4906791174
O   O29       1.0  0.01864  0.21162  0.99991  1.0000 -0.5017095368
O   O30       1.0  0.98136  0.71162  0.50009  1.0000 -0.5017095368
O   O31       1.0  0.98136  0.78838  0.00009  1.0000 -0.5017095368
O   O32       1.0  0.01864  0.28838  0.49991  1.0000 -0.5017095368
O   O33       1.0  0.30558  0.38008  0.91429  1.0000 -0.5119796009
O   O34       1.0  0.69442  0.88008  0.58571  1.0000 -0.5119796009
O   O35       1.0  0.69442  0.61992  0.08571  1.0000 -0.5119796009
O   O36       1.0  0.30558  0.11992  0.41429  1.0000 -0.5119796009
O   O37       1.0  0.39100  0.90429  0.87011  1.0000 -0.4906791174
O   O38       1.0  0.60900  0.40429  0.62989  1.0000 -0.4906791174
O   O39       1.0  0.60900  0.09571  0.12989  1.0000 -0.4906791174
O   O40       1.0  0.39100  0.59571  0.37011  1.0000 -0.4906791174
O   O41       1.0  0.37878  0.88683  0.03067  1.0000 -0.5017095368
O   O42       1.0  0.62122  0.38683  0.46933  1.0000 -0.5017095368
O   O43       1.0  0.62122  0.11317  0.96933  1.0000 -0.5017095368
O   O44       1.0  0.37878  0.61317  0.53067  1.0000 -0.5017095368
O   O45       1.0  0.94301  0.07675  0.63019  1.0000 -0.5017095368
O   O46       1.0  0.05699  0.57675  0.86981  1.0000 -0.5017095368
O   O47       1.0  0.05699  0.92325  0.36981  1.0000 -0.5017095368
O   O48       1.0  0.94301  0.42325  0.13019  1.0000 -0.5017095368
