# DDEC6 charges by PACMAN v1.1 (https://github.com/mtap-research/PACMAN-charge/)
data_2007[Tb][sqc]3[ASR]1
_chemical_formula_sum              "Tb4 H36 C30 O24"
_cell_length_a       8.46431
_cell_length_b       8.46431
_cell_length_c       19.644
_cell_angle_alpha    87.8699
_cell_angle_beta     92.1301
_cell_angle_gamma    55.9578

_symmetry_space_group_name_H-M    "P 1"
_symmetry_Int_Tables_number       1

loop_
  _symmetry_equiv_pos_as_xyz
  'x, y, z'

loop_
  _atom_site_type_symbol
  _atom_site_label
  _atom_site_symmetry_multiplicity
  _atom_site_fract_x
  _atom_site_fract_y
  _atom_site_fract_z
  _atom_site_occupancy
  _atom_site_charge
Tb  Tb1       1.0  0.79345  0.28081  0.51226  1.0000 2.0422908516
Tb  Tb2       1.0  0.28081  0.79345  0.98774  1.0000 2.0422908516
Tb  Tb3       1.0  0.20655  0.71919  0.48774  1.0000 2.0422908516
Tb  Tb4       1.0  0.71919  0.20655  0.01226  1.0000 2.0422908516
H   H1        1.0  0.24470  0.22150  0.67820  1.0000 0.1288899092
H   H2        1.0  0.22150  0.24470  0.82180  1.0000 0.1288899092
H   H3        1.0  0.75530  0.77850  0.32180  1.0000 0.1288899092
H   H4        1.0  0.77850  0.75530  0.17820  1.0000 0.1288899092
H   H5        1.0  0.05570  0.39270  0.70480  1.0000 0.1288899092
H   H6        1.0  0.39270  0.05570  0.79520  1.0000 0.1288899092
H   H7        1.0  0.94430  0.60730  0.29520  1.0000 0.1288899092
H   H8        1.0  0.60730  0.94430  0.20480  1.0000 0.1288899092
H   H9        1.0  0.00970  0.18350  0.76550  1.0000 0.1015038604
H   H10       1.0  0.18350  0.00970  0.73450  1.0000 0.1015038604
H   H11       1.0  0.99030  0.81650  0.23450  1.0000 0.1015038604
H   H12       1.0  0.81650  0.99030  0.26550  1.0000 0.1015038604
H   H13       1.0  0.67880  0.79220  0.53900  1.0000 0.1545142831
H   H14       1.0  0.79220  0.67880  0.96100  1.0000 0.1545142831
H   H15       1.0  0.32120  0.20780  0.46100  1.0000 0.1545142831
H   H16       1.0  0.20780  0.32120  0.03900  1.0000 0.1545142831
H   H17       1.0  0.85120  0.70960  0.59350  1.0000 0.1388897003
H   H18       1.0  0.70960  0.85120  0.90650  1.0000 0.1388897003
H   H19       1.0  0.14880  0.29040  0.40650  1.0000 0.1388897003
H   H20       1.0  0.29040  0.14880  0.09350  1.0000 0.1388897003
H   H21       1.0  0.64080  0.90240  0.67470  1.0000 0.0935097413
H   H22       1.0  0.90240  0.64080  0.82530  1.0000 0.0935097413
H   H23       1.0  0.35920  0.09760  0.32530  1.0000 0.0935097413
H   H24       1.0  0.09760  0.35920  0.17470  1.0000 0.0935097413
H   H25       1.0  0.46800  0.98600  0.62020  1.0000 0.1015038604
H   H26       1.0  0.98600  0.46800  0.87980  1.0000 0.1015038604
H   H27       1.0  0.53200  0.01400  0.37980  1.0000 0.1015038604
H   H28       1.0  0.01400  0.53200  0.12020  1.0000 0.1015038604
H   H29       1.0  0.50590  0.73430  0.69760  1.0000 0.1288899092
H   H30       1.0  0.73430  0.50590  0.80240  1.0000 0.1288899092
H   H31       1.0  0.49410  0.26570  0.30240  1.0000 0.1288899092
H   H32       1.0  0.26570  0.49410  0.19760  1.0000 0.1288899092
H   H33       1.0  0.69640  0.58960  0.66380  1.0000 0.1288899092
H   H34       1.0  0.58960  0.69640  0.83620  1.0000 0.1288899092
H   H35       1.0  0.30360  0.41040  0.33620  1.0000 0.1288899092
H   H36       1.0  0.41040  0.30360  0.16380  1.0000 0.1288899092
C   C1        1.0  0.00600  0.26740  0.62810  1.0000 0.623867795
C   C2        1.0  0.26740  0.00600  0.87190  1.0000 0.623867795
C   C3        1.0  0.99400  0.73260  0.37190  1.0000 0.623867795
C   C4        1.0  0.73260  0.99400  0.12810  1.0000 0.623867795
C   C5        1.0  0.11730  0.26370  0.69040  1.0000 -0.3304306416
C   C6        1.0  0.26370  0.11730  0.80960  1.0000 -0.3304306416
C   C7        1.0  0.88270  0.73630  0.30960  1.0000 -0.3304306416
C   C8        1.0  0.73630  0.88270  0.19040  1.0000 -0.3304306416
C   C9        1.0  0.13440  0.13440  0.75000  1.0000 -0.0983507706
C   C10       1.0  0.86560  0.86560  0.25000  1.0000 -0.0983507706
C   C11       1.0  0.75250  0.97830  0.55620  1.0000 0.6817950459
C   C12       1.0  0.97830  0.75250  0.94380  1.0000 0.6817950459
C   C13       1.0  0.24750  0.02170  0.44380  1.0000 0.6817950459
C   C14       1.0  0.02170  0.24750  0.05620  1.0000 0.6817950459
C   C15       1.0  0.72720  0.82300  0.57820  1.0000 -0.3394264242
C   C16       1.0  0.82300  0.72720  0.92180  1.0000 -0.3394264242
C   C17       1.0  0.27280  0.17700  0.42180  1.0000 -0.3394264242
C   C18       1.0  0.17700  0.27280  0.07820  1.0000 -0.3394264242
C   C19       1.0  0.59260  0.87280  0.63510  1.0000 -0.0915220379
C   C20       1.0  0.87280  0.59260  0.86490  1.0000 -0.0915220379
C   C21       1.0  0.40740  0.12720  0.36490  1.0000 -0.0915220379
C   C22       1.0  0.12720  0.40740  0.13510  1.0000 -0.0915220379
C   C23       1.0  0.57090  0.70790  0.65570  1.0000 -0.3394264242
C   C24       1.0  0.70790  0.57090  0.84430  1.0000 -0.3394264242
C   C25       1.0  0.42910  0.29210  0.34430  1.0000 -0.3394264242
C   C26       1.0  0.29210  0.42910  0.15570  1.0000 -0.3394264242
C   C27       1.0  0.45940  0.68680  0.60040  1.0000 0.6817950459
C   C28       1.0  0.68680  0.45940  0.89960  1.0000 0.6817950459
C   C29       1.0  0.54060  0.31320  0.39960  1.0000 0.6817950459
C   C30       1.0  0.31320  0.54060  0.10040  1.0000 0.6817950459
O   O1        1.0  0.90670  0.20110  0.63080  1.0000 -0.5892921238
O   O2        1.0  0.20110  0.90670  0.86920  1.0000 -0.5892921238
O   O3        1.0  0.09330  0.79890  0.36920  1.0000 -0.5892921238
O   O4        1.0  0.79890  0.09330  0.13080  1.0000 -0.5892921238
O   O5        1.0  0.01110  0.34410  0.57170  1.0000 -0.6553282289
O   O6        1.0  0.34410  0.01110  0.92830  1.0000 -0.6546429543
O   O7        1.0  0.98890  0.65590  0.42830  1.0000 -0.6553282289
O   O8        1.0  0.65590  0.98890  0.07170  1.0000 -0.6553282289
O   O9        1.0  0.61930  0.15410  0.55870  1.0000 -0.6204008692
O   O10       1.0  0.15410  0.61930  0.94130  1.0000 -0.6204008692
O   O11       1.0  0.38070  0.84590  0.44130  1.0000 -0.6204008692
O   O12       1.0  0.84590  0.38070  0.05870  1.0000 -0.6204008692
O   O13       1.0  0.91040  0.93400  0.53360  1.0000 -0.7507156579
O   O14       1.0  0.93400  0.91040  0.96640  1.0000 -0.7507156579
O   O15       1.0  0.08960  0.06600  0.46640  1.0000 -0.7507156579
O   O16       1.0  0.06600  0.08960  0.03360  1.0000 -0.7507156579
O   O17       1.0  0.53900  0.55060  0.56060  1.0000 -0.7507156579
O   O18       1.0  0.55060  0.53900  0.93940  1.0000 -0.7507156579
O   O19       1.0  0.46100  0.44940  0.43940  1.0000 -0.7507156579
O   O20       1.0  0.44940  0.46100  0.06060  1.0000 -0.7507156579
O   O21       1.0  0.28200  0.81220  0.59170  1.0000 -0.6204008692
O   O22       1.0  0.81220  0.28200  0.90830  1.0000 -0.6204008692
O   O23       1.0  0.71800  0.18780  0.40830  1.0000 -0.6146681456
O   O24       1.0  0.18780  0.71800  0.09170  1.0000 -0.6204008692
