# DDEC6 charges by PACMAN v1.1 (https://github.com/mtap-research/PACMAN-charge/)
data_2007[Ni][crb]3[ASR]1
_chemical_formula_sum              "Ni8 H96 C144 N16 O32"
_cell_length_a       9.9562
_cell_length_b       28.226
_cell_length_c       14.8904
_cell_angle_alpha    90
_cell_angle_beta     106.306
_cell_angle_gamma    90

_symmetry_space_group_name_H-M    "P 1"
_symmetry_Int_Tables_number       1

loop_
  _symmetry_equiv_pos_as_xyz
  'x, y, z'

loop_
  _atom_site_type_symbol
  _atom_site_label
  _atom_site_symmetry_multiplicity
  _atom_site_fract_x
  _atom_site_fract_y
  _atom_site_fract_z
  _atom_site_occupancy
  _atom_site_charge
Ni  Ni1       1.0  0.18217  0.49040  0.82913  1.0000 0.7039656368
Ni  Ni2       1.0  0.31783  0.99040  0.17087  1.0000 0.7039656368
Ni  Ni3       1.0  0.81783  0.50960  0.17087  1.0000 0.7039656368
Ni  Ni4       1.0  0.68217  0.00960  0.82913  1.0000 0.7039656368
Ni  Ni5       1.0  0.76616  0.33563  0.48911  1.0000 0.7291091856
Ni  Ni6       1.0  0.73384  0.83563  0.51089  1.0000 0.7291091856
Ni  Ni7       1.0  0.23384  0.66437  0.51089  1.0000 0.7291091856
Ni  Ni8       1.0  0.26616  0.16437  0.48911  1.0000 0.7291091856
H   H1        1.0  0.31940  0.31350  0.72280  1.0000 0.112517235
H   H2        1.0  0.18060  0.81350  0.27720  1.0000 0.112517235
H   H3        1.0  0.68060  0.68650  0.27720  1.0000 0.112517235
H   H4        1.0  0.81940  0.18650  0.72280  1.0000 0.112517235
H   H5        1.0  0.28960  0.23270  0.74380  1.0000 0.112517235
H   H6        1.0  0.21040  0.73270  0.25620  1.0000 0.112517235
H   H7        1.0  0.71040  0.76730  0.25620  1.0000 0.112517235
H   H8        1.0  0.78960  0.26730  0.74380  1.0000 0.112517235
H   H9        1.0  0.14400  0.20790  0.83340  1.0000 0.112517235
H   H10       1.0  0.35600  0.70790  0.16660  1.0000 0.112517235
H   H11       1.0  0.85600  0.79210  0.16660  1.0000 0.112517235
H   H12       1.0  0.64400  0.29210  0.83340  1.0000 0.112517235
H   H13       1.0  0.00770  0.26270  0.88390  1.0000 0.112517235
H   H14       1.0  0.49230  0.76270  0.11610  1.0000 0.112517235
H   H15       1.0  0.99230  0.73730  0.11610  1.0000 0.112517235
H   H16       1.0  0.50770  0.23730  0.88390  1.0000 0.112517235
H   H17       1.0  0.01830  0.34240  0.99270  1.0000 0.112517235
H   H18       1.0  0.48170  0.84240  0.00730  1.0000 0.112517235
H   H19       1.0  0.98170  0.65760  0.00730  1.0000 0.112517235
H   H20       1.0  0.51830  0.15760  0.99270  1.0000 0.112517235
H   H21       1.0  0.85190  0.39490  0.02100  1.0000 0.112517235
H   H22       1.0  0.64810  0.89490  0.97900  1.0000 0.112517235
H   H23       1.0  0.14810  0.60510  0.97900  1.0000 0.112517235
H   H24       1.0  0.35190  0.10510  0.02100  1.0000 0.112517235
H   H25       1.0  0.69810  0.43350  0.89830  1.0000 0.1032456522
H   H26       1.0  0.80190  0.93350  0.10170  1.0000 0.1032456522
H   H27       1.0  0.30190  0.56650  0.10170  1.0000 0.1032456522
H   H28       1.0  0.19810  0.06650  0.89830  1.0000 0.1032456522
H   H29       1.0  0.70910  0.42360  0.74710  1.0000 0.1300595483
H   H30       1.0  0.79090  0.92360  0.25290  1.0000 0.1300595483
H   H31       1.0  0.29090  0.57640  0.25290  1.0000 0.1300595483
H   H32       1.0  0.20910  0.07640  0.74710  1.0000 0.1300595483
H   H33       1.0  0.37780  0.36150  0.16390  1.0000 0.112517235
H   H34       1.0  0.12220  0.86150  0.83610  1.0000 0.112517235
H   H35       1.0  0.62220  0.63850  0.83610  1.0000 0.112517235
H   H36       1.0  0.87780  0.13850  0.16390  1.0000 0.112517235
H   H37       1.0  0.30110  0.34300  0.00560  1.0000 0.1196775411
H   H38       1.0  0.19890  0.84300  0.99440  1.0000 0.1196775411
H   H39       1.0  0.69890  0.65700  0.99440  1.0000 0.1196775411
H   H40       1.0  0.80110  0.15700  0.00560  1.0000 0.1196775411
H   H41       1.0  0.46400  0.31920  0.92900  1.0000 0.112517235
H   H42       1.0  0.03600  0.81920  0.07100  1.0000 0.112517235
H   H43       1.0  0.53600  0.68080  0.07100  1.0000 0.112517235
H   H44       1.0  0.96400  0.18080  0.92900  1.0000 0.112517235
H   H45       1.0  0.69980  0.31330  0.00980  1.0000 0.112517235
H   H46       1.0  0.80020  0.81330  0.99020  1.0000 0.112517235
H   H47       1.0  0.30020  0.68670  0.99020  1.0000 0.112517235
H   H48       1.0  0.19980  0.18670  0.00980  1.0000 0.112517235
H   H49       1.0  0.84560  0.26130  0.13180  1.0000 0.1196775411
H   H50       1.0  0.65440  0.76130  0.86820  1.0000 0.1196775411
H   H51       1.0  0.15440  0.73870  0.86820  1.0000 0.1196775411
H   H52       1.0  0.34560  0.23870  0.13180  1.0000 0.1196775411
H   H53       1.0  0.08340  0.25100  0.18550  1.0000 0.112517235
H   H54       1.0  0.41660  0.75100  0.81450  1.0000 0.112517235
H   H55       1.0  0.91660  0.74900  0.81450  1.0000 0.112517235
H   H56       1.0  0.58340  0.24900  0.18550  1.0000 0.112517235
H   H57       1.0  0.22600  0.31070  0.27070  1.0000 0.1196775411
H   H58       1.0  0.27400  0.81070  0.72930  1.0000 0.1196775411
H   H59       1.0  0.77400  0.68930  0.72930  1.0000 0.1196775411
H   H60       1.0  0.72600  0.18930  0.27070  1.0000 0.1196775411
H   H61       1.0  0.12460  0.38110  0.30320  1.0000 0.1300595483
H   H62       1.0  0.37540  0.88110  0.69680  1.0000 0.1300595483
H   H63       1.0  0.87540  0.61890  0.69680  1.0000 0.1300595483
H   H64       1.0  0.62460  0.11890  0.30320  1.0000 0.1300595483
H   H65       1.0  0.92160  0.53660  0.85880  1.0000 0.1300595483
H   H66       1.0  0.57840  0.03660  0.14120  1.0000 0.1300595483
H   H67       1.0  0.07840  0.46340  0.14120  1.0000 0.1300595483
H   H68       1.0  0.42160  0.96340  0.85880  1.0000 0.1300595483
H   H69       1.0  0.19230  0.45260  0.02770  1.0000 0.1196775411
H   H70       1.0  0.30770  0.95260  0.97230  1.0000 0.1196775411
H   H71       1.0  0.80770  0.54740  0.97230  1.0000 0.1196775411
H   H72       1.0  0.69230  0.04740  0.02770  1.0000 0.1196775411
H   H73       1.0  0.40890  0.42780  0.94930  1.0000 0.1300595483
H   H74       1.0  0.09110  0.92780  0.05070  1.0000 0.1300595483
H   H75       1.0  0.59110  0.57220  0.05070  1.0000 0.1300595483
H   H76       1.0  0.90890  0.07220  0.94930  1.0000 0.1300595483
H   H77       1.0  0.37670  0.56650  0.94020  1.0000 0.1300595483
H   H78       1.0  0.12330  0.06650  0.05980  1.0000 0.1300595483
H   H79       1.0  0.62330  0.43350  0.05980  1.0000 0.1300595483
H   H80       1.0  0.87670  0.93350  0.94020  1.0000 0.1300595483
H   H81       1.0  0.55660  0.31170  0.60620  1.0000 0.1394984302
H   H82       1.0  0.94340  0.81170  0.39380  1.0000 0.1394984302
H   H83       1.0  0.44340  0.68830  0.39380  1.0000 0.1394984302
H   H84       1.0  0.05660  0.18830  0.60620  1.0000 0.1394984302
H   H85       1.0  0.89020  0.24490  0.60500  1.0000 0.1300595483
H   H86       1.0  0.60980  0.74490  0.39500  1.0000 0.1300595483
H   H87       1.0  0.10980  0.75510  0.39500  1.0000 0.1300595483
H   H88       1.0  0.39020  0.25510  0.60500  1.0000 0.1300595483
H   H89       1.0  0.93720  0.29700  0.37090  1.0000 0.1300595483
H   H90       1.0  0.56280  0.79700  0.62910  1.0000 0.1300595483
H   H91       1.0  0.06280  0.70300  0.62910  1.0000 0.1300595483
H   H92       1.0  0.43720  0.20300  0.37090  1.0000 0.1300595483
H   H93       1.0  0.60910  0.25780  0.37480  1.0000 0.1196775411
H   H94       1.0  0.89090  0.75780  0.62520  1.0000 0.1196775411
H   H95       1.0  0.39090  0.74220  0.62520  1.0000 0.1196775411
H   H96       1.0  0.10910  0.24220  0.37480  1.0000 0.1196775411
C   C1        1.0  0.20720  0.38868  0.77590  1.0000 0.5748094198
C   C2        1.0  0.29280  0.88868  0.22410  1.0000 0.5748094198
C   C3        1.0  0.79280  0.61132  0.22410  1.0000 0.5748094198
C   C4        1.0  0.70720  0.11132  0.77590  1.0000 0.5748094198
C   C5        1.0  0.17370  0.33691  0.78650  1.0000 -0.0494964878
C   C6        1.0  0.32630  0.83691  0.21350  1.0000 -0.0494964878
C   C7        1.0  0.82630  0.66309  0.21350  1.0000 -0.0494964878
C   C8        1.0  0.67370  0.16309  0.78650  1.0000 -0.0494964878
C   C9        1.0  0.25410  0.30322  0.75450  1.0000 -0.1246981054
C   C10       1.0  0.24590  0.80322  0.24550  1.0000 -0.1246981054
C   C11       1.0  0.74590  0.69678  0.24550  1.0000 -0.1246981054
C   C12       1.0  0.75410  0.19678  0.75450  1.0000 -0.1246981054
C   C13       1.0  0.23900  0.25520  0.76860  1.0000 -0.1092646964
C   C14       1.0  0.26100  0.75520  0.23140  1.0000 -0.1092646964
C   C15       1.0  0.76100  0.74480  0.23140  1.0000 -0.1092646964
C   C16       1.0  0.73900  0.24480  0.76860  1.0000 -0.1092646964
C   C17       1.0  0.14980  0.24052  0.81920  1.0000 -0.1002745232
C   C18       1.0  0.35020  0.74052  0.18080  1.0000 -0.1002745232
C   C19       1.0  0.85020  0.75948  0.18080  1.0000 -0.1002745232
C   C20       1.0  0.64980  0.25948  0.81920  1.0000 -0.1002745232
C   C21       1.0  0.06880  0.27330  0.84910  1.0000 -0.1506988618
C   C22       1.0  0.43120  0.77330  0.15090  1.0000 -0.1506988618
C   C23       1.0  0.93120  0.72670  0.15090  1.0000 -0.1506988618
C   C24       1.0  0.56880  0.22670  0.84910  1.0000 -0.1506988618
C   C25       1.0  0.07440  0.32146  0.82980  1.0000 0.0521480282
C   C26       1.0  0.42560  0.82146  0.17020  1.0000 0.0521480282
C   C27       1.0  0.92560  0.67854  0.17020  1.0000 0.0521480282
C   C28       1.0  0.57440  0.17854  0.82980  1.0000 0.0521480282
C   C29       1.0  0.96920  0.35343  0.85160  1.0000 0.0595826962
C   C30       1.0  0.53080  0.85343  0.14840  1.0000 0.0595826962
C   C31       1.0  0.03080  0.64657  0.14840  1.0000 0.0595826962
C   C32       1.0  0.46920  0.14657  0.85160  1.0000 0.0595826962
C   C33       1.0  0.95770  0.35930  0.94230  1.0000 -0.1506988618
C   C34       1.0  0.54230  0.85930  0.05770  1.0000 -0.1506988618
C   C35       1.0  0.04230  0.64070  0.05770  1.0000 -0.1506988618
C   C36       1.0  0.45770  0.14070  0.94230  1.0000 -0.1506988618
C   C37       1.0  0.85710  0.39000  0.95890  1.0000 -0.1002745232
C   C38       1.0  0.64290  0.89000  0.04110  1.0000 -0.1002745232
C   C39       1.0  0.14290  0.61000  0.04110  1.0000 -0.1002745232
C   C40       1.0  0.35710  0.11000  0.95890  1.0000 -0.1002745232
C   C41       1.0  0.76680  0.41300  0.88630  1.0000 -0.1002745232
C   C42       1.0  0.73320  0.91300  0.11370  1.0000 -0.1002745232
C   C43       1.0  0.23320  0.58700  0.11370  1.0000 -0.1002745232
C   C44       1.0  0.26680  0.08700  0.88630  1.0000 -0.1002745232
C   C45       1.0  0.77290  0.40720  0.79680  1.0000 -0.1092646964
C   C46       1.0  0.72710  0.90720  0.20320  1.0000 -0.1092646964
C   C47       1.0  0.22710  0.59280  0.20320  1.0000 -0.1092646964
C   C48       1.0  0.27290  0.09280  0.79680  1.0000 -0.1092646964
C   C49       1.0  0.87220  0.37724  0.77840  1.0000 -0.0392139676
C   C50       1.0  0.62780  0.87724  0.22160  1.0000 -0.0392139676
C   C51       1.0  0.12780  0.62276  0.22160  1.0000 -0.0392139676
C   C52       1.0  0.37220  0.12276  0.77840  1.0000 -0.0392139676
C   C53       1.0  0.87320  0.37278  0.67790  1.0000 0.5607037124
C   C54       1.0  0.62680  0.87278  0.32210  1.0000 0.5607037124
C   C55       1.0  0.12680  0.62722  0.32210  1.0000 0.5607037124
C   C56       1.0  0.37320  0.12722  0.67790  1.0000 0.5607037124
C   C57       1.0  0.61630  0.35769  0.28650  1.0000 0.5769736645
C   C58       1.0  0.88370  0.85769  0.71350  1.0000 0.5769736645
C   C59       1.0  0.38370  0.64231  0.71350  1.0000 0.5769736645
C   C60       1.0  0.11630  0.14231  0.28650  1.0000 0.5769736645
C   C61       1.0  0.58510  0.34836  0.18350  1.0000 -0.0643267008
C   C62       1.0  0.91490  0.84836  0.81650  1.0000 -0.0643267008
C   C63       1.0  0.41490  0.65164  0.81650  1.0000 -0.0643267008
C   C64       1.0  0.08510  0.15164  0.18350  1.0000 -0.0643267008
C   C65       1.0  0.44400  0.35155  0.13260  1.0000 -0.1277316782
C   C66       1.0  0.05600  0.85155  0.86740  1.0000 -0.1277316782
C   C67       1.0  0.55600  0.64845  0.86740  1.0000 -0.1277316782
C   C68       1.0  0.94400  0.14845  0.13260  1.0000 -0.1277316782
C   C69       1.0  0.39760  0.34080  0.03860  1.0000 -0.1092646964
C   C70       1.0  0.10240  0.84080  0.96140  1.0000 -0.1092646964
C   C71       1.0  0.60240  0.65920  0.96140  1.0000 -0.1092646964
C   C72       1.0  0.89760  0.15920  0.03860  1.0000 -0.1092646964
C   C73       1.0  0.49400  0.32664  0.99380  1.0000 -0.1002745232
C   C74       1.0  0.00600  0.82664  0.00620  1.0000 -0.1002745232
C   C75       1.0  0.50600  0.67336  0.00620  1.0000 -0.1002745232
C   C76       1.0  0.99400  0.17336  0.99380  1.0000 -0.1002745232
C   C77       1.0  0.63490  0.32315  0.04210  1.0000 -0.1564646262
C   C78       1.0  0.86510  0.82315  0.95790  1.0000 -0.1506988618
C   C79       1.0  0.36510  0.67685  0.95790  1.0000 -0.1564646262
C   C80       1.0  0.13490  0.17685  0.04210  1.0000 -0.1564646262
C   C81       1.0  0.68290  0.33385  0.13760  1.0000 0.0521480282
C   C82       1.0  0.81710  0.83385  0.86240  1.0000 0.0521480282
C   C83       1.0  0.31710  0.66615  0.86240  1.0000 0.0521480282
C   C84       1.0  0.18290  0.16615  0.13760  1.0000 0.0521480282
C   C85       1.0  0.83730  0.32835  0.18130  1.0000 0.0595826962
C   C86       1.0  0.66270  0.82835  0.81870  1.0000 0.0595826962
C   C87       1.0  0.16270  0.67165  0.81870  1.0000 0.0595826962
C   C88       1.0  0.33730  0.17165  0.18130  1.0000 0.0595826962
C   C89       1.0  0.90180  0.28614  0.16570  1.0000 -0.1506988618
C   C90       1.0  0.59820  0.78614  0.83430  1.0000 -0.1506988618
C   C91       1.0  0.09820  0.71386  0.83430  1.0000 -0.1506988618
C   C92       1.0  0.40180  0.21386  0.16570  1.0000 -0.1506988618
C   C93       1.0  0.04280  0.27990  0.19800  1.0000 -0.1002745232
C   C94       1.0  0.45720  0.77990  0.80200  1.0000 -0.1002745232
C   C95       1.0  0.95720  0.72010  0.80200  1.0000 -0.1002745232
C   C96       1.0  0.54280  0.22010  0.19800  1.0000 -0.1002745232
C   C97       1.0  0.12760  0.31510  0.24870  1.0000 -0.1002745232
C   C98       1.0  0.37240  0.81510  0.75130  1.0000 -0.1002745232
C   C99       1.0  0.87240  0.68490  0.75130  1.0000 -0.1002745232
C   C100      1.0  0.62760  0.18490  0.24870  1.0000 -0.1002745232
C   C101      1.0  0.06730  0.35703  0.26710  1.0000 -0.1277316782
C   C102      1.0  0.43270  0.85703  0.73290  1.0000 -0.1277316782
C   C103      1.0  0.93270  0.64297  0.73290  1.0000 -0.1277316782
C   C104      1.0  0.56730  0.14297  0.26710  1.0000 -0.1277316782
C   C105      1.0  0.92300  0.36414  0.23280  1.0000 -0.0494964878
C   C106      1.0  0.57700  0.86414  0.76720  1.0000 -0.0494964878
C   C107      1.0  0.07700  0.63586  0.76720  1.0000 -0.0494964878
C   C108      1.0  0.42300  0.13586  0.23280  1.0000 -0.0494964878
C   C109      1.0  0.12910  0.58696  0.75330  1.0000 0.5607037124
C   C110      1.0  0.37090  0.08696  0.24670  1.0000 0.5607037124
C   C111      1.0  0.87090  0.41304  0.24670  1.0000 0.5607037124
C   C112      1.0  0.62910  0.91304  0.75330  1.0000 0.5607037124
C   C113      1.0  0.95630  0.52103  0.91740  1.0000 0.0303610151
C   C114      1.0  0.54370  0.02103  0.08260  1.0000 0.0303610151
C   C115      1.0  0.04370  0.47897  0.08260  1.0000 0.0303610151
C   C116      1.0  0.45630  0.97897  0.91740  1.0000 0.0303610151
C   C117      1.0  0.11240  0.47261  0.01470  1.0000 0.0303610151
C   C118      1.0  0.38760  0.97261  0.98530  1.0000 0.0303610151
C   C119      1.0  0.88760  0.52739  0.98530  1.0000 0.0303610151
C   C120      1.0  0.61240  0.02739  0.01470  1.0000 0.0303610151
C   C121      1.0  0.44530  0.45826  0.96960  1.0000 0.0209940606
C   C122      1.0  0.05470  0.95826  0.03040  1.0000 0.0209940606
C   C123      1.0  0.55470  0.54174  0.03040  1.0000 0.0209940606
C   C124      1.0  0.94530  0.04174  0.96960  1.0000 0.0209940606
C   C125      1.0  0.42650  0.53838  0.96420  1.0000 0.0303610151
C   C126      1.0  0.07350  0.03838  0.03580  1.0000 0.0303610151
C   C127      1.0  0.57350  0.46162  0.03580  1.0000 0.0303610151
C   C128      1.0  0.92650  0.96162  0.96420  1.0000 0.0303610151
C   C129      1.0  0.53460  0.28886  0.55740  1.0000 0.0303610151
C   C130      1.0  0.96540  0.78886  0.44260  1.0000 0.0303610151
C   C131      1.0  0.46540  0.71114  0.44260  1.0000 0.0303610151
C   C132      1.0  0.03460  0.21114  0.55740  1.0000 0.0303610151
C   C133      1.0  0.93460  0.24477  0.55630  1.0000 0.0303610151
C   C134      1.0  0.56540  0.74477  0.44370  1.0000 0.0303610151
C   C135      1.0  0.06540  0.75523  0.44370  1.0000 0.0303610151
C   C136      1.0  0.43460  0.25523  0.55630  1.0000 0.0303610151
C   C137      1.0  0.96240  0.27510  0.42140  1.0000 0.0354828079
C   C138      1.0  0.53760  0.77510  0.57860  1.0000 0.0354828079
C   C139      1.0  0.03760  0.72490  0.57860  1.0000 0.0354828079
C   C140      1.0  0.46240  0.22490  0.42140  1.0000 0.0354828079
C   C141      1.0  0.56420  0.25792  0.42330  1.0000 0.0303610151
C   C142      1.0  0.93580  0.75792  0.57670  1.0000 0.0303610151
C   C143      1.0  0.43580  0.74208  0.57670  1.0000 0.0303610151
C   C144      1.0  0.06420  0.24208  0.42330  1.0000 0.0303610151
N   N1        1.0  0.06930  0.49386  0.93130  1.0000 -0.1564646262
N   N2        1.0  0.43070  0.99386  0.06870  1.0000 -0.1564646262
N   N3        1.0  0.93070  0.50614  0.06870  1.0000 -0.1564646262
N   N4        1.0  0.56930  0.00614  0.93130  1.0000 -0.1564646262
N   N5        1.0  0.37120  0.49631  0.93340  1.0000 -0.1506988618
N   N6        1.0  0.12880  0.99631  0.06660  1.0000 -0.1506988618
N   N7        1.0  0.62880  0.50369  0.06660  1.0000 -0.1506988618
N   N8        1.0  0.87120  0.00369  0.93340  1.0000 -0.1506988618
N   N9        1.0  0.60200  0.29016  0.49120  1.0000 -0.1506988618
N   N10       1.0  0.89800  0.79016  0.50880  1.0000 -0.1506988618
N   N11       1.0  0.39800  0.70984  0.50880  1.0000 -0.1564646262
N   N12       1.0  0.10200  0.20984  0.49120  1.0000 -0.1506988618
N   N13       1.0  0.89780  0.27732  0.48860  1.0000 -0.1564646262
N   N14       1.0  0.60220  0.77732  0.51140  1.0000 -0.1564646262
N   N15       1.0  0.10220  0.72268  0.51140  1.0000 -0.1564646262
N   N16       1.0  0.39780  0.22268  0.48860  1.0000 -0.1564646262
O   O1        1.0  0.18480  0.41746  0.83450  1.0000 -0.5606580916
O   O2        1.0  0.31520  0.91746  0.16550  1.0000 -0.5667122526
O   O3        1.0  0.81520  0.58254  0.16550  1.0000 -0.5667122526
O   O4        1.0  0.68480  0.08254  0.83450  1.0000 -0.5606580916
O   O5        1.0  0.26320  0.39902  0.71330  1.0000 -0.5342046144
O   O6        1.0  0.23680  0.89902  0.28670  1.0000 -0.5342046144
O   O7        1.0  0.73680  0.60098  0.28670  1.0000 -0.5342046144
O   O8        1.0  0.76320  0.10098  0.71330  1.0000 -0.5342046144
O   O9        1.0  0.82470  0.33623  0.63340  1.0000 -0.5606580916
O   O10       1.0  0.67530  0.83623  0.36660  1.0000 -0.5606580916
O   O11       1.0  0.17530  0.66377  0.36660  1.0000 -0.5606580916
O   O12       1.0  0.32470  0.16377  0.63340  1.0000 -0.5606580916
O   O13       1.0  0.92210  0.40723  0.64200  1.0000 -0.5155158612
O   O14       1.0  0.57790  0.90723  0.35800  1.0000 -0.5155158612
O   O15       1.0  0.07790  0.59277  0.35800  1.0000 -0.5155158612
O   O16       1.0  0.42210  0.09277  0.64200  1.0000 -0.5155158612
O   O17       1.0  0.70790  0.33272  0.34290  1.0000 -0.5667122526
O   O18       1.0  0.79210  0.83272  0.65710  1.0000 -0.5667122526
O   O19       1.0  0.29210  0.66728  0.65710  1.0000 -0.5667122526
O   O20       1.0  0.20790  0.16728  0.34290  1.0000 -0.5667122526
O   O21       1.0  0.54160  0.38825  0.31000  1.0000 -0.537670565
O   O22       1.0  0.95840  0.88825  0.69000  1.0000 -0.537670565
O   O23       1.0  0.45840  0.61175  0.69000  1.0000 -0.537670565
O   O24       1.0  0.04160  0.11175  0.31000  1.0000 -0.537670565
O   O25       1.0  0.16900  0.56275  0.82630  1.0000 -0.5606580916
O   O26       1.0  0.33100  0.06275  0.17370  1.0000 -0.5606580916
O   O27       1.0  0.83100  0.43725  0.17370  1.0000 -0.5606580916
O   O28       1.0  0.66900  0.93725  0.82630  1.0000 -0.5606580916
O   O29       1.0  0.11880  0.57228  0.67390  1.0000 -0.4709615457
O   O30       1.0  0.38120  0.07228  0.32610  1.0000 -0.4709615457
O   O31       1.0  0.88120  0.42772  0.32610  1.0000 -0.4709615457
O   O32       1.0  0.61880  0.92772  0.67390  1.0000 -0.4709615457
