# DDEC6 charges by PACMAN v1.1 (https://github.com/mtap-research/PACMAN-charge/)
data_2007[Zn][dia]3[ASR]2
_chemical_formula_sum              "Zn10 H64 C112 O36"
_cell_length_a       21.3237
_cell_length_b       21.3237
_cell_length_c       18.528
_cell_angle_alpha    84.0975
_cell_angle_beta     95.9025
_cell_angle_gamma    35.0132

_symmetry_space_group_name_H-M    "P 1"
_symmetry_Int_Tables_number       1

loop_
  _symmetry_equiv_pos_as_xyz
  'x, y, z'

loop_
  _atom_site_type_symbol
  _atom_site_label
  _atom_site_symmetry_multiplicity
  _atom_site_fract_x
  _atom_site_fract_y
  _atom_site_fract_z
  _atom_site_occupancy
  _atom_site_charge
Zn  Zn1       1.0  0.90279  0.90279  0.25000  1.0000 0.9861378361
Zn  Zn2       1.0  0.09721  0.09721  0.75000  1.0000 0.9861378361
Zn  Zn3       1.0  0.02020  0.17162  0.90623  1.0000 1.0139951099
Zn  Zn4       1.0  0.17162  0.02020  0.59377  1.0000 1.0139951099
Zn  Zn5       1.0  0.97980  0.82838  0.09377  1.0000 1.0139951099
Zn  Zn6       1.0  0.82838  0.97980  0.40623  1.0000 1.0139951099
Zn  Zn7       1.0  0.25546  0.04748  0.89640  1.0000 0.9259318698
Zn  Zn8       1.0  0.04748  0.25546  0.60360  1.0000 0.924850582
Zn  Zn9       1.0  0.74454  0.95252  0.10360  1.0000 0.9259318698
Zn  Zn10      1.0  0.95252  0.74454  0.39640  1.0000 0.9259318698
H   H1        1.0  0.21500  0.83960  0.01230  1.0000 0.1205179514
H   H2        1.0  0.83960  0.21500  0.48770  1.0000 0.1205179514
H   H3        1.0  0.78500  0.16040  0.98770  1.0000 0.1205179514
H   H4        1.0  0.16040  0.78500  0.51230  1.0000 0.1205179514
H   H5        1.0  0.32890  0.65730  0.07550  1.0000 0.1205179514
H   H6        1.0  0.65730  0.32890  0.42450  1.0000 0.1205179514
H   H7        1.0  0.67110  0.34270  0.92450  1.0000 0.1205179514
H   H8        1.0  0.34270  0.67110  0.57550  1.0000 0.1205179514
H   H9        1.0  0.61160  0.53260  0.12270  1.0000 0.1205179514
H   H10       1.0  0.53260  0.61160  0.37730  1.0000 0.1205179514
H   H11       1.0  0.38840  0.46740  0.87730  1.0000 0.1205179514
H   H12       1.0  0.46740  0.38840  0.62270  1.0000 0.1205179514
H   H13       1.0  0.50190  0.70890  0.05260  1.0000 0.1205179514
H   H14       1.0  0.70890  0.50190  0.44740  1.0000 0.1205179514
H   H15       1.0  0.49810  0.29110  0.94740  1.0000 0.1205179514
H   H16       1.0  0.29110  0.49810  0.55260  1.0000 0.1205179514
H   H17       1.0  0.49500  0.44880  0.06120  1.0000 0.1205179514
H   H18       1.0  0.44880  0.49500  0.43880  1.0000 0.1205179514
H   H19       1.0  0.50500  0.55120  0.93880  1.0000 0.1205179514
H   H20       1.0  0.55120  0.50500  0.56120  1.0000 0.1205179514
H   H21       1.0  0.62120  0.26380  0.11860  1.0000 0.1205179514
H   H22       1.0  0.26380  0.62120  0.38140  1.0000 0.1205179514
H   H23       1.0  0.37880  0.73620  0.88140  1.0000 0.1205179514
H   H24       1.0  0.73620  0.37880  0.61860  1.0000 0.1205179514
H   H25       1.0  0.75850  0.23810  0.30610  1.0000 0.1205179514
H   H26       1.0  0.23810  0.75850  0.19390  1.0000 0.1205179514
H   H27       1.0  0.24150  0.76190  0.69390  1.0000 0.1205179514
H   H28       1.0  0.76190  0.24150  0.80610  1.0000 0.1205179514
H   H29       1.0  0.64670  0.41950  0.24620  1.0000 0.1205179514
H   H30       1.0  0.41950  0.64670  0.25380  1.0000 0.1205179514
H   H31       1.0  0.35330  0.58050  0.75380  1.0000 0.1205179514
H   H32       1.0  0.58050  0.35330  0.74620  1.0000 0.1205179514
H   H33       1.0  0.00600  0.30020  0.07990  1.0000 0.1205179514
H   H34       1.0  0.30020  0.00600  0.42010  1.0000 0.1205179514
H   H35       1.0  0.99400  0.69980  0.92010  1.0000 0.1205179514
H   H36       1.0  0.69980  0.99400  0.57990  1.0000 0.1205179514
H   H37       1.0  0.98570  0.39230  0.15830  1.0000 0.1205179514
H   H38       1.0  0.39230  0.98570  0.34170  1.0000 0.1205179514
H   H39       1.0  0.01430  0.60770  0.84170  1.0000 0.1205179514
H   H40       1.0  0.60770  0.01430  0.65830  1.0000 0.1205179514
H   H41       1.0  0.18190  0.34390  0.07810  1.0000 0.1205179514
H   H42       1.0  0.34390  0.18190  0.42190  1.0000 0.1205179514
H   H43       1.0  0.81810  0.65610  0.92190  1.0000 0.1205179514
H   H44       1.0  0.65610  0.81810  0.57810  1.0000 0.1205179514
H   H45       1.0  0.22650  0.22730  0.01950  1.0000 0.1260957632
H   H46       1.0  0.22730  0.22650  0.48050  1.0000 0.1260957632
H   H47       1.0  0.77350  0.77270  0.98050  1.0000 0.1260957632
H   H48       1.0  0.77270  0.77350  0.51950  1.0000 0.1260957632
H   H49       1.0  0.07960  0.36640  0.27250  1.0000 0.1205179514
H   H50       1.0  0.36640  0.07960  0.22750  1.0000 0.1205179514
H   H51       1.0  0.92040  0.63360  0.72750  1.0000 0.1205179514
H   H52       1.0  0.63360  0.92040  0.77250  1.0000 0.1205179514
H   H53       1.0  0.05910  0.45970  0.35140  1.0000 0.1205179514
H   H54       1.0  0.45970  0.05910  0.14860  1.0000 0.1205179514
H   H55       1.0  0.94090  0.54030  0.64860  1.0000 0.1205179514
H   H56       1.0  0.54030  0.94090  0.85140  1.0000 0.1205179514
H   H57       1.0  0.02900  0.61820  0.17800  1.0000 0.1260957632
H   H58       1.0  0.61820  0.02900  0.32200  1.0000 0.1260957632
H   H59       1.0  0.97100  0.38180  0.82200  1.0000 0.1260957632
H   H60       1.0  0.38180  0.97100  0.67800  1.0000 0.1260957632
H   H61       1.0  0.04480  0.52500  0.09980  1.0000 0.1115185459
H   H62       1.0  0.52500  0.04480  0.40020  1.0000 0.1115185459
H   H63       1.0  0.95520  0.47500  0.90020  1.0000 0.1115185459
H   H64       1.0  0.47500  0.95520  0.59980  1.0000 0.1115185459
C   C1        1.0  0.27380  0.90800  0.97730  1.0000 0.587801063
C   C2        1.0  0.90800  0.27380  0.52270  1.0000 0.587801063
C   C3        1.0  0.72620  0.09200  0.02270  1.0000 0.587801063
C   C4        1.0  0.09200  0.72620  0.47730  1.0000 0.587801063
C   C5        1.0  0.34554  0.79374  0.02360  1.0000 -0.0381319236
C   C6        1.0  0.79374  0.34554  0.47640  1.0000 -0.0381319236
C   C7        1.0  0.65446  0.20626  0.97640  1.0000 -0.0381319236
C   C8        1.0  0.20626  0.65446  0.52360  1.0000 -0.0381319236
C   C9        1.0  0.29480  0.77720  0.03280  1.0000 -0.0900756276
C   C10       1.0  0.77720  0.29480  0.46720  1.0000 -0.0900756276
C   C11       1.0  0.70520  0.22280  0.96720  1.0000 -0.0900756276
C   C12       1.0  0.22280  0.70520  0.53280  1.0000 -0.0900756276
C   C13       1.0  0.36268  0.66848  0.07230  1.0000 -0.1534601312
C   C14       1.0  0.66848  0.36268  0.42770  1.0000 -0.1534601312
C   C15       1.0  0.63732  0.33152  0.92770  1.0000 -0.1534601312
C   C16       1.0  0.33152  0.63732  0.57230  1.0000 -0.1534601312
C   C17       1.0  0.48220  0.57580  0.10710  1.0000 0.0643290568
C   C18       1.0  0.57580  0.48220  0.39290  1.0000 0.0643290568
C   C19       1.0  0.51780  0.42420  0.89290  1.0000 0.0643290568
C   C20       1.0  0.42420  0.51780  0.60710  1.0000 0.0643290568
C   C21       1.0  0.53240  0.59380  0.09930  1.0000 -0.1603085354
C   C22       1.0  0.59380  0.53240  0.40070  1.0000 -0.1603085354
C   C23       1.0  0.46760  0.40620  0.90070  1.0000 -0.1603085354
C   C24       1.0  0.40620  0.46760  0.59930  1.0000 -0.1603085354
C   C25       1.0  0.46715  0.69915  0.05800  1.0000 -0.0960278952
C   C26       1.0  0.69915  0.46715  0.44200  1.0000 -0.0960278952
C   C27       1.0  0.53285  0.30085  0.94200  1.0000 -0.0960278952
C   C28       1.0  0.30085  0.53285  0.55800  1.0000 -0.0960278952
C   C29       1.0  0.55752  0.45712  0.14620  1.0000 0.0695153545
C   C30       1.0  0.45712  0.55752  0.35380  1.0000 0.0695153545
C   C31       1.0  0.44248  0.54288  0.85380  1.0000 0.0695153545
C   C32       1.0  0.54288  0.44248  0.64620  1.0000 0.0695153545
C   C33       1.0  0.55002  0.40642  0.10920  1.0000 -0.1534601312
C   C34       1.0  0.40642  0.55002  0.39080  1.0000 -0.1534601312
C   C35       1.0  0.44998  0.59358  0.89080  1.0000 -0.1534601312
C   C36       1.0  0.59358  0.44998  0.60920  1.0000 -0.1534601312
C   C37       1.0  0.62307  0.29747  0.14460  1.0000 -0.0789980154
C   C38       1.0  0.29747  0.62307  0.35540  1.0000 -0.0789980154
C   C39       1.0  0.37693  0.70253  0.85540  1.0000 -0.0789980154
C   C40       1.0  0.70253  0.37693  0.64460  1.0000 -0.0789980154
C   C41       1.0  0.70297  0.23157  0.22000  1.0000 -0.0267796011
C   C42       1.0  0.23157  0.70297  0.28000  1.0000 -0.0267796011
C   C43       1.0  0.29703  0.76843  0.78000  1.0000 -0.0267796011
C   C44       1.0  0.76843  0.29703  0.72000  1.0000 -0.0267796011
C   C45       1.0  0.70792  0.27952  0.25620  1.0000 -0.0900756276
C   C46       1.0  0.27952  0.70792  0.24380  1.0000 -0.0900756276
C   C47       1.0  0.29208  0.72048  0.74380  1.0000 -0.0900756276
C   C48       1.0  0.72048  0.29208  0.75620  1.0000 -0.0900756276
C   C49       1.0  0.63893  0.38993  0.22060  1.0000 -0.1603085354
C   C50       1.0  0.38993  0.63893  0.27940  1.0000 -0.1603085354
C   C51       1.0  0.36107  0.61007  0.77940  1.0000 -0.1603085354
C   C52       1.0  0.61007  0.36107  0.72060  1.0000 -0.1603085354
C   C53       1.0  0.77824  0.11184  0.25650  1.0000 0.587801063
C   C54       1.0  0.11184  0.77824  0.24350  1.0000 0.587801063
C   C55       1.0  0.22176  0.88816  0.74350  1.0000 0.587801063
C   C56       1.0  0.88816  0.22176  0.75650  1.0000 0.587801063
C   C57       1.0  0.13670  0.19310  0.98960  1.0000 0.587801063
C   C58       1.0  0.19310  0.13670  0.51040  1.0000 0.587801063
C   C59       1.0  0.86330  0.80690  0.01040  1.0000 0.587801063
C   C60       1.0  0.80690  0.86330  0.48960  1.0000 0.587801063
C   C61       1.0  0.12326  0.25006  0.03870  1.0000 -0.0671255264
C   C62       1.0  0.25006  0.12326  0.46130  1.0000 -0.0671255264
C   C63       1.0  0.87674  0.74994  0.96130  1.0000 -0.0671255264
C   C64       1.0  0.74994  0.87674  0.53870  1.0000 -0.0671255264
C   C65       1.0  0.04733  0.30313  0.08180  1.0000 -0.0900756276
C   C66       1.0  0.30313  0.04733  0.41820  1.0000 -0.0900756276
C   C67       1.0  0.95267  0.69687  0.91820  1.0000 -0.0900756276
C   C68       1.0  0.69687  0.95267  0.58180  1.0000 -0.0960278952
C   C69       1.0  0.03322  0.36142  0.12840  1.0000 -0.1691653739
C   C70       1.0  0.36142  0.03322  0.37160  1.0000 -0.1691653739
C   C71       1.0  0.96678  0.63858  0.87160  1.0000 -0.1691653739
C   C72       1.0  0.63858  0.96678  0.62840  1.0000 -0.1691653739
C   C73       1.0  0.08756  0.37336  0.13050  1.0000 0.0695153545
C   C74       1.0  0.37336  0.08756  0.36950  1.0000 0.0695153545
C   C75       1.0  0.91244  0.62664  0.86950  1.0000 0.0695153545
C   C76       1.0  0.62664  0.91244  0.63050  1.0000 0.0695153545
C   C77       1.0  0.15098  0.32998  0.08420  1.0000 -0.1534601312
C   C78       1.0  0.32998  0.15098  0.41580  1.0000 -0.1534601312
C   C79       1.0  0.84902  0.67002  0.91580  1.0000 -0.1534601312
C   C80       1.0  0.67002  0.84902  0.58420  1.0000 -0.1534601312
C   C81       1.0  0.17218  0.26438  0.04440  1.0000 -0.0900756276
C   C82       1.0  0.26438  0.17218  0.45560  1.0000 -0.0900756276
C   C83       1.0  0.82782  0.73562  0.95560  1.0000 -0.0900756276
C   C84       1.0  0.73562  0.82782  0.54440  1.0000 -0.0900756276
C   C85       1.0  0.06579  0.43499  0.17650  1.0000 0.0695153545
C   C86       1.0  0.43499  0.06579  0.32350  1.0000 0.0695153545
C   C87       1.0  0.93421  0.56501  0.82350  1.0000 0.0695153545
C   C88       1.0  0.56501  0.93421  0.67650  1.0000 0.0695153545
C   C89       1.0  0.06791  0.41811  0.25210  1.0000 -0.1534601312
C   C90       1.0  0.41811  0.06791  0.24790  1.0000 -0.1534601312
C   C91       1.0  0.93209  0.58189  0.74790  1.0000 -0.1534601312
C   C92       1.0  0.58189  0.93209  0.75210  1.0000 -0.1534601312
C   C93       1.0  0.05274  0.47674  0.30040  1.0000 -0.0960278952
C   C94       1.0  0.47674  0.05274  0.19960  1.0000 -0.0960278952
C   C95       1.0  0.94726  0.52326  0.69960  1.0000 -0.0960278952
C   C96       1.0  0.52326  0.94726  0.80040  1.0000 -0.0960278952
C   C97       1.0  0.02925  0.55605  0.26980  1.0000 -0.0153100688
C   C98       1.0  0.55605  0.02925  0.23020  1.0000 -0.0146742846
C   C99       1.0  0.97075  0.44395  0.73020  1.0000 -0.0146742846
C   C100      1.0  0.44395  0.97075  0.76980  1.0000 -0.0146742846
C   C101      1.0  0.03430  0.57150  0.19670  1.0000 -0.0625568863
C   C102      1.0  0.57150  0.03430  0.30330  1.0000 -0.0625568863
C   C103      1.0  0.96570  0.42850  0.80330  1.0000 -0.0625568863
C   C104      1.0  0.42850  0.96570  0.69670  1.0000 -0.0625568863
C   C105      1.0  0.04840  0.51020  0.15030  1.0000 -0.1413355816
C   C106      1.0  0.51020  0.04840  0.34970  1.0000 -0.1413355816
C   C107      1.0  0.95160  0.48980  0.84970  1.0000 -0.1413355816
C   C108      1.0  0.48980  0.95160  0.65030  1.0000 -0.1413355816
C   C109      1.0  0.01313  0.61833  0.31740  1.0000 0.5301006425
C   C110      1.0  0.61833  0.01313  0.18260  1.0000 0.5301006425
C   C111      1.0  0.98687  0.38167  0.68260  1.0000 0.5301006425
C   C112      1.0  0.38167  0.98687  0.81740  1.0000 0.5301006425
O   O1        1.0  0.16356  0.99276  0.95700  1.0000 -0.5579591107
O   O2        1.0  0.99276  0.16356  0.54300  1.0000 -0.5579591107
O   O3        1.0  0.83644  0.00724  0.04300  1.0000 -0.5579591107
O   O4        1.0  0.00724  0.83644  0.45700  1.0000 -0.5579591107
O   O5        1.0  0.32642  0.91242  0.96323  1.0000 -0.5216963302
O   O6        1.0  0.91242  0.32642  0.53677  1.0000 -0.5216963302
O   O7        1.0  0.67358  0.08758  0.03677  1.0000 -0.5216963302
O   O8        1.0  0.08758  0.67358  0.46323  1.0000 -0.5216963302
O   O9        1.0  0.07906  0.19146  0.98450  1.0000 -0.5447646986
O   O10       1.0  0.19146  0.07906  0.51550  1.0000 -0.5447646986
O   O11       1.0  0.92094  0.80854  0.01550  1.0000 -0.5447646986
O   O12       1.0  0.80854  0.92094  0.48450  1.0000 -0.5447646986
O   O13       1.0  0.21356  0.14136  0.95922  1.0000 -0.5080857586
O   O14       1.0  0.14136  0.21356  0.54078  1.0000 -0.5080857586
O   O15       1.0  0.78644  0.85864  0.04078  1.0000 -0.5080857586
O   O16       1.0  0.85864  0.78644  0.45922  1.0000 -0.5080857586
O   O17       1.0  0.79370  0.06330  0.20932  1.0000 -0.5080857586
O   O18       1.0  0.06330  0.79370  0.29068  1.0000 -0.5080857586
O   O19       1.0  0.20630  0.93670  0.79068  1.0000 -0.5080857586
O   O20       1.0  0.93670  0.20630  0.70932  1.0000 -0.5080857586
O   O21       1.0  0.82025  0.06885  0.32677  1.0000 -0.5322752159
O   O22       1.0  0.06885  0.82025  0.17323  1.0000 -0.5322752159
O   O23       1.0  0.17975  0.93115  0.67323  1.0000 -0.5322752159
O   O24       1.0  0.93115  0.17975  0.82677  1.0000 -0.5322752159
O   O25       1.0  0.00831  0.60971  0.37970  1.0000 -0.4057086493
O   O26       1.0  0.60971  0.00831  0.12030  1.0000 -0.4057086493
O   O27       1.0  0.99169  0.39029  0.62030  1.0000 -0.4057086493
O   O28       1.0  0.39029  0.99169  0.87970  1.0000 -0.4057086493
O   O29       1.0  0.00744  0.67964  0.29360  1.0000 -0.3941824745
O   O30       1.0  0.67964  0.00744  0.20640  1.0000 -0.39594254
O   O31       1.0  0.99256  0.32036  0.70640  1.0000 -0.39594254
O   O32       1.0  0.32036  0.99256  0.79360  1.0000 -0.39594254
O   O33       1.0  0.84936  0.90156  0.33125  1.0000 -0.8682398211
O   O34       1.0  0.90156  0.84936  0.16875  1.0000 -0.8682398211
O   O35       1.0  0.15064  0.09844  0.66875  1.0000 -0.8682398211
O   O36       1.0  0.09844  0.15064  0.83125  1.0000 -0.8682398211
