# DDEC6 charges by PACMAN v1.1 (https://github.com/mtap-research/PACMAN-charge/)
data_2007[Pb][nan]3[ASR]1
_chemical_formula_sum              "H16 Pb4 C32 O16"
_cell_length_a       11.553
_cell_length_b       6.7992
_cell_length_c       20.1823
_cell_angle_alpha    90
_cell_angle_beta     122.392
_cell_angle_gamma    90

_symmetry_space_group_name_H-M    "P 1"
_symmetry_Int_Tables_number       1

loop_
  _symmetry_equiv_pos_as_xyz
  'x, y, z'

loop_
  _atom_site_type_symbol
  _atom_site_label
  _atom_site_symmetry_multiplicity
  _atom_site_fract_x
  _atom_site_fract_y
  _atom_site_fract_z
  _atom_site_occupancy
  _atom_site_charge
H   H1        1.0  0.91940  0.71930  0.02650  1.0000 0.1217019178
H   H2        1.0  0.08060  0.21930  0.47350  1.0000 0.1217019178
H   H3        1.0  0.08060  0.28070  0.97350  1.0000 0.1217019178
H   H4        1.0  0.91940  0.78070  0.52650  1.0000 0.1217019178
H   H5        1.0  0.06840  0.26650  0.08390  1.0000 0.1133675692
H   H6        1.0  0.93160  0.76650  0.41610  1.0000 0.1133675692
H   H7        1.0  0.93160  0.73350  0.91610  1.0000 0.1133675692
H   H8        1.0  0.06840  0.23350  0.58390  1.0000 0.1133675692
H   H9        1.0  0.70050  0.65010  0.09740  1.0000 0.1217019178
H   H10       1.0  0.29950  0.15010  0.40260  1.0000 0.1217019178
H   H11       1.0  0.29950  0.34990  0.90260  1.0000 0.1217019178
H   H12       1.0  0.70050  0.84990  0.59740  1.0000 0.1217019178
H   H13       1.0  0.46810  0.16550  0.00550  1.0000 0.1217019178
H   H14       1.0  0.53190  0.66550  0.49450  1.0000 0.1217019178
H   H15       1.0  0.53190  0.83450  0.99450  1.0000 0.1217019178
H   H16       1.0  0.46810  0.33450  0.50550  1.0000 0.1217019178
Pb  Pb1       1.0  0.91408  0.05058  0.25693  1.0000 1.0392407221
Pb  Pb2       1.0  0.08592  0.55058  0.24307  1.0000 1.0392407221
Pb  Pb3       1.0  0.08592  0.94942  0.74307  1.0000 1.0392407221
Pb  Pb4       1.0  0.91408  0.44942  0.75693  1.0000 1.0392407221
C   C1        1.0  0.98450  0.98060  0.13850  1.0000 0.5716925901
C   C2        1.0  0.01550  0.48060  0.36150  1.0000 0.5716925901
C   C3        1.0  0.01550  0.01940  0.86150  1.0000 0.5716925901
C   C4        1.0  0.98450  0.51940  0.63850  1.0000 0.5716925901
C   C5        1.0  0.99400  0.98940  0.06700  1.0000 -0.0199211778
C   C6        1.0  0.00600  0.48940  0.43300  1.0000 -0.0199211778
C   C7        1.0  0.00600  0.01060  0.93300  1.0000 -0.0199211778
C   C8        1.0  0.99400  0.51060  0.56700  1.0000 -0.0199211778
C   C9        1.0  0.95230  0.83240  0.01610  1.0000 -0.1082465123
C   C10       1.0  0.04770  0.33240  0.48390  1.0000 -0.1082465123
C   C11       1.0  0.04770  0.16760  0.98390  1.0000 -0.1082465123
C   C12       1.0  0.95230  0.66760  0.51610  1.0000 -0.1082465123
C   C13       1.0  0.04120  0.15890  0.05040  1.0000 -0.1034950038
C   C14       1.0  0.95880  0.65890  0.44960  1.0000 -0.1034950038
C   C15       1.0  0.95880  0.84110  0.94960  1.0000 -0.1034950038
C   C16       1.0  0.04120  0.34110  0.55040  1.0000 -0.1034950038
C   C17       1.0  0.70970  0.26620  0.12740  1.0000 0.5469420296
C   C18       1.0  0.29030  0.76620  0.37260  1.0000 0.5469420296
C   C19       1.0  0.29030  0.73380  0.87260  1.0000 0.5469420296
C   C20       1.0  0.70970  0.23380  0.62740  1.0000 0.5469420296
C   C21       1.0  0.60160  0.38910  0.06150  1.0000 -0.0199211778
C   C22       1.0  0.39840  0.88910  0.43850  1.0000 -0.0199211778
C   C23       1.0  0.39840  0.61090  0.93850  1.0000 -0.0199211778
C   C24       1.0  0.60160  0.11090  0.56150  1.0000 -0.0199211778
C   C25       1.0  0.62020  0.59000  0.05830  1.0000 -0.1034950038
C   C26       1.0  0.37980  0.09000  0.44170  1.0000 -0.1034950038
C   C27       1.0  0.37980  0.41000  0.94170  1.0000 -0.1034950038
C   C28       1.0  0.62020  0.91000  0.55830  1.0000 -0.1034950038
C   C29       1.0  0.48070  0.29980  0.00310  1.0000 -0.1034950038
C   C30       1.0  0.51930  0.79980  0.49690  1.0000 -0.1034950038
C   C31       1.0  0.51930  0.70020  0.99690  1.0000 -0.1034950038
C   C32       1.0  0.48070  0.20020  0.50310  1.0000 -0.1034950038
O   O1        1.0  0.01600  0.13010  0.18040  1.0000 -0.534031685
O   O2        1.0  0.98400  0.63010  0.31960  1.0000 -0.534031685
O   O3        1.0  0.98400  0.86990  0.81960  1.0000 -0.534031685
O   O4        1.0  0.01600  0.36990  0.68040  1.0000 -0.534031685
O   O5        1.0  0.94231  0.82210  0.15181  1.0000 -0.5582528669
O   O6        1.0  0.05769  0.32210  0.34819  1.0000 -0.5582528669
O   O7        1.0  0.05769  0.17790  0.84819  1.0000 -0.5582528669
O   O8        1.0  0.94231  0.67790  0.65181  1.0000 -0.5582528669
O   O9        1.0  0.81300  0.35410  0.18390  1.0000 -0.5712609399
O   O10       1.0  0.18700  0.85410  0.31610  1.0000 -0.5712609399
O   O11       1.0  0.18700  0.64590  0.81610  1.0000 -0.5712609399
O   O12       1.0  0.81300  0.14590  0.68390  1.0000 -0.5712609399
O   O13       1.0  0.69600  0.08430  0.12620  1.0000 -0.5142292935
O   O14       1.0  0.30400  0.58430  0.37380  1.0000 -0.5142292935
O   O15       1.0  0.30400  0.91570  0.87380  1.0000 -0.5142292935
O   O16       1.0  0.69600  0.41570  0.62620  1.0000 -0.5142292935
