# DDEC6 charges by PACMAN v1.1 (https://github.com/mtap-research/PACMAN-charge/)
data_2007[HoRu][tfi]3[ASR]1
_chemical_formula_sum              "Ho2 P8 H16 Ru4 C8 O28"
_cell_length_a       9.55154
_cell_length_b       9.55154
_cell_length_c       15.39
_cell_angle_alpha    87.2895
_cell_angle_beta     92.7105
_cell_angle_gamma    81.7003

_symmetry_space_group_name_H-M    "P 1"
_symmetry_Int_Tables_number       1

loop_
  _symmetry_equiv_pos_as_xyz
  'x, y, z'

loop_
  _atom_site_type_symbol
  _atom_site_label
  _atom_site_symmetry_multiplicity
  _atom_site_fract_x
  _atom_site_fract_y
  _atom_site_fract_z
  _atom_site_occupancy
  _atom_site_charge
Ho  Ho1       1.0  0.99005  0.99005  0.75000  1.0000 2.1314389013
Ho  Ho2       1.0  0.00995  0.00995  0.25000  1.0000 2.1370405458
P   P1        1.0  0.04408  0.64682  0.64512  1.0000 1.2080050013
P   P2        1.0  0.64682  0.04408  0.85488  1.0000 1.2033655189
P   P3        1.0  0.95592  0.35318  0.35488  1.0000 1.2080050013
P   P4        1.0  0.35318  0.95592  0.14512  1.0000 1.2080050013
P   P5        1.0  0.97686  0.34712  0.65454  1.0000 1.2033655189
P   P6        1.0  0.34712  0.97686  0.84546  1.0000 1.2033655189
P   P7        1.0  0.02314  0.65288  0.34546  1.0000 1.2033655189
P   P8        1.0  0.65288  0.02314  0.15454  1.0000 1.2033655189
H   H1        1.0  0.83110  0.57530  0.73560  1.0000 0.3582153223
H   H2        1.0  0.57530  0.83110  0.76440  1.0000 0.3582153223
H   H3        1.0  0.16890  0.42470  0.26440  1.0000 0.3582153223
H   H4        1.0  0.42470  0.16890  0.23560  1.0000 0.3582153223
H   H5        1.0  0.16600  0.52860  0.81340  1.0000 0.1495557274
H   H6        1.0  0.52860  0.16600  0.68660  1.0000 0.1495557274
H   H7        1.0  0.83400  0.47140  0.18660  1.0000 0.1495557274
H   H8        1.0  0.47140  0.83400  0.31340  1.0000 0.1495557274
H   H9        1.0  0.12570  0.37170  0.81810  1.0000 0.1564034201
H   H10       1.0  0.37170  0.12570  0.68190  1.0000 0.1564034201
H   H11       1.0  0.87430  0.62830  0.18190  1.0000 0.1564034201
H   H12       1.0  0.62830  0.87430  0.31810  1.0000 0.1564034201
H   H13       1.0  0.22940  0.41620  0.74640  1.0000 0.1495557274
H   H14       1.0  0.41620  0.22940  0.75360  1.0000 0.1495557274
H   H15       1.0  0.77060  0.58380  0.25360  1.0000 0.1495557274
H   H16       1.0  0.58380  0.77060  0.24640  1.0000 0.1495557274
Ru  Ru1       1.0  0.12144  0.45472  0.50194  1.0000 0.9042872093
Ru  Ru2       1.0  0.45472  0.12144  0.99806  1.0000 0.9042872093
Ru  Ru3       1.0  0.87856  0.54528  0.49806  1.0000 0.9086703859
Ru  Ru4       1.0  0.54528  0.87856  0.00194  1.0000 0.9086703859
C   C1        1.0  0.02070  0.49690  0.71630  1.0000 -0.2104832776
C   C2        1.0  0.49690  0.02070  0.78370  1.0000 -0.2104832776
C   C3        1.0  0.97930  0.50310  0.28370  1.0000 -0.2104832776
C   C4        1.0  0.50310  0.97930  0.21630  1.0000 -0.2104832776
C   C5        1.0  0.14650  0.44910  0.77900  1.0000 -0.4145760534
C   C6        1.0  0.44910  0.14650  0.72100  1.0000 -0.416416923
C   C7        1.0  0.85350  0.55090  0.22100  1.0000 -0.4145760534
C   C8        1.0  0.55090  0.85350  0.27900  1.0000 -0.4145760534
O   O1        1.0  0.16480  0.59520  0.58680  1.0000 -0.5977161326
O   O2        1.0  0.59520  0.16480  0.91320  1.0000 -0.5977161326
O   O3        1.0  0.83520  0.40480  0.41320  1.0000 -0.5977161326
O   O4        1.0  0.40480  0.83520  0.08680  1.0000 -0.5977161326
O   O5        1.0  0.90970  0.69190  0.58620  1.0000 -0.6722022392
O   O6        1.0  0.69190  0.90970  0.91380  1.0000 -0.6722022392
O   O7        1.0  0.09030  0.30810  0.41380  1.0000 -0.6722022392
O   O8        1.0  0.30810  0.09030  0.08620  1.0000 -0.6722022392
O   O9        1.0  0.07150  0.76670  0.69790  1.0000 -0.8277376465
O   O10       1.0  0.76670  0.07150  0.80210  1.0000 -0.8277376465
O   O11       1.0  0.92850  0.23330  0.30210  1.0000 -0.8277376465
O   O12       1.0  0.23330  0.92850  0.19790  1.0000 -0.8277376465
O   O13       1.0  0.10550  0.30730  0.59810  1.0000 -0.6344812609
O   O14       1.0  0.30730  0.10550  0.90190  1.0000 -0.6344812609
O   O15       1.0  0.89450  0.69270  0.40190  1.0000 -0.6367338158
O   O16       1.0  0.69270  0.89450  0.09810  1.0000 -0.6344812609
O   O17       1.0  0.84410  0.40450  0.59360  1.0000 -0.6367338158
O   O18       1.0  0.40450  0.84410  0.90640  1.0000 -0.6367338158
O   O19       1.0  0.15590  0.59550  0.40640  1.0000 -0.6367338158
O   O20       1.0  0.59550  0.15590  0.09360  1.0000 -0.6367338158
O   O21       1.0  0.95230  0.22850  0.71410  1.0000 -0.8277376465
O   O22       1.0  0.22850  0.95230  0.78590  1.0000 -0.8277376465
O   O23       1.0  0.04770  0.77150  0.28590  1.0000 -0.8277376465
O   O24       1.0  0.77150  0.04770  0.21410  1.0000 -0.8277376465
O   O25       1.0  0.90160  0.54500  0.77050  1.0000 -0.3767675556
O   O26       1.0  0.54500  0.90160  0.72950  1.0000 -0.3767675556
O   O27       1.0  0.09840  0.45500  0.22950  1.0000 -0.3690896429
O   O28       1.0  0.45500  0.09840  0.27050  1.0000 -0.3767675556
