# DDEC6 charges by PACMAN v1.1 (https://github.com/mtap-research/PACMAN-charge/)
data_2007[La][nan]3[ASR]2
_chemical_formula_sum              "La4 H48 C72 N36 O24"
_cell_length_a       8.7794
_cell_length_b       24.8971
_cell_length_c       12.4011
_cell_angle_alpha    90
_cell_angle_beta     92.262
_cell_angle_gamma    90

_symmetry_space_group_name_H-M    "P 1"
_symmetry_Int_Tables_number       1

loop_
  _symmetry_equiv_pos_as_xyz
  'x, y, z'

loop_
  _atom_site_type_symbol
  _atom_site_label
  _atom_site_symmetry_multiplicity
  _atom_site_fract_x
  _atom_site_fract_y
  _atom_site_fract_z
  _atom_site_occupancy
  _atom_site_charge
La  La1       1.0  0.24525  0.99154  0.99796  1.0000 1.8307748649
La  La2       1.0  0.25475  0.49154  0.00204  1.0000 1.8307748649
La  La3       1.0  0.75475  0.00846  0.00204  1.0000 1.8307748649
La  La4       1.0  0.74525  0.50846  0.99796  1.0000 1.8307748649
H   H1        1.0  0.41050  0.82340  0.84560  1.0000 0.1561996943
H   H2        1.0  0.08950  0.32340  0.15440  1.0000 0.1561996943
H   H3        1.0  0.58950  0.17660  0.15440  1.0000 0.1561996943
H   H4        1.0  0.91050  0.67660  0.84560  1.0000 0.1561996943
H   H5        1.0  0.33110  0.79790  0.94550  1.0000 0.1561996943
H   H6        1.0  0.16890  0.29790  0.05450  1.0000 0.1561996943
H   H7        1.0  0.66890  0.20210  0.05450  1.0000 0.1561996943
H   H8        1.0  0.83110  0.70210  0.94550  1.0000 0.1561996943
H   H9        1.0  0.09720  0.85330  0.71450  1.0000 0.1488668907
H   H10       1.0  0.40280  0.35330  0.28550  1.0000 0.1488668907
H   H11       1.0  0.90280  0.14670  0.28550  1.0000 0.1488668907
H   H12       1.0  0.59720  0.64670  0.71450  1.0000 0.1488668907
H   H13       1.0  0.90290  0.69400  0.56680  1.0000 0.1234471264
H   H14       1.0  0.59710  0.19400  0.43320  1.0000 0.1234471264
H   H15       1.0  0.09710  0.30600  0.43320  1.0000 0.1234471264
H   H16       1.0  0.40290  0.80600  0.56680  1.0000 0.1234471264
H   H17       1.0  0.54810  0.70560  0.27520  1.0000 0.1382776263
H   H18       1.0  0.95190  0.20560  0.72480  1.0000 0.1382776263
H   H19       1.0  0.45190  0.29440  0.72480  1.0000 0.1382776263
H   H20       1.0  0.04810  0.79440  0.27520  1.0000 0.1382776263
H   H21       1.0  0.62720  0.78370  0.36990  1.0000 0.1066796917
H   H22       1.0  0.87280  0.28370  0.63010  1.0000 0.1066796917
H   H23       1.0  0.37280  0.21630  0.63010  1.0000 0.1066796917
H   H24       1.0  0.12720  0.71630  0.36990  1.0000 0.1066796917
H   H25       1.0  0.89750  0.85560  0.59790  1.0000 0.1260123166
H   H26       1.0  0.60250  0.35560  0.40210  1.0000 0.1260123166
H   H27       1.0  0.10250  0.14440  0.40210  1.0000 0.1260123166
H   H28       1.0  0.39750  0.64440  0.59790  1.0000 0.1260123166
H   H29       1.0  0.51810  0.86820  0.32750  1.0000 0.1382776263
H   H30       1.0  0.98190  0.36820  0.67250  1.0000 0.1382776263
H   H31       1.0  0.48190  0.13180  0.67250  1.0000 0.1382776263
H   H32       1.0  0.01810  0.63180  0.32750  1.0000 0.1382776263
H   H33       1.0  0.37500  0.96140  0.27790  1.0000 0.1561996943
H   H34       1.0  0.12500  0.46140  0.72210  1.0000 0.1561996943
H   H35       1.0  0.62500  0.03860  0.72210  1.0000 0.1561996943
H   H36       1.0  0.87500  0.53860  0.27790  1.0000 0.1561996943
H   H37       1.0  0.44520  0.01320  0.33530  1.0000 0.1671707469
H   H38       1.0  0.05480  0.51320  0.66470  1.0000 0.1671707469
H   H39       1.0  0.55480  0.98680  0.66470  1.0000 0.1671707469
H   H40       1.0  0.94520  0.48680  0.33530  1.0000 0.1671707469
H   H41       1.0  0.39740  0.56840  0.27310  1.0000 0.1671707469
H   H42       1.0  0.10260  0.06840  0.72690  1.0000 0.1671707469
H   H43       1.0  0.60260  0.43160  0.72690  1.0000 0.1671707469
H   H44       1.0  0.89740  0.93160  0.27310  1.0000 0.1671707469
H   H45       1.0  0.38300  0.62080  0.20080  1.0000 0.1561996943
H   H46       1.0  0.11700  0.12080  0.79920  1.0000 0.1561996943
H   H47       1.0  0.61700  0.37920  0.79920  1.0000 0.1561996943
H   H48       1.0  0.88300  0.87920  0.20080  1.0000 0.1561996943
C   C1        1.0  0.27280  0.87642  0.92090  1.0000 0.6295629057
C   C2        1.0  0.22720  0.37642  0.07910  1.0000 0.6295629057
C   C3        1.0  0.72720  0.12358  0.07910  1.0000 0.6295629057
C   C4        1.0  0.77280  0.62358  0.92090  1.0000 0.6295629057
C   C5        1.0  0.31390  0.82100  0.88230  1.0000 -0.3028914344
C   C6        1.0  0.18610  0.32100  0.11770  1.0000 -0.3028914344
C   C7        1.0  0.68610  0.17900  0.11770  1.0000 -0.3028914344
C   C8        1.0  0.81390  0.67900  0.88230  1.0000 -0.3028914344
C   C9        1.0  0.03510  0.77360  0.68290  1.0000 0.1024872397
C   C10       1.0  0.46490  0.27360  0.31710  1.0000 0.1024872397
C   C11       1.0  0.96490  0.22640  0.31710  1.0000 0.1024872397
C   C12       1.0  0.53510  0.72640  0.68290  1.0000 0.1024872397
C   C13       1.0  0.10900  0.81670  0.73170  1.0000 -0.1454301116
C   C14       1.0  0.39100  0.31670  0.26830  1.0000 -0.1454301116
C   C15       1.0  0.89100  0.18330  0.26830  1.0000 -0.1454301116
C   C16       1.0  0.60900  0.68330  0.73170  1.0000 -0.1454301116
C   C17       1.0  0.91870  0.77480  0.59460  1.0000 0.0728401629
C   C18       1.0  0.58130  0.27480  0.40540  1.0000 0.0728401629
C   C19       1.0  0.08130  0.22520  0.40540  1.0000 0.0728401629
C   C20       1.0  0.41870  0.72520  0.59460  1.0000 0.0728401629
C   C21       1.0  0.86460  0.72760  0.54450  1.0000 -0.1603327629
C   C22       1.0  0.63540  0.22760  0.45550  1.0000 -0.1603327629
C   C23       1.0  0.13540  0.27240  0.45550  1.0000 -0.1603327629
C   C24       1.0  0.36460  0.77240  0.54450  1.0000 -0.1603327629
C   C25       1.0  0.75210  0.73120  0.46050  1.0000 0.0728401629
C   C26       1.0  0.74790  0.23120  0.53950  1.0000 0.0728401629
C   C27       1.0  0.24790  0.26880  0.53950  1.0000 0.0728401629
C   C28       1.0  0.25210  0.76880  0.46050  1.0000 0.0728401629
C   C29       1.0  0.68360  0.68260  0.41060  1.0000 0.1024872397
C   C30       1.0  0.81640  0.18260  0.58940  1.0000 0.1024872397
C   C31       1.0  0.31640  0.31740  0.58940  1.0000 0.1024872397
C   C32       1.0  0.18360  0.81740  0.41060  1.0000 0.1024872397
C   C33       1.0  0.58370  0.67800  0.32160  1.0000 -0.172694647
C   C34       1.0  0.91630  0.17800  0.67840  1.0000 -0.172694647
C   C35       1.0  0.41630  0.32200  0.67840  1.0000 -0.172694647
C   C36       1.0  0.08370  0.82200  0.32160  1.0000 -0.172694647
C   C37       1.0  0.69940  0.78140  0.42770  1.0000 -0.1917646018
C   C38       1.0  0.80060  0.28140  0.57230  1.0000 -0.1917646018
C   C39       1.0  0.30060  0.21860  0.57230  1.0000 -0.1917646018
C   C40       1.0  0.19940  0.71860  0.42770  1.0000 -0.1917646018
C   C41       1.0  0.75100  0.82850  0.47860  1.0000 0.0728401629
C   C42       1.0  0.74900  0.32850  0.52140  1.0000 0.0728401629
C   C43       1.0  0.24900  0.17150  0.52140  1.0000 0.0728401629
C   C44       1.0  0.25100  0.67150  0.47860  1.0000 0.0728401629
C   C45       1.0  0.86160  0.82440  0.56270  1.0000 -0.1603327629
C   C46       1.0  0.63840  0.32440  0.43730  1.0000 -0.1603327629
C   C47       1.0  0.13840  0.17560  0.43730  1.0000 -0.1603327629
C   C48       1.0  0.36160  0.67560  0.56270  1.0000 -0.1603327629
C   C49       1.0  0.68960  0.88050  0.44600  1.0000 0.0905300981
C   C50       1.0  0.81040  0.38050  0.55400  1.0000 0.0905300981
C   C51       1.0  0.31040  0.11950  0.55400  1.0000 0.0905300981
C   C52       1.0  0.18960  0.61950  0.44600  1.0000 0.0905300981
C   C53       1.0  0.57500  0.89250  0.37080  1.0000 -0.1603327629
C   C54       1.0  0.92500  0.39250  0.62920  1.0000 -0.1603327629
C   C55       1.0  0.42500  0.10750  0.62920  1.0000 -0.1603327629
C   C56       1.0  0.07500  0.60750  0.37080  1.0000 -0.1603327629
C   C57       1.0  0.55960  0.99185  0.19910  1.0000 0.6563762042
C   C58       1.0  0.94040  0.49185  0.80090  1.0000 0.6563762042
C   C59       1.0  0.44040  0.00815  0.80090  1.0000 0.6563762042
C   C60       1.0  0.05960  0.50815  0.19910  1.0000 0.6563762042
C   C61       1.0  0.47050  0.97960  0.29900  1.0000 -0.3064710883
C   C62       1.0  0.02950  0.47960  0.70100  1.0000 -0.3064710883
C   C63       1.0  0.52950  0.02040  0.70100  1.0000 -0.3064710883
C   C64       1.0  0.97050  0.52040  0.29900  1.0000 -0.3064710883
C   C65       1.0  0.55230  0.57000  0.15290  1.0000 0.6563762042
C   C66       1.0  0.94770  0.07000  0.84710  1.0000 0.6563762042
C   C67       1.0  0.44770  0.43000  0.84710  1.0000 0.6563762042
C   C68       1.0  0.05230  0.93000  0.15290  1.0000 0.6563762042
C   C69       1.0  0.45570  0.59610  0.23660  1.0000 -0.3028914344
C   C70       1.0  0.04430  0.09610  0.76340  1.0000 -0.3028914344
C   C71       1.0  0.54430  0.40390  0.76340  1.0000 -0.3028914344
C   C72       1.0  0.95570  0.90390  0.23660  1.0000 -0.3028914344
N   N1        1.0  0.20190  0.79500  0.80940  1.0000 0.2092265847
N   N2        1.0  0.29810  0.29500  0.19060  1.0000 0.2092265847
N   N3        1.0  0.79810  0.20500  0.19060  1.0000 0.2092265847
N   N4        1.0  0.70190  0.70500  0.80940  1.0000 0.2092265847
N   N5        1.0  0.19030  0.74145  0.80880  1.0000 -0.1356499878
N   N6        1.0  0.30970  0.24145  0.19120  1.0000 -0.1356499878
N   N7        1.0  0.80970  0.25855  0.19120  1.0000 -0.1356499878
N   N8        1.0  0.69030  0.75855  0.80880  1.0000 -0.1356499878
N   N9        1.0  0.08890  0.72837  0.73230  1.0000 -0.2394848342
N   N10       1.0  0.41110  0.22837  0.26770  1.0000 -0.2394848342
N   N11       1.0  0.91110  0.27163  0.26770  1.0000 -0.2394848342
N   N12       1.0  0.58890  0.77163  0.73230  1.0000 -0.2394848342
N   N13       1.0  0.70490  0.63293  0.45300  1.0000 -0.2394848342
N   N14       1.0  0.79510  0.13293  0.54700  1.0000 -0.2394848342
N   N15       1.0  0.29510  0.36707  0.54700  1.0000 -0.2394848342
N   N16       1.0  0.20490  0.86707  0.45300  1.0000 -0.2394848342
N   N17       1.0  0.62270  0.59802  0.39480  1.0000 -0.0986657006
N   N18       1.0  0.87730  0.09802  0.60520  1.0000 -0.0986657006
N   N19       1.0  0.37730  0.40198  0.60520  1.0000 -0.0986657006
N   N20       1.0  0.12270  0.90198  0.39480  1.0000 -0.0986657006
N   N21       1.0  0.54940  0.62563  0.31660  1.0000 0.2031731016
N   N22       1.0  0.95060  0.12563  0.68340  1.0000 0.2031731016
N   N23       1.0  0.45060  0.37437  0.68340  1.0000 0.2031731016
N   N24       1.0  0.04940  0.87437  0.31660  1.0000 0.2031731016
N   N25       1.0  0.56140  0.94556  0.37240  1.0000 0.2031731016
N   N26       1.0  0.93860  0.44556  0.62760  1.0000 0.2031731016
N   N27       1.0  0.43860  0.05444  0.62760  1.0000 0.2031731016
N   N28       1.0  0.06140  0.55444  0.37240  1.0000 0.2031731016
N   N29       1.0  0.66190  0.96805  0.44440  1.0000 -0.0986657006
N   N30       1.0  0.83810  0.46805  0.55560  1.0000 -0.0986657006
N   N31       1.0  0.33810  0.03195  0.55560  1.0000 -0.0986657006
N   N32       1.0  0.16190  0.53195  0.44440  1.0000 -0.0986657006
N   N33       1.0  0.73910  0.92794  0.48990  1.0000 -0.2394848342
N   N34       1.0  0.76090  0.42794  0.51010  1.0000 -0.2394848342
N   N35       1.0  0.26090  0.07206  0.51010  1.0000 -0.2394848342
N   N36       1.0  0.23910  0.57206  0.48990  1.0000 -0.2394848342
O   O1        1.0  0.38100  0.90138  0.96890  1.0000 -0.587653437
O   O2        1.0  0.11900  0.40138  0.03110  1.0000 -0.587653437
O   O3        1.0  0.61900  0.09862  0.03110  1.0000 -0.587653437
O   O4        1.0  0.88100  0.59862  0.96890  1.0000 -0.587653437
O   O5        1.0  0.14270  0.89650  0.90820  1.0000 -0.587653437
O   O6        1.0  0.35730  0.39650  0.09180  1.0000 -0.587653437
O   O7        1.0  0.85730  0.10350  0.09180  1.0000 -0.587653437
O   O8        1.0  0.64270  0.60350  0.90820  1.0000 -0.587653437
O   O9        1.0  0.70110  0.99758  0.20620  1.0000 -0.5827999649
O   O10       1.0  0.79890  0.49758  0.79380  1.0000 -0.5827999649
O   O11       1.0  0.29890  0.00242  0.79380  1.0000 -0.5827999649
O   O12       1.0  0.20110  0.50242  0.20620  1.0000 -0.5827999649
O   O13       1.0  0.48630  0.99636  0.10910  1.0000 -0.6701384571
O   O14       1.0  0.01370  0.49636  0.89090  1.0000 -0.6701384571
O   O15       1.0  0.51370  0.00364  0.89090  1.0000 -0.6701384571
O   O16       1.0  0.98630  0.50364  0.10910  1.0000 -0.6701384571
O   O17       1.0  0.69170  0.57794  0.15160  1.0000 -0.5657307294
O   O18       1.0  0.80830  0.07794  0.84840  1.0000 -0.5657307294
O   O19       1.0  0.30830  0.42206  0.84840  1.0000 -0.5657307294
O   O20       1.0  0.19170  0.92206  0.15160  1.0000 -0.5657307294
O   O21       1.0  0.48360  0.53884  0.08380  1.0000 -0.6948360589
O   O22       1.0  0.01640  0.03884  0.91620  1.0000 -0.6948360589
O   O23       1.0  0.51640  0.46116  0.91620  1.0000 -0.6948360589
O   O24       1.0  0.98360  0.96116  0.08380  1.0000 -0.6948360589
