# DDEC6 charges by PACMAN v1.1 (https://github.com/mtap-research/PACMAN-charge/)
data_2007[Cd][rtl]3[ASR]2
_chemical_formula_sum              "Cd4 H12 C36 O24"
_cell_length_a       10.0355
_cell_length_b       12.819
_cell_length_c       15.4797
_cell_angle_alpha    90
_cell_angle_beta     102.486
_cell_angle_gamma    90

_symmetry_space_group_name_H-M    "P 1"
_symmetry_Int_Tables_number       1

loop_
  _symmetry_equiv_pos_as_xyz
  'x, y, z'

loop_
  _atom_site_type_symbol
  _atom_site_label
  _atom_site_symmetry_multiplicity
  _atom_site_fract_x
  _atom_site_fract_y
  _atom_site_fract_z
  _atom_site_occupancy
  _atom_site_charge
Cd  Cd1       1.0  0.82129  0.03395  0.90831  1.0000 1.0292931786
Cd  Cd2       1.0  0.17871  0.53395  0.59169  1.0000 1.0292931786
Cd  Cd3       1.0  0.17871  0.96605  0.09169  1.0000 1.0292931786
Cd  Cd4       1.0  0.82129  0.46605  0.40831  1.0000 1.0292931786
H   H1        1.0  0.36030  0.08260  0.94590  1.0000 0.1393952826
H   H2        1.0  0.63970  0.58260  0.55410  1.0000 0.1393952826
H   H3        1.0  0.63970  0.91740  0.05410  1.0000 0.1393952826
H   H4        1.0  0.36030  0.41740  0.44590  1.0000 0.1393952826
H   H5        1.0  0.08240  0.28290  0.81250  1.0000 0.1393952826
H   H6        1.0  0.91760  0.78290  0.68750  1.0000 0.1393952826
H   H7        1.0  0.91760  0.71710  0.18750  1.0000 0.1393952826
H   H8        1.0  0.08240  0.21710  0.31250  1.0000 0.1393952826
H   H9        1.0  0.46590  0.28980  0.77760  1.0000 0.1328462652
H   H10       1.0  0.53410  0.78980  0.72240  1.0000 0.1328462652
H   H11       1.0  0.53410  0.71020  0.22240  1.0000 0.1328462652
H   H12       1.0  0.46590  0.21020  0.27760  1.0000 0.1328462652
C   C1        1.0  0.57874  0.13836  0.88265  1.0000 0.5367155737
C   C2        1.0  0.42126  0.63836  0.61735  1.0000 0.5367155737
C   C3        1.0  0.42126  0.86164  0.11735  1.0000 0.5367155737
C   C4        1.0  0.57874  0.36164  0.38265  1.0000 0.5367155737
C   C5        1.0  0.43675  0.18025  0.86512  1.0000 -0.0026717053
C   C6        1.0  0.56325  0.68025  0.63488  1.0000 -0.0026717053
C   C7        1.0  0.56325  0.81975  0.13488  1.0000 -0.0026717053
C   C8        1.0  0.43675  0.31975  0.36512  1.0000 -0.0026717053
C   C9        1.0  0.33705  0.13623  0.90496  1.0000 -0.0871277341
C   C10       1.0  0.66295  0.63623  0.59504  1.0000 -0.0871277341
C   C11       1.0  0.66295  0.86377  0.09504  1.0000 -0.0871277341
C   C12       1.0  0.33705  0.36377  0.40496  1.0000 -0.0871277341
C   C13       1.0  0.20329  0.17271  0.88316  1.0000 -0.0103224791
C   C14       1.0  0.79671  0.67271  0.61684  1.0000 -0.0103224791
C   C15       1.0  0.79671  0.82729  0.11684  1.0000 -0.0103224791
C   C16       1.0  0.20329  0.32729  0.38316  1.0000 -0.0103224791
C   C17       1.0  0.17068  0.25631  0.82471  1.0000 -0.0871277341
C   C18       1.0  0.82932  0.75631  0.67529  1.0000 -0.0871277341
C   C19       1.0  0.82932  0.74369  0.17529  1.0000 -0.0871277341
C   C20       1.0  0.17068  0.24369  0.32471  1.0000 -0.0871277341
C   C21       1.0  0.26767  0.30010  0.78468  1.0000 -0.0103224791
C   C22       1.0  0.73233  0.80010  0.71532  1.0000 -0.0103224791
C   C23       1.0  0.73233  0.69990  0.21532  1.0000 -0.0103224791
C   C24       1.0  0.26767  0.19990  0.28468  1.0000 -0.0103224791
C   C25       1.0  0.40046  0.26117  0.80490  1.0000 -0.0843420932
C   C26       1.0  0.59954  0.76117  0.69510  1.0000 -0.0871277341
C   C27       1.0  0.59954  0.73883  0.19510  1.0000 -0.0871277341
C   C28       1.0  0.40046  0.23883  0.30490  1.0000 -0.0843420932
C   C29       1.0  0.23199  0.38416  0.71627  1.0000 0.5367155737
C   C30       1.0  0.76801  0.88416  0.78373  1.0000 0.5367155737
C   C31       1.0  0.76801  0.61584  0.28373  1.0000 0.5367155737
C   C32       1.0  0.23199  0.11584  0.21627  1.0000 0.5367155737
C   C33       1.0  0.09312  0.11643  0.91576  1.0000 0.5818421087
C   C34       1.0  0.90688  0.61643  0.58424  1.0000 0.5818421087
C   C35       1.0  0.90688  0.88357  0.08424  1.0000 0.5818421087
C   C36       1.0  0.09312  0.38357  0.41576  1.0000 0.5818421087
O   O1        1.0  0.62135  0.08608  0.95167  1.0000 -0.4591122695
O   O2        1.0  0.37865  0.58608  0.54833  1.0000 -0.4591122695
O   O3        1.0  0.37865  0.91392  0.04833  1.0000 -0.4591122695
O   O4        1.0  0.62135  0.41392  0.45167  1.0000 -0.4591122695
O   O5        1.0  0.65136  0.15521  0.82773  1.0000 -0.4591122695
O   O6        1.0  0.34864  0.65521  0.67227  1.0000 -0.4521696468
O   O7        1.0  0.34864  0.84479  0.17227  1.0000 -0.4521696468
O   O8        1.0  0.65136  0.34479  0.32773  1.0000 -0.4521696468
O   O9        1.0  0.31166  0.40047  0.66610  1.0000 -0.4521696468
O   O10       1.0  0.68834  0.90047  0.83390  1.0000 -0.4521696468
O   O11       1.0  0.68834  0.59953  0.33390  1.0000 -0.4521696468
O   O12       1.0  0.31166  0.09953  0.16610  1.0000 -0.4521696468
O   O13       1.0  0.12511  0.43432  0.70914  1.0000 -0.4521696468
O   O14       1.0  0.87489  0.93432  0.79086  1.0000 -0.4521696468
O   O15       1.0  0.87489  0.56568  0.29086  1.0000 -0.4521696468
O   O16       1.0  0.12511  0.06568  0.20914  1.0000 -0.4521696468
O   O17       1.0  0.97414  0.15434  0.89627  1.0000 -0.4702788153
O   O18       1.0  0.02586  0.65434  0.60373  1.0000 -0.4702788153
O   O19       1.0  0.02586  0.84566  0.10373  1.0000 -0.4702788153
O   O20       1.0  0.97414  0.34566  0.39627  1.0000 -0.4702788153
O   O21       1.0  0.12013  0.03125  0.95438  1.0000 -0.525687457
O   O22       1.0  0.87987  0.53125  0.54562  1.0000 -0.5248336205
O   O23       1.0  0.87987  0.96875  0.04562  1.0000 -0.5248336205
O   O24       1.0  0.12013  0.46875  0.45438  1.0000 -0.525687457
