# DDEC6 charges by PACMAN v1.1 (https://github.com/mtap-research/PACMAN-charge/)
data_2007[Ni][sit]3[ASR]1
_chemical_formula_sum              "Ni6 H48 C96 N12 O26"
_cell_length_a       18.4125
_cell_length_b       18.4125
_cell_length_c       16.762
_cell_angle_alpha    63.35
_cell_angle_beta     116.65
_cell_angle_gamma    110.053

_symmetry_space_group_name_H-M    "P 1"
_symmetry_Int_Tables_number       1

loop_
  _symmetry_equiv_pos_as_xyz
  'x, y, z'

loop_
  _atom_site_type_symbol
  _atom_site_label
  _atom_site_symmetry_multiplicity
  _atom_site_fract_x
  _atom_site_fract_y
  _atom_site_fract_z
  _atom_site_occupancy
  _atom_site_charge
Ni  Ni1       1.0  0.60035  0.39965  0.02915  1.0000 1.0513016073
Ni  Ni2       1.0  0.72309  0.27691  0.04689  1.0000 1.0928594557
Ni  Ni3       1.0  0.60131  0.39869  0.82564  1.0000 1.0775649635
Ni  Ni4       1.0  0.39965  0.60035  0.97085  1.0000 1.0513016073
Ni  Ni5       1.0  0.27691  0.72309  0.95311  1.0000 1.0928594557
Ni  Ni6       1.0  0.39869  0.60131  0.17436  1.0000 1.0775649635
H   H1        1.0  0.93720  0.36440  0.27580  1.0000 0.126941613
H   H2        1.0  0.63560  0.06280  0.27580  1.0000 0.126941613
H   H3        1.0  0.01850  0.37490  0.42520  1.0000 0.1200099615
H   H4        1.0  0.62510  0.98150  0.42520  1.0000 0.1200099615
H   H5        1.0  0.82770  0.42230  0.43530  1.0000 0.1200099615
H   H6        1.0  0.57770  0.17230  0.43530  1.0000 0.1200099615
H   H7        1.0  0.74900  0.41980  0.28480  1.0000 0.126941613
H   H8        1.0  0.58020  0.25100  0.28480  1.0000 0.126941613
H   H9        1.0  0.00800  0.35200  0.86640  1.0000 0.126941613
H   H10       1.0  0.64800  0.99200  0.86640  1.0000 0.126941613
H   H11       1.0  0.19790  0.38690  0.84830  1.0000 0.126941613
H   H12       1.0  0.61310  0.80210  0.84830  1.0000 0.126941613
H   H13       1.0  0.19910  0.37450  0.61810  1.0000 0.1200099615
H   H14       1.0  0.62550  0.80090  0.61810  1.0000 0.1200099615
H   H15       1.0  0.33910  0.37110  0.69140  1.0000 0.1200099615
H   H16       1.0  0.62890  0.66090  0.69140  1.0000 0.1200099615
H   H17       1.0  0.75840  0.44100  0.69340  1.0000 0.126941613
H   H18       1.0  0.55900  0.24160  0.69340  1.0000 0.126941613
H   H19       1.0  0.92690  0.34410  0.94310  1.0000 0.126941613
H   H20       1.0  0.65590  0.07310  0.94310  1.0000 0.126941613
H   H21       1.0  0.83880  0.44900  0.61540  1.0000 0.1200099615
H   H22       1.0  0.55100  0.16120  0.61540  1.0000 0.1200099615
H   H23       1.0  0.33590  0.38390  0.92050  1.0000 0.126941613
H   H24       1.0  0.61610  0.66410  0.92050  1.0000 0.126941613
H   H25       1.0  0.36440  0.93720  0.72420  1.0000 0.126941613
H   H26       1.0  0.06280  0.63560  0.72420  1.0000 0.126941613
H   H27       1.0  0.37490  0.01850  0.57480  1.0000 0.1200099615
H   H28       1.0  0.98150  0.62510  0.57480  1.0000 0.1200099615
H   H29       1.0  0.42230  0.82770  0.56470  1.0000 0.1200099615
H   H30       1.0  0.17230  0.57770  0.56470  1.0000 0.1200099615
H   H31       1.0  0.41980  0.74900  0.71520  1.0000 0.126941613
H   H32       1.0  0.25100  0.58020  0.71520  1.0000 0.126941613
H   H33       1.0  0.35200  0.00800  0.13360  1.0000 0.126941613
H   H34       1.0  0.99200  0.64800  0.13360  1.0000 0.126941613
H   H35       1.0  0.38690  0.19790  0.15170  1.0000 0.126941613
H   H36       1.0  0.80210  0.61310  0.15170  1.0000 0.126941613
H   H37       1.0  0.37450  0.19910  0.38190  1.0000 0.1200099615
H   H38       1.0  0.80090  0.62550  0.38190  1.0000 0.1200099615
H   H39       1.0  0.37110  0.33910  0.30860  1.0000 0.1200099615
H   H40       1.0  0.66090  0.62890  0.30860  1.0000 0.1200099615
H   H41       1.0  0.44100  0.75840  0.30660  1.0000 0.126941613
H   H42       1.0  0.24160  0.55900  0.30660  1.0000 0.126941613
H   H43       1.0  0.34410  0.92690  0.05690  1.0000 0.126941613
H   H44       1.0  0.07310  0.65590  0.05690  1.0000 0.126941613
H   H45       1.0  0.44900  0.83880  0.38460  1.0000 0.1200099615
H   H46       1.0  0.16120  0.55100  0.38460  1.0000 0.1200099615
H   H47       1.0  0.38390  0.33590  0.07950  1.0000 0.126941613
H   H48       1.0  0.66410  0.61610  0.07950  1.0000 0.126941613
C   C1        1.0  0.77784  0.38318  0.16800  1.0000 0.5911983587
C   C2        1.0  0.61682  0.22216  0.16800  1.0000 0.5911983587
C   C3        1.0  0.83327  0.39021  0.26482  1.0000 -0.0017637639
C   C4        1.0  0.60979  0.16673  0.26482  1.0000 -0.0017637639
C   C5        1.0  0.91521  0.37653  0.30770  1.0000 -0.1002673034
C   C6        1.0  0.62347  0.08479  0.30770  1.0000 -0.1002673034
C   C7        1.0  0.96360  0.38118  0.39830  1.0000 -0.1154779406
C   C8        1.0  0.61882  0.03640  0.39830  1.0000 -0.1103421433
C   C9        1.0  0.92971  0.39505  0.44760  1.0000 0.0182658498
C   C10       1.0  0.60495  0.07029  0.44760  1.0000 0.0182658498
C   C11       1.0  0.84987  0.41037  0.40330  1.0000 -0.1103421433
C   C12       1.0  0.58963  0.15013  0.40330  1.0000 -0.1103421433
C   C13       1.0  0.80232  0.40856  0.31320  1.0000 -0.1002673034
C   C14       1.0  0.59144  0.19768  0.31320  1.0000 -0.1002673034
C   C15       1.0  0.97765  0.39527  0.54700  1.0000 0.3791423229
C   C16       1.0  0.60473  0.02235  0.54700  1.0000 0.3791423229
C   C17       1.0  0.44532  0.38030  0.86020  1.0000 0.5911983587
C   C18       1.0  0.61970  0.55468  0.86020  1.0000 0.5911983587
C   C19       1.0  0.92999  0.39721  0.73270  1.0000 0.0182658498
C   C20       1.0  0.60279  0.07001  0.73270  1.0000 0.0182658498
C   C21       1.0  0.95691  0.36869  0.83080  1.0000 -0.1103421433
C   C22       1.0  0.63131  0.04309  0.83080  1.0000 -0.1103421433
C   C23       1.0  0.22580  0.38304  0.81630  1.0000 -0.1002673034
C   C24       1.0  0.61696  0.77420  0.81630  1.0000 -0.1002673034
C   C25       1.0  0.18313  0.37887  0.72640  1.0000 0.0148245836
C   C26       1.0  0.62113  0.81687  0.72640  1.0000 0.0148245836
C   C27       1.0  0.22634  0.37566  0.67970  1.0000 -0.1103421433
C   C28       1.0  0.62434  0.77366  0.67970  1.0000 -0.1103421433
C   C29       1.0  0.31084  0.37416  0.72360  1.0000 -0.1103421433
C   C30       1.0  0.62584  0.68916  0.72360  1.0000 -0.1103421433
C   C31       1.0  0.09350  0.38352  0.67820  1.0000 0.3791423229
C   C32       1.0  0.61648  0.90650  0.67820  1.0000 0.3791423229
C   C33       1.0  0.77672  0.38264  0.87490  1.0000 0.5911983587
C   C34       1.0  0.61736  0.22328  0.87490  1.0000 0.5911983587
C   C35       1.0  0.83248  0.39020  0.82600  1.0000 -0.0139537645
C   C36       1.0  0.60980  0.16752  0.82600  1.0000 -0.0139537645
C   C37       1.0  0.80828  0.42192  0.72890  1.0000 -0.0921779709
C   C38       1.0  0.57808  0.19172  0.72890  1.0000 -0.0921779709
C   C39       1.0  0.90829  0.36451  0.87680  1.0000 -0.0921779709
C   C40       1.0  0.63549  0.09171  0.87680  1.0000 -0.0921779709
C   C41       1.0  0.85640  0.42640  0.68160  1.0000 -0.1103421433
C   C42       1.0  0.57360  0.14360  0.68160  1.0000 -0.1103421433
C   C43       1.0  0.30877  0.38167  0.85940  1.0000 -0.0921779709
C   C44       1.0  0.61833  0.69123  0.85940  1.0000 -0.0921779709
C   C45       1.0  0.35297  0.37711  0.81390  1.0000 0.0019532976
C   C46       1.0  0.62289  0.64703  0.81390  1.0000 0.0019532976
C   C47       1.0  0.97669  0.39629  0.68090  1.0000 0.3738902001
C   C48       1.0  0.60371  0.02331  0.68090  1.0000 0.3738902001
C   C49       1.0  0.38318  0.77784  0.83200  1.0000 0.5911983587
C   C50       1.0  0.22216  0.61682  0.83200  1.0000 0.5911983587
C   C51       1.0  0.39021  0.83327  0.73518  1.0000 -0.0017637639
C   C52       1.0  0.16673  0.60979  0.73518  1.0000 -0.0017637639
C   C53       1.0  0.37653  0.91521  0.69230  1.0000 -0.1002673034
C   C54       1.0  0.08479  0.62347  0.69230  1.0000 -0.1002673034
C   C55       1.0  0.38118  0.96360  0.60170  1.0000 -0.1103421433
C   C56       1.0  0.03640  0.61882  0.60170  1.0000 -0.1103421433
C   C57       1.0  0.39505  0.92971  0.55240  1.0000 0.0182658498
C   C58       1.0  0.07029  0.60495  0.55240  1.0000 0.0182658498
C   C59       1.0  0.41037  0.84987  0.59670  1.0000 -0.1103421433
C   C60       1.0  0.15013  0.58963  0.59670  1.0000 -0.1103421433
C   C61       1.0  0.40856  0.80232  0.68680  1.0000 -0.1002673034
C   C62       1.0  0.19768  0.59144  0.68680  1.0000 -0.1002673034
C   C63       1.0  0.39527  0.97765  0.45300  1.0000 0.3791423229
C   C64       1.0  0.02235  0.60473  0.45300  1.0000 0.3791423229
C   C65       1.0  0.38030  0.44532  0.13980  1.0000 0.5911983587
C   C66       1.0  0.55468  0.61970  0.13980  1.0000 0.5911983587
C   C67       1.0  0.39721  0.92999  0.26730  1.0000 0.0182658498
C   C68       1.0  0.07001  0.60279  0.26730  1.0000 0.0182658498
C   C69       1.0  0.36869  0.95691  0.16920  1.0000 -0.1103421433
C   C70       1.0  0.04309  0.63131  0.16920  1.0000 -0.1103421433
C   C71       1.0  0.38304  0.22580  0.18370  1.0000 -0.1002673034
C   C72       1.0  0.77420  0.61696  0.18370  1.0000 -0.1002673034
C   C73       1.0  0.37887  0.18313  0.27360  1.0000 0.0148245836
C   C74       1.0  0.81687  0.62113  0.27360  1.0000 0.0148245836
C   C75       1.0  0.37566  0.22634  0.32030  1.0000 -0.1103421433
C   C76       1.0  0.77366  0.62434  0.32030  1.0000 -0.1103421433
C   C77       1.0  0.37416  0.31084  0.27640  1.0000 -0.1103421433
C   C78       1.0  0.68916  0.62584  0.27640  1.0000 -0.1103421433
C   C79       1.0  0.38352  0.09350  0.32180  1.0000 0.3791423229
C   C80       1.0  0.90650  0.61648  0.32180  1.0000 0.3791423229
C   C81       1.0  0.38264  0.77672  0.12510  1.0000 0.5911983587
C   C82       1.0  0.22328  0.61736  0.12510  1.0000 0.5911983587
C   C83       1.0  0.39020  0.83248  0.17400  1.0000 -0.0139537645
C   C84       1.0  0.16752  0.60980  0.17400  1.0000 -0.0139537645
C   C85       1.0  0.42192  0.80828  0.27110  1.0000 -0.0921779709
C   C86       1.0  0.19172  0.57808  0.27110  1.0000 -0.0921779709
C   C87       1.0  0.36451  0.90829  0.12320  1.0000 -0.0921779709
C   C88       1.0  0.09171  0.63549  0.12320  1.0000 -0.0921779709
C   C89       1.0  0.42640  0.85640  0.31840  1.0000 -0.1103421433
C   C90       1.0  0.14360  0.57360  0.31840  1.0000 -0.1103421433
C   C91       1.0  0.38167  0.30877  0.14060  1.0000 -0.0921779709
C   C92       1.0  0.69123  0.61833  0.14060  1.0000 -0.0921779709
C   C93       1.0  0.37711  0.35297  0.18610  1.0000 0.0019532976
C   C94       1.0  0.64703  0.62289  0.18610  1.0000 0.0019532976
C   C95       1.0  0.39629  0.97669  0.31910  1.0000 0.3738902001
C   C96       1.0  0.02331  0.60371  0.31910  1.0000 0.3738902001
N   N1        1.0  0.05693  0.38647  0.58743  1.0000 -0.3998049857
N   N2        1.0  0.61353  0.94307  0.58743  1.0000 -0.3998049857
N   N3        1.0  0.05631  0.38529  0.72949  1.0000 -0.3930552515
N   N4        1.0  0.61471  0.94369  0.72949  1.0000 -0.3930552515
N   N5        1.0  0.93541  0.40157  0.59047  1.0000 -0.3998049857
N   N6        1.0  0.59843  0.06459  0.59047  1.0000 -0.3998049857
N   N7        1.0  0.38647  0.05693  0.41257  1.0000 -0.3998049857
N   N8        1.0  0.94307  0.61353  0.41257  1.0000 -0.3998049857
N   N9        1.0  0.38529  0.05631  0.27051  1.0000 -0.3930552515
N   N10       1.0  0.94369  0.61471  0.27051  1.0000 -0.3930552515
N   N11       1.0  0.40157  0.93541  0.40953  1.0000 -0.3998049857
N   N12       1.0  0.06459  0.59843  0.40953  1.0000 -0.3998049857
O   O1        1.0  0.71776  0.41850  0.12656  1.0000 -0.5219154867
O   O2        1.0  0.58150  0.28224  0.12656  1.0000 -0.5219154867
O   O3        1.0  0.79620  0.34190  0.13918  1.0000 -0.5364138397
O   O4        1.0  0.65810  0.20380  0.13918  1.0000 -0.5364138397
O   O5        1.0  0.47875  0.38401  0.94131  1.0000 -0.5219154867
O   O6        1.0  0.61599  0.52125  0.94131  1.0000 -0.5219154867
O   O7        1.0  0.48030  0.37914  0.81197  1.0000 -0.5306528471
O   O8        1.0  0.62086  0.51970  0.81197  1.0000 -0.5306528471
O   O9        1.0  0.71672  0.41900  0.82208  1.0000 -0.5306528471
O   O10       1.0  0.58100  0.28328  0.82208  1.0000 -0.5306528471
O   O11       1.0  0.79549  0.34093  0.96207  1.0000 -0.5306528471
O   O12       1.0  0.65907  0.20451  0.96207  1.0000 -0.5306528471
O   O13       1.0  0.64273  0.35727  0.96901  1.0000 -0.8746497544
O   O14       1.0  0.41850  0.71776  0.87344  1.0000 -0.5219154867
O   O15       1.0  0.28224  0.58150  0.87344  1.0000 -0.5219154867
O   O16       1.0  0.34190  0.79620  0.86082  1.0000 -0.5364138397
O   O17       1.0  0.20380  0.65810  0.86082  1.0000 -0.5364138397
O   O18       1.0  0.38401  0.47875  0.05869  1.0000 -0.5219154867
O   O19       1.0  0.52125  0.61599  0.05869  1.0000 -0.5219154867
O   O20       1.0  0.37914  0.48030  0.18803  1.0000 -0.5306528471
O   O21       1.0  0.51970  0.62086  0.18803  1.0000 -0.5306528471
O   O22       1.0  0.41900  0.71672  0.17792  1.0000 -0.5306528471
O   O23       1.0  0.28328  0.58100  0.17792  1.0000 -0.5306528471
O   O24       1.0  0.34093  0.79549  0.03793  1.0000 -0.5306528471
O   O25       1.0  0.20451  0.65907  0.03793  1.0000 -0.5306528471
O   O26       1.0  0.35727  0.64273  0.03099  1.0000 -0.8746497544
