# DDEC6 charges by PACMAN v1.1 (https://github.com/mtap-research/PACMAN-charge/)
data_2007[Cu][nan]3[ASR]2
_chemical_formula_sum              "Cu8 H16 C32 S4 O32"
_cell_length_a       7.3336
_cell_length_b       18.1829
_cell_length_c       12.0278
_cell_angle_alpha    90
_cell_angle_beta     122.941
_cell_angle_gamma    90

_symmetry_space_group_name_H-M    "P 1"
_symmetry_Int_Tables_number       1

loop_
  _symmetry_equiv_pos_as_xyz
  'x, y, z'

loop_
  _atom_site_type_symbol
  _atom_site_label
  _atom_site_symmetry_multiplicity
  _atom_site_fract_x
  _atom_site_fract_y
  _atom_site_fract_z
  _atom_site_occupancy
  _atom_site_charge
Cu  Cu1       1.0  0.35115  0.09376  0.21792  1.0000 0.9681528103
Cu  Cu2       1.0  0.64885  0.59376  0.28208  1.0000 0.9681528103
Cu  Cu3       1.0  0.64885  0.90624  0.78208  1.0000 0.9681528103
Cu  Cu4       1.0  0.35115  0.40624  0.71792  1.0000 0.9681528103
Cu  Cu5       1.0  0.88588  0.06842  0.93336  1.0000 0.9942958396
Cu  Cu6       1.0  0.11412  0.56842  0.56664  1.0000 0.9942958396
Cu  Cu7       1.0  0.11412  0.93158  0.06664  1.0000 0.9942958396
Cu  Cu8       1.0  0.88588  0.43158  0.43336  1.0000 0.9942958396
H   H1        1.0  0.25100  0.03600  0.02100  1.0000 0.4088563215
H   H2        1.0  0.74900  0.53600  0.47900  1.0000 0.4088563215
H   H3        1.0  0.74900  0.96400  0.97900  1.0000 0.4088563215
H   H4        1.0  0.25100  0.46400  0.52100  1.0000 0.4088563215
H   H5        1.0  0.38120  0.30640  0.16760  1.0000 0.1408784642
H   H6        1.0  0.61880  0.80640  0.33240  1.0000 0.1408784642
H   H7        1.0  0.61880  0.69360  0.83240  1.0000 0.1408784642
H   H8        1.0  0.38120  0.19360  0.66760  1.0000 0.1408784642
H   H9        1.0  0.15770  0.48700  0.93900  1.0000 0.1408784642
H   H10       1.0  0.84230  0.98700  0.56100  1.0000 0.1408784642
H   H11       1.0  0.84230  0.51300  0.06100  1.0000 0.1408784642
H   H12       1.0  0.15770  0.01300  0.43900  1.0000 0.1408784642
H   H13       1.0  0.85350  0.29320  0.79860  1.0000 0.1408784642
H   H14       1.0  0.14650  0.79320  0.70140  1.0000 0.1408784642
H   H15       1.0  0.14650  0.70680  0.20140  1.0000 0.1408784642
H   H16       1.0  0.85350  0.20680  0.29860  1.0000 0.1408784642
C   C1        1.0  0.11340  0.28700  0.98590  1.0000 -0.0204798128
C   C2        1.0  0.88660  0.78700  0.51410  1.0000 -0.0204798128
C   C3        1.0  0.88660  0.71300  0.01410  1.0000 -0.0204798128
C   C4        1.0  0.11340  0.21300  0.48590  1.0000 -0.0204798128
C   C5        1.0  0.27980  0.32890  0.08790  1.0000 -0.0897227068
C   C6        1.0  0.72020  0.82890  0.41210  1.0000 -0.0897227068
C   C7        1.0  0.72020  0.67110  0.91210  1.0000 -0.0897227068
C   C8        1.0  0.27980  0.17110  0.58790  1.0000 -0.0897227068
C   C9        1.0  0.29620  0.40370  0.07210  1.0000 -0.0204798128
C   C10       1.0  0.70380  0.90370  0.42790  1.0000 -0.0204798128
C   C11       1.0  0.70380  0.59630  0.92790  1.0000 -0.0204798128
C   C12       1.0  0.29620  0.09630  0.57210  1.0000 -0.0204798128
C   C13       1.0  0.14710  0.43710  0.95150  1.0000 -0.0897227068
C   C14       1.0  0.85290  0.93710  0.54850  1.0000 -0.0897227068
C   C15       1.0  0.85290  0.56290  0.04850  1.0000 -0.0897227068
C   C16       1.0  0.14710  0.06290  0.45150  1.0000 -0.0897227068
C   C17       1.0  0.98330  0.39510  0.85070  1.0000 -0.0847467664
C   C18       1.0  0.01670  0.89510  0.64930  1.0000 -0.0847467664
C   C19       1.0  0.01670  0.60490  0.14930  1.0000 -0.0847467664
C   C20       1.0  0.98330  0.10490  0.35070  1.0000 -0.0847467664
C   C21       1.0  0.96530  0.32050  0.86730  1.0000 -0.0897227068
C   C22       1.0  0.03470  0.82050  0.63270  1.0000 -0.0897227068
C   C23       1.0  0.03470  0.67950  0.13270  1.0000 -0.0897227068
C   C24       1.0  0.96530  0.17950  0.36730  1.0000 -0.0897227068
C   C25       1.0  0.10440  0.20710  0.01060  1.0000 0.6076684997
C   C26       1.0  0.89560  0.70710  0.48940  1.0000 0.6076684997
C   C27       1.0  0.89560  0.79290  0.98940  1.0000 0.6076684997
C   C28       1.0  0.10440  0.29290  0.51060  1.0000 0.6076684997
C   C29       1.0  0.47830  0.44530  0.18260  1.0000 0.6076684997
C   C30       1.0  0.52170  0.94530  0.31740  1.0000 0.6076684997
C   C31       1.0  0.52170  0.55470  0.81740  1.0000 0.6046616923
C   C32       1.0  0.47830  0.05470  0.68260  1.0000 0.6076684997
S   S1        1.0  0.80814  0.43399  0.69198  1.0000 1.1857402217
S   S2        1.0  0.19186  0.93399  0.80802  1.0000 1.1857402217
S   S3        1.0  0.19186  0.56601  0.30802  1.0000 1.1857402217
S   S4        1.0  0.80814  0.06601  0.19198  1.0000 1.1848001372
O   O1        1.0  0.24060  0.18544  0.12510  1.0000 -0.5316099632
O   O2        1.0  0.75940  0.68544  0.37490  1.0000 -0.5316099632
O   O3        1.0  0.75940  0.81456  0.87490  1.0000 -0.5316099632
O   O4        1.0  0.24060  0.31456  0.62510  1.0000 -0.5316099632
O   O5        1.0  0.96300  0.16812  0.91550  1.0000 -0.5217596996
O   O6        1.0  0.03700  0.66812  0.58450  1.0000 -0.5217596996
O   O7        1.0  0.03700  0.83188  0.08450  1.0000 -0.5217596996
O   O8        1.0  0.96300  0.33188  0.41550  1.0000 -0.5217596996
O   O9        1.0  0.50400  0.51144  0.16320  1.0000 -0.5585446465
O   O10       1.0  0.49600  0.01144  0.33680  1.0000 -0.5585446465
O   O11       1.0  0.49600  0.48856  0.83680  1.0000 -0.5585446465
O   O12       1.0  0.50400  0.98856  0.66320  1.0000 -0.5585446465
O   O13       1.0  0.59600  0.40980  0.28990  1.0000 -0.5147385109
O   O14       1.0  0.40400  0.90980  0.21010  1.0000 -0.5147385109
O   O15       1.0  0.40400  0.59020  0.71010  1.0000 -0.5147385109
O   O16       1.0  0.59600  0.09020  0.78990  1.0000 -0.5147385109
O   O17       1.0  0.59290  0.40467  0.64360  1.0000 -0.62107503
O   O18       1.0  0.40710  0.90467  0.85640  1.0000 -0.62107503
O   O19       1.0  0.40710  0.59533  0.35640  1.0000 -0.62107503
O   O20       1.0  0.59290  0.09533  0.14360  1.0000 -0.62107503
O   O21       1.0  0.89020  0.40470  0.61560  1.0000 -0.6604698557
O   O22       1.0  0.10980  0.90470  0.88440  1.0000 -0.6604698557
O   O23       1.0  0.10980  0.59530  0.38440  1.0000 -0.6604698557
O   O24       1.0  0.89020  0.09530  0.11560  1.0000 -0.6604698557
O   O25       1.0  0.82160  0.51287  0.70370  1.0000 -0.5786797512
O   O26       1.0  0.17840  0.01287  0.79630  1.0000 -0.5786797512
O   O27       1.0  0.17840  0.48713  0.29630  1.0000 -0.5786797512
O   O28       1.0  0.82160  0.98713  0.20370  1.0000 -0.5786797512
O   O29       1.0  0.18500  0.03485  0.05660  1.0000 -0.8122788925
O   O30       1.0  0.81500  0.53485  0.44340  1.0000 -0.8122788925
O   O31       1.0  0.81500  0.96515  0.94340  1.0000 -0.8122788925
O   O32       1.0  0.18500  0.46515  0.55660  1.0000 -0.8122788925
