# DDEC6 charges by PACMAN v1.1 (https://github.com/mtap-research/PACMAN-charge/)
data_2007[Dy][mog]3[ASR]1
_chemical_formula_sum              "Dy8 H112 C208 N16 O64"
_cell_length_a       11.7735
_cell_length_b       27.9022
_cell_length_c       18.6144
_cell_angle_alpha    90
_cell_angle_beta     100.085
_cell_angle_gamma    90

_symmetry_space_group_name_H-M    "P 1"
_symmetry_Int_Tables_number       1

loop_
  _symmetry_equiv_pos_as_xyz
  'x, y, z'

loop_
  _atom_site_type_symbol
  _atom_site_label
  _atom_site_symmetry_multiplicity
  _atom_site_fract_x
  _atom_site_fract_y
  _atom_site_fract_z
  _atom_site_occupancy
  _atom_site_charge
Dy  Dy1       1.0  0.45507  0.71701  0.95537  1.0000 1.989161203
Dy  Dy2       1.0  0.04493  0.21701  0.04463  1.0000 1.989161203
Dy  Dy3       1.0  0.54493  0.28299  0.04463  1.0000 1.989161203
Dy  Dy4       1.0  0.95507  0.78299  0.95537  1.0000 1.989161203
Dy  Dy5       1.0  0.75111  0.03244  0.00099  1.0000 1.9836396194
Dy  Dy6       1.0  0.74889  0.53244  0.99901  1.0000 1.9836396194
Dy  Dy7       1.0  0.24889  0.96756  0.99901  1.0000 1.989161203
Dy  Dy8       1.0  0.25111  0.46756  0.00099  1.0000 1.9836396194
H   H1        1.0  0.44500  0.70800  0.40410  1.0000 0.1320306695
H   H2        1.0  0.05500  0.20800  0.59590  1.0000 0.1320306695
H   H3        1.0  0.55500  0.29200  0.59590  1.0000 0.1320306695
H   H4        1.0  0.94500  0.79200  0.40410  1.0000 0.1320306695
H   H5        1.0  0.35380  0.72890  0.50990  1.0000 0.1320306695
H   H6        1.0  0.14620  0.22890  0.49010  1.0000 0.1320306695
H   H7        1.0  0.64620  0.27110  0.49010  1.0000 0.1320306695
H   H8        1.0  0.85380  0.77110  0.50990  1.0000 0.1320306695
H   H9        1.0  0.33760  0.88450  0.67100  1.0000 0.1476788056
H   H10       1.0  0.16240  0.38450  0.32900  1.0000 0.1476788056
H   H11       1.0  0.66240  0.11550  0.32900  1.0000 0.1476788056
H   H12       1.0  0.83760  0.61550  0.67100  1.0000 0.1476788056
H   H13       1.0  0.44030  0.96140  0.68910  1.0000 0.1390694744
H   H14       1.0  0.05970  0.46140  0.31090  1.0000 0.1390694744
H   H15       1.0  0.55970  0.03860  0.31090  1.0000 0.1390694744
H   H16       1.0  0.94030  0.53860  0.68910  1.0000 0.1390694744
H   H17       1.0  0.74530  0.04870  0.54810  1.0000 0.1390694744
H   H18       1.0  0.75470  0.54870  0.45190  1.0000 0.1390694744
H   H19       1.0  0.25470  0.95130  0.45190  1.0000 0.1390694744
H   H20       1.0  0.24530  0.45130  0.54810  1.0000 0.1390694744
H   H21       1.0  0.83730  0.02980  0.44330  1.0000 0.1390694744
H   H22       1.0  0.66270  0.52980  0.55670  1.0000 0.1390694744
H   H23       1.0  0.16270  0.97020  0.55670  1.0000 0.1390694744
H   H24       1.0  0.33730  0.47020  0.44330  1.0000 0.1390694744
H   H25       1.0  0.85840  0.87270  0.28170  1.0000 0.1390694744
H   H26       1.0  0.64160  0.37270  0.71830  1.0000 0.1390694744
H   H27       1.0  0.14160  0.12730  0.71830  1.0000 0.1390694744
H   H28       1.0  0.35840  0.62730  0.28170  1.0000 0.1390694744
H   H29       1.0  0.75480  0.79580  0.26760  1.0000 0.1476788056
H   H30       1.0  0.74520  0.29580  0.73240  1.0000 0.1476788056
H   H31       1.0  0.24520  0.20420  0.73240  1.0000 0.1476788056
H   H32       1.0  0.25480  0.70420  0.26760  1.0000 0.1476788056
H   H33       1.0  0.55220  0.84020  0.47110  1.0000 0.2110923241
H   H34       1.0  0.94780  0.34020  0.52890  1.0000 0.2110923241
H   H35       1.0  0.44780  0.15980  0.52890  1.0000 0.2110923241
H   H36       1.0  0.05220  0.65980  0.47110  1.0000 0.2110923241
H   H37       1.0  0.65510  0.91520  0.48600  1.0000 0.2286468289
H   H38       1.0  0.84490  0.41520  0.51400  1.0000 0.2286468289
H   H39       1.0  0.34490  0.08480  0.51400  1.0000 0.2286468289
H   H40       1.0  0.15510  0.58480  0.48600  1.0000 0.2286468289
H   H41       1.0  0.46530  0.79120  0.70710  1.0000 0.1320306695
H   H42       1.0  0.03470  0.29120  0.29290  1.0000 0.1320306695
H   H43       1.0  0.53470  0.20880  0.29290  1.0000 0.1320306695
H   H44       1.0  0.96530  0.70880  0.70710  1.0000 0.1320306695
H   H45       1.0  0.17830  0.71660  0.73060  1.0000 0.1320306695
H   H46       1.0  0.32170  0.21660  0.26940  1.0000 0.1320306695
H   H47       1.0  0.82170  0.28340  0.26940  1.0000 0.1320306695
H   H48       1.0  0.67830  0.78340  0.73060  1.0000 0.1320306695
H   H49       1.0  0.09180  0.74140  0.61520  1.0000 0.1077431213
H   H50       1.0  0.40820  0.24140  0.38480  1.0000 0.1077431213
H   H51       1.0  0.90820  0.25860  0.38480  1.0000 0.1077431213
H   H52       1.0  0.59180  0.75860  0.61520  1.0000 0.1077431213
H   H53       1.0  0.19040  0.78710  0.54320  1.0000 0.1192171472
H   H54       1.0  0.30960  0.28710  0.45680  1.0000 0.1192171472
H   H55       1.0  0.80960  0.21290  0.45680  1.0000 0.1192171472
H   H56       1.0  0.69040  0.71290  0.54320  1.0000 0.1192171472
H   H57       1.0  0.67220  0.97740  0.73640  1.0000 0.1390694744
H   H58       1.0  0.82780  0.47740  0.26360  1.0000 0.1390694744
H   H59       1.0  0.32780  0.02260  0.26360  1.0000 0.1390694744
H   H60       1.0  0.17220  0.52260  0.73640  1.0000 0.1390694744
H   H61       1.0  0.60300  0.11660  0.77730  1.0000 0.1390694744
H   H62       1.0  0.89700  0.61660  0.22270  1.0000 0.1390694744
H   H63       1.0  0.39700  0.88340  0.22270  1.0000 0.1390694744
H   H64       1.0  0.10300  0.38340  0.77730  1.0000 0.1390694744
H   H65       1.0  0.55730  0.13320  0.65480  1.0000 0.1077431213
H   H66       1.0  0.94270  0.63320  0.34520  1.0000 0.1077431213
H   H67       1.0  0.44270  0.86680  0.34520  1.0000 0.1077431213
H   H68       1.0  0.05730  0.36680  0.65480  1.0000 0.1077431213
H   H69       1.0  0.54610  0.06890  0.57040  1.0000 0.1077431213
H   H70       1.0  0.95390  0.56890  0.42960  1.0000 0.1077431213
H   H71       1.0  0.45390  0.93110  0.42960  1.0000 0.1077431213
H   H72       1.0  0.04610  0.43110  0.57040  1.0000 0.1077431213
H   H73       1.0  0.73450  0.96860  0.25020  1.0000 0.1320306695
H   H74       1.0  0.76550  0.46860  0.74980  1.0000 0.1320306695
H   H75       1.0  0.26550  0.03140  0.74980  1.0000 0.1320306695
H   H76       1.0  0.23450  0.53140  0.25020  1.0000 0.1320306695
H   H77       1.0  0.04000  0.02440  0.22120  1.0000 0.1476788056
H   H78       1.0  0.46000  0.52440  0.77880  1.0000 0.1476788056
H   H79       1.0  0.96000  0.97560  0.77880  1.0000 0.1476788056
H   H80       1.0  0.54000  0.47560  0.22120  1.0000 0.1476788056
H   H81       1.0  0.12250  0.00200  0.33840  1.0000 0.1077431213
H   H82       1.0  0.37750  0.50200  0.66160  1.0000 0.1077431213
H   H83       1.0  0.87750  0.99800  0.66160  1.0000 0.1077431213
H   H84       1.0  0.62250  0.49800  0.33840  1.0000 0.1077431213
H   H85       1.0  0.01240  0.96080  0.41310  1.0000 0.1192171472
H   H86       1.0  0.48760  0.46080  0.58690  1.0000 0.1192171472
H   H87       1.0  0.98760  0.03920  0.58690  1.0000 0.1192171472
H   H88       1.0  0.51240  0.53920  0.41310  1.0000 0.1192171472
H   H89       1.0  0.51860  0.77080  0.22060  1.0000 0.1390694744
H   H90       1.0  0.98140  0.27080  0.77940  1.0000 0.1390694744
H   H91       1.0  0.48140  0.22920  0.77940  1.0000 0.1390694744
H   H92       1.0  0.01860  0.72920  0.22060  1.0000 0.1390694744
H   H93       1.0  0.61120  0.63680  0.18170  1.0000 0.1476788056
H   H94       1.0  0.88880  0.13680  0.81830  1.0000 0.1476788056
H   H95       1.0  0.38880  0.36320  0.81830  1.0000 0.1476788056
H   H96       1.0  0.11120  0.86320  0.18170  1.0000 0.1476788056
H   H97       1.0  0.67520  0.62630  0.30780  1.0000 0.1192171472
H   H98       1.0  0.82480  0.12630  0.69220  1.0000 0.1192171472
H   H99       1.0  0.32480  0.37370  0.69220  1.0000 0.1192171472
H   H100      1.0  0.17520  0.87370  0.30780  1.0000 0.1192171472
H   H101      1.0  0.66800  0.68670  0.38990  1.0000 0.1192171472
H   H102      1.0  0.83200  0.18670  0.61010  1.0000 0.1192171472
H   H103      1.0  0.33200  0.31330  0.61010  1.0000 0.1192171472
H   H104      1.0  0.16800  0.81330  0.38990  1.0000 0.1192171472
H   H105      1.0  0.56370  0.88560  0.53230  1.0000 0.2286468289
H   H106      1.0  0.93630  0.38560  0.46770  1.0000 0.2286468289
H   H107      1.0  0.43630  0.11440  0.46770  1.0000 0.2286468289
H   H108      1.0  0.06370  0.61440  0.53230  1.0000 0.2286468289
H   H109      1.0  0.64930  0.86640  0.43290  1.0000 0.2110923241
H   H110      1.0  0.85070  0.36640  0.56710  1.0000 0.2110923241
H   H111      1.0  0.35070  0.13360  0.56710  1.0000 0.2110923241
H   H112      1.0  0.14930  0.63360  0.43290  1.0000 0.2110923241
C   C1        1.0  0.52960  0.77600  0.41700  1.0000 0.1601631025
C   C2        1.0  0.97040  0.27600  0.58300  1.0000 0.1601631025
C   C3        1.0  0.47040  0.22400  0.58300  1.0000 0.1601631025
C   C4        1.0  0.02960  0.72400  0.41700  1.0000 0.1601631025
C   C5        1.0  0.45620  0.73700  0.43110  1.0000 -0.199374011
C   C6        1.0  0.04380  0.23700  0.56890  1.0000 -0.199374011
C   C7        1.0  0.54380  0.26300  0.56890  1.0000 -0.199374011
C   C8        1.0  0.95620  0.76300  0.43110  1.0000 -0.199374011
C   C9        1.0  0.40560  0.74840  0.48890  1.0000 -0.199374011
C   C10       1.0  0.09440  0.24840  0.51110  1.0000 -0.199374011
C   C11       1.0  0.59440  0.25160  0.51110  1.0000 -0.199374011
C   C12       1.0  0.90560  0.75160  0.48890  1.0000 -0.199374011
C   C13       1.0  0.44440  0.79460  0.51190  1.0000 0.1601631025
C   C14       1.0  0.05560  0.29460  0.48810  1.0000 0.1601631025
C   C15       1.0  0.55560  0.20540  0.48810  1.0000 0.1601631025
C   C16       1.0  0.94440  0.70540  0.51190  1.0000 0.1601631025
C   C17       1.0  0.41220  0.81930  0.57110  1.0000 -0.1094575756
C   C18       1.0  0.08780  0.31930  0.42890  1.0000 -0.1094575756
C   C19       1.0  0.58780  0.18070  0.42890  1.0000 -0.1094575756
C   C20       1.0  0.91220  0.68070  0.57110  1.0000 -0.1094575756
C   C21       1.0  0.44580  0.86700  0.59260  1.0000 0.1754982649
C   C22       1.0  0.05420  0.36700  0.40740  1.0000 0.1754982649
C   C23       1.0  0.55420  0.13300  0.40740  1.0000 0.1754982649
C   C24       1.0  0.94580  0.63300  0.59260  1.0000 0.1754982649
C   C25       1.0  0.39770  0.89480  0.64660  1.0000 -0.1809515274
C   C26       1.0  0.10230  0.39480  0.35340  1.0000 -0.1809515274
C   C27       1.0  0.60230  0.10520  0.35340  1.0000 -0.1809515274
C   C28       1.0  0.89770  0.60520  0.64660  1.0000 -0.1809515274
C   C29       1.0  0.45150  0.93670  0.65590  1.0000 -0.1494285107
C   C30       1.0  0.04850  0.43670  0.34410  1.0000 -0.1494285107
C   C31       1.0  0.54850  0.06330  0.34410  1.0000 -0.1494285107
C   C32       1.0  0.95150  0.56330  0.65590  1.0000 -0.1494285107
C   C33       1.0  0.53340  0.93670  0.60330  1.0000 0.1601631025
C   C34       1.0  0.96660  0.43670  0.39670  1.0000 0.1601631025
C   C35       1.0  0.46660  0.06330  0.39670  1.0000 0.1601631025
C   C36       1.0  0.03340  0.56330  0.60330  1.0000 0.1601631025
C   C37       1.0  0.60740  0.97620  0.59460  1.0000 -0.0997946513
C   C38       1.0  0.89260  0.47620  0.40540  1.0000 -0.0997946513
C   C39       1.0  0.39260  0.02380  0.40540  1.0000 -0.0997946513
C   C40       1.0  0.10740  0.52380  0.59460  1.0000 -0.0997946513
C   C41       1.0  0.67150  0.97920  0.53800  1.0000 0.1601631025
C   C42       1.0  0.82850  0.47920  0.46200  1.0000 0.1601631025
C   C43       1.0  0.32850  0.02080  0.46200  1.0000 0.1601631025
C   C44       1.0  0.17150  0.52080  0.53800  1.0000 0.1601631025
C   C45       1.0  0.73810  0.01930  0.52210  1.0000 -0.199374011
C   C46       1.0  0.76190  0.51930  0.47790  1.0000 -0.199374011
C   C47       1.0  0.26190  0.98070  0.47790  1.0000 -0.199374011
C   C48       1.0  0.23810  0.48070  0.52210  1.0000 -0.199374011
C   C49       1.0  0.78910  0.00890  0.46480  1.0000 -0.1809515274
C   C50       1.0  0.71090  0.50890  0.53520  1.0000 -0.1809515274
C   C51       1.0  0.21090  0.99110  0.53520  1.0000 -0.1809515274
C   C52       1.0  0.28910  0.49110  0.46480  1.0000 -0.1809515274
C   C53       1.0  0.75870  0.96170  0.44200  1.0000 0.1601631025
C   C54       1.0  0.74130  0.46170  0.55800  1.0000 0.1601631025
C   C55       1.0  0.24130  0.03830  0.55800  1.0000 0.1601631025
C   C56       1.0  0.25870  0.53830  0.44200  1.0000 0.1601631025
C   C57       1.0  0.78860  0.93440  0.38550  1.0000 -0.0925009371
C   C58       1.0  0.71140  0.43440  0.61450  1.0000 -0.0925009371
C   C59       1.0  0.21140  0.06560  0.61450  1.0000 -0.0925009371
C   C60       1.0  0.28860  0.56560  0.38550  1.0000 -0.0925009371
C   C61       1.0  0.75850  0.88730  0.36630  1.0000 0.1601631025
C   C62       1.0  0.74150  0.38730  0.63370  1.0000 0.1601631025
C   C63       1.0  0.24150  0.11270  0.63370  1.0000 0.1601631025
C   C64       1.0  0.25850  0.61270  0.36630  1.0000 0.1601631025
C   C65       1.0  0.80220  0.86180  0.30880  1.0000 -0.1748648965
C   C66       1.0  0.69780  0.36180  0.69120  1.0000 -0.1748648965
C   C67       1.0  0.19780  0.13820  0.69120  1.0000 -0.1809515274
C   C68       1.0  0.30220  0.63820  0.30880  1.0000 -0.1748648965
C   C69       1.0  0.74730  0.82020  0.30210  1.0000 -0.1809515274
C   C70       1.0  0.75270  0.32020  0.69790  1.0000 -0.1809515274
C   C71       1.0  0.25270  0.17980  0.69790  1.0000 -0.1809515274
C   C72       1.0  0.24730  0.67980  0.30210  1.0000 -0.1809515274
C   C73       1.0  0.67450  0.81840  0.35640  1.0000 0.1671710826
C   C74       1.0  0.82550  0.31840  0.64360  1.0000 0.1671710826
C   C75       1.0  0.32550  0.18160  0.64360  1.0000 0.1671710826
C   C76       1.0  0.17450  0.68160  0.35640  1.0000 0.1671710826
C   C77       1.0  0.60130  0.77910  0.36530  1.0000 -0.0997946513
C   C78       1.0  0.89870  0.27910  0.63470  1.0000 -0.0997946513
C   C79       1.0  0.39870  0.22090  0.63470  1.0000 -0.0997946513
C   C80       1.0  0.10130  0.72090  0.36530  1.0000 -0.0997946513
C   C81       1.0  0.33990  0.79350  0.61610  1.0000 0.0894419021
C   C82       1.0  0.16010  0.29350  0.38390  1.0000 0.0894419021
C   C83       1.0  0.66010  0.20650  0.38390  1.0000 0.0894419021
C   C84       1.0  0.83990  0.70650  0.61610  1.0000 0.0894419021
C   C85       1.0  0.38960  0.78040  0.68760  1.0000 -0.1494285107
C   C86       1.0  0.11040  0.28040  0.31240  1.0000 -0.1494285107
C   C87       1.0  0.61040  0.21960  0.31240  1.0000 -0.1494285107
C   C88       1.0  0.88960  0.71960  0.68760  1.0000 -0.1494285107
C   C89       1.0  0.32960  0.75150  0.73150  1.0000 0.0062060562
C   C90       1.0  0.17040  0.25150  0.26850  1.0000 0.0062060562
C   C91       1.0  0.67040  0.24850  0.26850  1.0000 0.0062060562
C   C92       1.0  0.82960  0.74850  0.73150  1.0000 0.0062060562
C   C93       1.0  0.21940  0.73660  0.70280  1.0000 -0.0997946513
C   C94       1.0  0.28060  0.23660  0.29720  1.0000 -0.0997946513
C   C95       1.0  0.78060  0.26340  0.29720  1.0000 -0.0997946513
C   C96       1.0  0.71940  0.76340  0.70280  1.0000 -0.0997946513
C   C97       1.0  0.16890  0.75090  0.63370  1.0000 -0.0925009371
C   C98       1.0  0.33110  0.25090  0.36630  1.0000 -0.0925009371
C   C99       1.0  0.83110  0.24910  0.36630  1.0000 -0.0925009371
C   C100      1.0  0.66890  0.74910  0.63370  1.0000 -0.0925009371
C   C101      1.0  0.22750  0.77830  0.59090  1.0000 -0.1494285107
C   C102      1.0  0.27250  0.27830  0.40910  1.0000 -0.1494285107
C   C103      1.0  0.77250  0.22170  0.40910  1.0000 -0.1494285107
C   C104      1.0  0.72750  0.72170  0.59090  1.0000 -0.1494285107
C   C105      1.0  0.38390  0.73790  0.80630  1.0000 0.5652477956
C   C106      1.0  0.11610  0.23790  0.19370  1.0000 0.5652477956
C   C107      1.0  0.61610  0.26210  0.19370  1.0000 0.5652477956
C   C108      1.0  0.88390  0.76210  0.80630  1.0000 0.5652477956
C   C109      1.0  0.60850  0.01780  0.64560  1.0000 0.0957620806
C   C110      1.0  0.89150  0.51780  0.35440  1.0000 0.0957620806
C   C111      1.0  0.39150  0.98220  0.35440  1.0000 0.0957620806
C   C112      1.0  0.10850  0.48220  0.64560  1.0000 0.0957620806
C   C113      1.0  0.64610  0.00830  0.71990  1.0000 -0.1809515274
C   C114      1.0  0.85390  0.50830  0.28010  1.0000 -0.1809515274
C   C115      1.0  0.35390  0.99170  0.28010  1.0000 -0.1809515274
C   C116      1.0  0.14610  0.49170  0.71990  1.0000 -0.1809515274
C   C117      1.0  0.64360  0.04680  0.76930  1.0000 0.0292852289
C   C118      1.0  0.85640  0.54680  0.23070  1.0000 0.0292852289
C   C119      1.0  0.35640  0.95320  0.23070  1.0000 0.0292852289
C   C120      1.0  0.14360  0.45320  0.76930  1.0000 0.0292852289
C   C121      1.0  0.60680  0.09160  0.74320  1.0000 -0.1094575756
C   C122      1.0  0.89320  0.59160  0.25680  1.0000 -0.1094575756
C   C123      1.0  0.39320  0.90840  0.25680  1.0000 -0.1094575756
C   C124      1.0  0.10680  0.40840  0.74320  1.0000 -0.1094575756
C   C125      1.0  0.57610  0.10140  0.67110  1.0000 -0.0997946513
C   C126      1.0  0.92390  0.60140  0.32890  1.0000 -0.0997946513
C   C127      1.0  0.42390  0.89860  0.32890  1.0000 -0.0997946513
C   C128      1.0  0.07610  0.39860  0.67110  1.0000 -0.0997946513
C   C129      1.0  0.57270  0.06350  0.62090  1.0000 -0.1854805433
C   C130      1.0  0.92730  0.56350  0.37910  1.0000 -0.1854805433
C   C131      1.0  0.42730  0.93650  0.37910  1.0000 -0.1854805433
C   C132      1.0  0.07270  0.43650  0.62090  1.0000 -0.1809515274
C   C133      1.0  0.68100  0.03750  0.85040  1.0000 0.5561767137
C   C134      1.0  0.81900  0.53750  0.14960  1.0000 0.5561767137
C   C135      1.0  0.31900  0.96250  0.14960  1.0000 0.5561767137
C   C136      1.0  0.18100  0.46250  0.85040  1.0000 0.5561767137
C   C137      1.0  0.86120  0.96040  0.34040  1.0000 0.0820094264
C   C138      1.0  0.63880  0.46040  0.65960  1.0000 0.0820094264
C   C139      1.0  0.13880  0.03960  0.65960  1.0000 0.0820094264
C   C140      1.0  0.36120  0.53960  0.34040  1.0000 0.0820094264
C   C141      1.0  0.81320  0.97530  0.26910  1.0000 -0.1494285107
C   C142      1.0  0.68680  0.47530  0.73090  1.0000 -0.1494285107
C   C143      1.0  0.18680  0.02470  0.73090  1.0000 -0.1494285107
C   C144      1.0  0.31320  0.52470  0.26910  1.0000 -0.1494285107
C   C145      1.0  0.88020  0.00000  0.22570  1.0000 0.0227987404
C   C146      1.0  0.61980  0.50000  0.77430  1.0000 0.0227987404
C   C147      1.0  0.11980  0.00000  0.77430  1.0000 0.0227987404
C   C148      1.0  0.38020  0.50000  0.22570  1.0000 0.0227987404
C   C149      1.0  0.99450  0.00870  0.25150  1.0000 -0.0997946513
C   C150      1.0  0.50550  0.50870  0.74850  1.0000 -0.0997946513
C   C151      1.0  0.00550  0.99130  0.74850  1.0000 -0.0997946513
C   C152      1.0  0.49450  0.49130  0.25150  1.0000 -0.0997946513
C   C153      1.0  0.04370  0.99500  0.32050  1.0000 -0.0925009371
C   C154      1.0  0.45630  0.49500  0.67950  1.0000 -0.0925009371
C   C155      1.0  0.95630  0.00500  0.67950  1.0000 -0.0925009371
C   C156      1.0  0.54370  0.50500  0.32050  1.0000 -0.0925009371
C   C157      1.0  0.97740  0.97050  0.36540  1.0000 -0.1590249528
C   C158      1.0  0.52260  0.47050  0.63460  1.0000 -0.1590249528
C   C159      1.0  0.02260  0.02950  0.63460  1.0000 -0.1590249528
C   C160      1.0  0.47740  0.52950  0.36540  1.0000 -0.1590249528
C   C161      1.0  0.82200  0.01410  0.14940  1.0000 0.5561767137
C   C162      1.0  0.67800  0.51410  0.85060  1.0000 0.5561767137
C   C163      1.0  0.17800  0.98590  0.85060  1.0000 0.5561767137
C   C164      1.0  0.32200  0.48590  0.14940  1.0000 0.5561767137
C   C165      1.0  0.59780  0.73820  0.31340  1.0000 0.0894419021
C   C166      1.0  0.90220  0.23820  0.68660  1.0000 0.0894419021
C   C167      1.0  0.40220  0.26180  0.68660  1.0000 0.0894419021
C   C168      1.0  0.09780  0.76180  0.31340  1.0000 0.0894419021
C   C169      1.0  0.55470  0.74190  0.23930  1.0000 -0.1590249528
C   C170      1.0  0.94530  0.24190  0.76070  1.0000 -0.1590249528
C   C171      1.0  0.44530  0.25810  0.76070  1.0000 -0.1590249528
C   C172      1.0  0.05470  0.75810  0.23930  1.0000 -0.1590249528
C   C173      1.0  0.56330  0.70440  0.19250  1.0000 0.0227987404
C   C174      1.0  0.93670  0.20440  0.80750  1.0000 0.0227987404
C   C175      1.0  0.43670  0.29560  0.80750  1.0000 0.0227987404
C   C176      1.0  0.06330  0.79560  0.19250  1.0000 0.0227987404
C   C177      1.0  0.60650  0.66220  0.21500  1.0000 -0.0925009371
C   C178      1.0  0.89350  0.16220  0.78500  1.0000 -0.0925009371
C   C179      1.0  0.39350  0.33780  0.78500  1.0000 -0.0925009371
C   C180      1.0  0.10650  0.83780  0.21500  1.0000 -0.0925009371
C   C181      1.0  0.64520  0.65650  0.29040  1.0000 -0.0925009371
C   C182      1.0  0.85480  0.15650  0.70960  1.0000 -0.0925009371
C   C183      1.0  0.35480  0.34350  0.70960  1.0000 -0.0925009371
C   C184      1.0  0.14520  0.84350  0.29040  1.0000 -0.0925009371
C   C185      1.0  0.64180  0.69210  0.33930  1.0000 -0.1494285107
C   C186      1.0  0.85820  0.19210  0.66070  1.0000 -0.1494285107
C   C187      1.0  0.35820  0.30790  0.66070  1.0000 -0.1494285107
C   C188      1.0  0.14180  0.80790  0.33930  1.0000 -0.1494285107
C   C189      1.0  0.52270  0.71320  0.11070  1.0000 0.5777720428
C   C190      1.0  0.97730  0.21320  0.88930  1.0000 0.5777720428
C   C191      1.0  0.47730  0.28680  0.88930  1.0000 0.5777720428
C   C192      1.0  0.02270  0.78680  0.11070  1.0000 0.5777720428
C   C193      1.0  0.98200  0.97470  0.01000  1.0000 0.5122473008
C   C194      1.0  0.51800  0.47470  0.99000  1.0000 0.5122473008
C   C195      1.0  0.01800  0.02530  0.99000  1.0000 0.5122473008
C   C196      1.0  0.48200  0.52530  0.01000  1.0000 0.5122473008
C   C197      1.0  0.51670  0.97470  0.98480  1.0000 0.5372585274
C   C198      1.0  0.98330  0.47470  0.01520  1.0000 0.5372585274
C   C199      1.0  0.48330  0.02530  0.01520  1.0000 0.5372585274
C   C200      1.0  0.01670  0.52530  0.98480  1.0000 0.5372585274
C   C201      1.0  0.22260  0.77400  0.94350  1.0000 0.5372585274
C   C202      1.0  0.27740  0.27400  0.05650  1.0000 0.5372585274
C   C203      1.0  0.77740  0.22600  0.05650  1.0000 0.5372585274
C   C204      1.0  0.72260  0.72600  0.94350  1.0000 0.5372585274
C   C205      1.0  0.18890  0.72380  0.97380  1.0000 0.5299331761
C   C206      1.0  0.31110  0.22380  0.02620  1.0000 0.5299331761
C   C207      1.0  0.81110  0.27620  0.02620  1.0000 0.5299331761
C   C208      1.0  0.68890  0.77620  0.97380  1.0000 0.5299331761
N   N1        1.0  0.51850  0.81190  0.46780  1.0000 -0.3366926693
N   N2        1.0  0.98150  0.31190  0.53220  1.0000 -0.3366926693
N   N3        1.0  0.48150  0.18810  0.53220  1.0000 -0.3366926693
N   N4        1.0  0.01850  0.68810  0.46780  1.0000 -0.3366926693
N   N5        1.0  0.52480  0.89400  0.56660  1.0000 -0.2902984404
N   N6        1.0  0.97520  0.39400  0.43340  1.0000 -0.2902984404
N   N7        1.0  0.47520  0.10600  0.43340  1.0000 -0.2902984404
N   N8        1.0  0.02480  0.60600  0.56660  1.0000 -0.2902984404
N   N9        1.0  0.68610  0.94400  0.48830  1.0000 -0.3066952684
N   N10       1.0  0.81390  0.44400  0.51170  1.0000 -0.3066952684
N   N11       1.0  0.31390  0.05600  0.51170  1.0000 -0.3066952684
N   N12       1.0  0.18610  0.55600  0.48830  1.0000 -0.3066952684
N   N13       1.0  0.68390  0.85940  0.39600  1.0000 -0.2902984404
N   N14       1.0  0.81610  0.35940  0.60400  1.0000 -0.2902984404
N   N15       1.0  0.31610  0.14060  0.60400  1.0000 -0.2902984404
N   N16       1.0  0.18390  0.64060  0.39600  1.0000 -0.2902984404
O   O1        1.0  0.33900  0.70310  0.83700  1.0000 -0.6175259733
O   O2        1.0  0.16100  0.20310  0.16300  1.0000 -0.6175259733
O   O3        1.0  0.66100  0.29690  0.16300  1.0000 -0.6175259733
O   O4        1.0  0.83900  0.79690  0.83700  1.0000 -0.6175259733
O   O5        1.0  0.47090  0.75960  0.83820  1.0000 -0.551685431
O   O6        1.0  0.02910  0.25960  0.16180  1.0000 -0.551685431
O   O7        1.0  0.52910  0.24040  0.16180  1.0000 -0.551685431
O   O8        1.0  0.97090  0.74040  0.83820  1.0000 -0.551685431
O   O9        1.0  0.75570  0.00520  0.87260  1.0000 -0.5900763867
O   O10       1.0  0.74430  0.50520  0.12740  1.0000 -0.5900763867
O   O11       1.0  0.24430  0.99480  0.12740  1.0000 -0.5900763867
O   O12       1.0  0.25570  0.49480  0.87260  1.0000 -0.5900763867
O   O13       1.0  0.63770  0.06360  0.89290  1.0000 -0.5900763867
O   O14       1.0  0.86230  0.56360  0.10710  1.0000 -0.5900763867
O   O15       1.0  0.36230  0.93640  0.10710  1.0000 -0.5900763867
O   O16       1.0  0.13770  0.43640  0.89290  1.0000 -0.5900763867
O   O17       1.0  0.86660  0.04920  0.11860  1.0000 -0.5995841109
O   O18       1.0  0.63340  0.54920  0.88140  1.0000 -0.5995841109
O   O19       1.0  0.13340  0.95080  0.88140  1.0000 -0.5995841109
O   O20       1.0  0.36660  0.45080  0.11860  1.0000 -0.5995841109
O   O21       1.0  0.73870  0.99200  0.11720  1.0000 -0.532685467
O   O22       1.0  0.76130  0.49200  0.88280  1.0000 -0.532685467
O   O23       1.0  0.26130  0.00800  0.88280  1.0000 -0.532685467
O   O24       1.0  0.23870  0.50800  0.11720  1.0000 -0.532685467
O   O25       1.0  0.56990  0.68640  0.06880  1.0000 -0.5900763867
O   O26       1.0  0.93010  0.18640  0.93120  1.0000 -0.5900763867
O   O27       1.0  0.43010  0.31360  0.93120  1.0000 -0.5900763867
O   O28       1.0  0.06990  0.81360  0.06880  1.0000 -0.5900763867
O   O29       1.0  0.44580  0.74280  0.08660  1.0000 -0.5689432927
O   O30       1.0  0.05420  0.24280  0.91340  1.0000 -0.5689432927
O   O31       1.0  0.55420  0.25720  0.91340  1.0000 -0.5689432927
O   O32       1.0  0.94580  0.75720  0.08660  1.0000 -0.5689432927
O   O33       1.0  0.87870  0.96670  0.01330  1.0000 -0.5198289686
O   O34       1.0  0.62130  0.46670  0.98670  1.0000 -0.5198289686
O   O35       1.0  0.12130  0.03330  0.98670  1.0000 -0.5198289686
O   O36       1.0  0.37870  0.53330  0.01330  1.0000 -0.5198289686
O   O37       1.0  0.06330  0.94370  0.02110  1.0000 -0.5770021313
O   O38       1.0  0.43670  0.44370  0.97890  1.0000 -0.5770021313
O   O39       1.0  0.93670  0.05630  0.97890  1.0000 -0.5770021313
O   O40       1.0  0.56330  0.55630  0.02110  1.0000 -0.5770021313
O   O41       1.0  0.61770  0.96770  0.97570  1.0000 -0.5088961505
O   O42       1.0  0.88230  0.46770  0.02430  1.0000 -0.5088961505
O   O43       1.0  0.38230  0.03230  0.02430  1.0000 -0.5088961505
O   O44       1.0  0.11770  0.53230  0.97570  1.0000 -0.5088961505
O   O45       1.0  0.43310  0.94540  0.96820  1.0000 -0.5689432927
O   O46       1.0  0.06690  0.44540  0.03180  1.0000 -0.5689432927
O   O47       1.0  0.56690  0.05460  0.03180  1.0000 -0.5689432927
O   O48       1.0  0.93310  0.55460  0.96820  1.0000 -0.5689432927
O   O49       1.0  0.32440  0.78130  0.93960  1.0000 -0.5088961505
O   O50       1.0  0.17560  0.28130  0.06040  1.0000 -0.5009633087
O   O51       1.0  0.67560  0.21870  0.06040  1.0000 -0.5009633087
O   O52       1.0  0.82440  0.71870  0.93960  1.0000 -0.5088961505
O   O53       1.0  0.13770  0.80410  0.92710  1.0000 -0.5995841109
O   O54       1.0  0.36230  0.30410  0.07290  1.0000 -0.5900763867
O   O55       1.0  0.86230  0.19590  0.07290  1.0000 -0.5900763867
O   O56       1.0  0.63770  0.69590  0.92710  1.0000 -0.5995841109
O   O57       1.0  0.08980  0.71810  0.98280  1.0000 -0.4864033097
O   O58       1.0  0.41020  0.21810  0.01720  1.0000 -0.4815654838
O   O59       1.0  0.91020  0.28190  0.01720  1.0000 -0.4815654838
O   O60       1.0  0.58980  0.78190  0.98280  1.0000 -0.4864033097
O   O61       1.0  0.26770  0.69380  0.98190  1.0000 -0.551685431
O   O62       1.0  0.23230  0.19380  0.01810  1.0000 -0.5443478012
O   O63       1.0  0.73230  0.30620  0.01810  1.0000 -0.5443478012
O   O64       1.0  0.76770  0.80620  0.98190  1.0000 -0.551685431
