# DDEC6 charges by PACMAN v1.1 (https://github.com/mtap-research/PACMAN-charge/)
data_2007[Cd][dia]3[ASR]4
_chemical_formula_sum              "Cd2 H48 C72 N8 F16"
_cell_length_a       12.8267
_cell_length_b       12.8267
_cell_length_c       16.69
_cell_angle_alpha    71.3177
_cell_angle_beta     108.682
_cell_angle_gamma    84.0275

_symmetry_space_group_name_H-M    "P 1"
_symmetry_Int_Tables_number       1

loop_
  _symmetry_equiv_pos_as_xyz
  'x, y, z'

loop_
  _atom_site_type_symbol
  _atom_site_label
  _atom_site_symmetry_multiplicity
  _atom_site_fract_x
  _atom_site_fract_y
  _atom_site_fract_z
  _atom_site_occupancy
  _atom_site_charge
Cd  Cd1       1.0  0.37926  0.37926  0.25000  1.0000 0.5970748913
Cd  Cd2       1.0  0.62074  0.62074  0.75000  1.0000 0.5970748913
H   H1        1.0  0.31060  0.15100  0.22660  1.0000 0.0898431119
H   H2        1.0  0.15100  0.31060  0.27340  1.0000 0.0898431119
H   H3        1.0  0.68940  0.84900  0.77340  1.0000 0.0898431119
H   H4        1.0  0.84900  0.68940  0.72660  1.0000 0.0898431119
H   H5        1.0  0.22930  0.45390  0.03700  1.0000 0.0898431119
H   H6        1.0  0.45390  0.22930  0.46300  1.0000 0.0898431119
H   H7        1.0  0.77070  0.54610  0.96300  1.0000 0.0898431119
H   H8        1.0  0.54610  0.77070  0.53700  1.0000 0.0898431119
H   H9        1.0  0.21880  0.07820  0.12090  1.0000 0.1308227282
H   H10       1.0  0.07820  0.21880  0.37910  1.0000 0.1308227282
H   H11       1.0  0.78120  0.92180  0.87910  1.0000 0.1308227282
H   H12       1.0  0.92180  0.78120  0.62090  1.0000 0.1308227282
H   H13       1.0  0.13320  0.39040  0.92620  1.0000 0.1308227282
H   H14       1.0  0.39040  0.13320  0.57380  1.0000 0.1308227282
H   H15       1.0  0.86680  0.60960  0.07380  1.0000 0.1308227282
H   H16       1.0  0.60960  0.86680  0.42620  1.0000 0.1308227282
H   H17       1.0  0.16010  0.15990  0.91190  1.0000 0.1308227282
H   H18       1.0  0.15990  0.16010  0.58810  1.0000 0.1308227282
H   H19       1.0  0.83990  0.84010  0.08810  1.0000 0.1308227282
H   H20       1.0  0.84010  0.83990  0.41190  1.0000 0.1308227282
H   H21       1.0  0.04620  0.24960  0.88520  1.0000 0.1236431104
H   H22       1.0  0.24960  0.04620  0.61480  1.0000 0.1236431104
H   H23       1.0  0.95380  0.75040  0.11480  1.0000 0.1236431104
H   H24       1.0  0.75040  0.95380  0.38520  1.0000 0.1236431104
H   H25       1.0  0.63180  0.26960  0.40670  1.0000 0.0898431119
H   H26       1.0  0.26960  0.63180  0.09330  1.0000 0.0898431119
H   H27       1.0  0.36820  0.73040  0.59330  1.0000 0.0898431119
H   H28       1.0  0.73040  0.36820  0.90670  1.0000 0.0898431119
H   H29       1.0  0.44060  0.56680  0.33840  1.0000 0.0968417403
H   H30       1.0  0.56680  0.44060  0.16160  1.0000 0.0968417403
H   H31       1.0  0.55940  0.43320  0.66160  1.0000 0.0968417403
H   H32       1.0  0.43320  0.55940  0.83840  1.0000 0.0968417403
H   H33       1.0  0.78000  0.30900  0.50600  1.0000 0.1420223069
H   H34       1.0  0.30900  0.78000  0.99400  1.0000 0.1420223069
H   H35       1.0  0.22000  0.69100  0.49400  1.0000 0.1420223069
H   H36       1.0  0.69100  0.22000  0.00600  1.0000 0.1420223069
H   H37       1.0  0.58400  0.61440  0.43440  1.0000 0.1308227282
H   H38       1.0  0.61440  0.58400  0.06560  1.0000 0.1308227282
H   H39       1.0  0.41600  0.38560  0.56560  1.0000 0.1308227282
H   H40       1.0  0.38560  0.41600  0.93440  1.0000 0.1308227282
H   H41       1.0  0.81680  0.43740  0.60810  1.0000 0.1236431104
H   H42       1.0  0.43740  0.81680  0.89190  1.0000 0.1236431104
H   H43       1.0  0.18320  0.56260  0.39190  1.0000 0.1236431104
H   H44       1.0  0.56260  0.18320  0.10810  1.0000 0.1236431104
H   H45       1.0  0.76990  0.56910  0.54620  1.0000 0.113985489
H   H46       1.0  0.56910  0.76990  0.95380  1.0000 0.113985489
H   H47       1.0  0.23010  0.43090  0.45380  1.0000 0.113985489
H   H48       1.0  0.43090  0.23010  0.04620  1.0000 0.113985489
C   C1        1.0  0.27445  0.20039  0.16440  1.0000 0.053408603
C   C2        1.0  0.20039  0.27445  0.33560  1.0000 0.053408603
C   C3        1.0  0.72555  0.79961  0.83560  1.0000 0.053408603
C   C4        1.0  0.79961  0.72555  0.66440  1.0000 0.053408603
C   C5        1.0  0.22699  0.37625  0.05441  1.0000 0.040915829
C   C6        1.0  0.37625  0.22699  0.44559  1.0000 0.040915829
C   C7        1.0  0.77301  0.62375  0.94559  1.0000 0.040915829
C   C8        1.0  0.62375  0.77301  0.55441  1.0000 0.040915829
C   C9        1.0  0.21964  0.15612  0.10166  1.0000 -0.2069089237
C   C10       1.0  0.15612  0.21964  0.39834  1.0000 -0.2069089237
C   C11       1.0  0.78036  0.84388  0.89834  1.0000 -0.2069089237
C   C12       1.0  0.84388  0.78036  0.60166  1.0000 -0.2069089237
C   C13       1.0  0.16983  0.33889  0.98765  1.0000 -0.2188596121
C   C14       1.0  0.33889  0.16983  0.51235  1.0000 -0.2188596121
C   C15       1.0  0.83017  0.66111  0.01235  1.0000 -0.2188596121
C   C16       1.0  0.66111  0.83017  0.48765  1.0000 -0.2188596121
C   C17       1.0  0.16584  0.22620  0.01041  1.0000 0.1704835545
C   C18       1.0  0.22620  0.16584  0.48959  1.0000 0.1704835545
C   C19       1.0  0.83416  0.77380  0.98959  1.0000 0.1704835545
C   C20       1.0  0.77380  0.83416  0.51041  1.0000 0.1704835545
C   C21       1.0  0.10522  0.18542  0.93595  1.0000 -0.2918704498
C   C22       1.0  0.18542  0.10522  0.56405  1.0000 -0.2918704498
C   C23       1.0  0.89478  0.81458  0.06405  1.0000 -0.2918704498
C   C24       1.0  0.81458  0.89478  0.43595  1.0000 -0.2918704498
C   C25       1.0  0.05083  0.09001  0.96822  1.0000 -0.0645099405
C   C26       1.0  0.09001  0.05083  0.53178  1.0000 -0.0645099405
C   C27       1.0  0.94917  0.90999  0.03178  1.0000 -0.0645099405
C   C28       1.0  0.90999  0.94917  0.46822  1.0000 -0.0645099405
C   C29       1.0  0.10817  0.97791  0.00477  1.0000 0.0898431119
C   C30       1.0  0.97791  0.10817  0.49523  1.0000 0.0898431119
C   C31       1.0  0.89183  0.02209  0.99523  1.0000 0.0898431119
C   C32       1.0  0.02209  0.89183  0.50477  1.0000 0.0898431119
C   C33       1.0  0.05891  0.89071  0.03529  1.0000 0.0968417403
C   C34       1.0  0.89071  0.05891  0.46471  1.0000 0.0968417403
C   C35       1.0  0.94109  0.10929  0.96471  1.0000 0.0968417403
C   C36       1.0  0.10929  0.94109  0.53529  1.0000 0.0968417403
C   C37       1.0  0.62177  0.34133  0.41179  1.0000 0.053408603
C   C38       1.0  0.34133  0.62177  0.08821  1.0000 0.053408603
C   C39       1.0  0.37823  0.65867  0.58821  1.0000 0.053408603
C   C40       1.0  0.65867  0.37823  0.91179  1.0000 0.053408603
C   C41       1.0  0.51134  0.51362  0.37223  1.0000 0.040915829
C   C42       1.0  0.51362  0.51134  0.12777  1.0000 0.040915829
C   C43       1.0  0.48866  0.48638  0.62777  1.0000 0.040915829
C   C44       1.0  0.48638  0.48866  0.87223  1.0000 0.040915829
C   C45       1.0  0.71098  0.36450  0.47123  1.0000 -0.2018692094
C   C46       1.0  0.36450  0.71098  0.02877  1.0000 -0.2018692094
C   C47       1.0  0.28902  0.63550  0.52877  1.0000 -0.2018692094
C   C48       1.0  0.63550  0.28902  0.97123  1.0000 -0.2018692094
C   C49       1.0  0.59652  0.54272  0.42961  1.0000 -0.2188596121
C   C50       1.0  0.54272  0.59652  0.07039  1.0000 -0.2188596121
C   C51       1.0  0.40348  0.45728  0.57039  1.0000 -0.2188596121
C   C52       1.0  0.45728  0.40348  0.92961  1.0000 -0.2188596121
C   C53       1.0  0.70030  0.46736  0.48023  1.0000 0.1704835545
C   C54       1.0  0.46736  0.70030  0.01977  1.0000 0.1704835545
C   C55       1.0  0.29970  0.53264  0.51977  1.0000 0.1704835545
C   C56       1.0  0.53264  0.29970  0.98023  1.0000 0.1704835545
C   C57       1.0  0.79642  0.49412  0.54581  1.0000 -0.2845972526
C   C58       1.0  0.49412  0.79642  0.95419  1.0000 -0.2845972526
C   C59       1.0  0.20358  0.50588  0.45419  1.0000 -0.2845972526
C   C60       1.0  0.50588  0.20358  0.04581  1.0000 -0.2845972526
C   C61       1.0  0.90109  0.49479  0.52241  1.0000 -0.0704959604
C   C62       1.0  0.49479  0.90109  0.97759  1.0000 -0.0704959604
C   C63       1.0  0.09891  0.50521  0.47759  1.0000 -0.0704959604
C   C64       1.0  0.50521  0.09891  0.02241  1.0000 -0.0704959604
C   C65       1.0  0.90376  0.58176  0.44824  1.0000 0.0968417403
C   C66       1.0  0.58176  0.90376  0.05176  1.0000 0.0968417403
C   C67       1.0  0.09624  0.41824  0.55176  1.0000 0.0968417403
C   C68       1.0  0.41824  0.09624  0.94824  1.0000 0.0968417403
C   C69       1.0  0.99953  0.58711  0.42718  1.0000 0.0968417403
C   C70       1.0  0.58711  0.99953  0.07282  1.0000 0.0968417403
C   C71       1.0  0.00047  0.41289  0.57282  1.0000 0.0968417403
C   C72       1.0  0.41289  0.00047  0.92718  1.0000 0.0968417403
N   N1        1.0  0.27924  0.30898  0.14229  1.0000 -0.2510777313
N   N2        1.0  0.30898  0.27924  0.35771  1.0000 -0.2510777313
N   N3        1.0  0.72076  0.69102  0.85771  1.0000 -0.2510777313
N   N4        1.0  0.69102  0.72076  0.64229  1.0000 -0.2510777313
N   N5        1.0  0.52248  0.41466  0.36134  1.0000 -0.2510777313
N   N6        1.0  0.41466  0.52248  0.13866  1.0000 -0.2510777313
N   N7        1.0  0.47752  0.58534  0.63866  1.0000 -0.2510777313
N   N8        1.0  0.58534  0.47752  0.86134  1.0000 -0.2510777313
F   F1        1.0  0.21601  0.95281  0.01111  1.0000 -0.1311283718
F   F2        1.0  0.95281  0.21601  0.48889  1.0000 -0.1311283718
F   F3        1.0  0.78399  0.04719  0.98889  1.0000 -0.1311283718
F   F4        1.0  0.04719  0.78399  0.51111  1.0000 -0.1311283718
F   F5        1.0  0.11996  0.78314  0.06975  1.0000 -0.1536282051
F   F6        1.0  0.78314  0.11996  0.43025  1.0000 -0.1536282051
F   F7        1.0  0.88004  0.21686  0.93025  1.0000 -0.1536282051
F   F8        1.0  0.21686  0.88004  0.56975  1.0000 -0.1536282051
F   F9        1.0  0.80914  0.66404  0.39440  1.0000 -0.120829438
F   F10       1.0  0.66404  0.80914  0.10560  1.0000 -0.120829438
F   F11       1.0  0.19086  0.33596  0.60560  1.0000 -0.120829438
F   F12       1.0  0.33596  0.19086  0.89440  1.0000 -0.120829438
F   F13       1.0  0.99300  0.67596  0.35384  1.0000 -0.1357653189
F   F14       1.0  0.67596  0.99300  0.14616  1.0000 -0.1357653189
F   F15       1.0  0.00700  0.32404  0.64616  1.0000 -0.1357653189
F   F16       1.0  0.32404  0.00700  0.85384  1.0000 -0.1357653189
