# DDEC6 charges by PACMAN v1.1 (https://github.com/mtap-research/PACMAN-charge/)
data_2007[Zn][nan]3[ASR]8
_chemical_formula_sum              "Zn10 H120 C176 N8 O48"
_cell_length_a       16.984
_cell_length_b       16.342
_cell_length_c       15.648
_cell_angle_alpha    90
_cell_angle_beta     103.23
_cell_angle_gamma    90

_symmetry_space_group_name_H-M    "P 1"
_symmetry_Int_Tables_number       1

loop_
  _symmetry_equiv_pos_as_xyz
  'x, y, z'

loop_
  _atom_site_type_symbol
  _atom_site_label
  _atom_site_symmetry_multiplicity
  _atom_site_fract_x
  _atom_site_fract_y
  _atom_site_fract_z
  _atom_site_occupancy
  _atom_site_charge
Zn  Zn1       1.0  0.44242  0.95889  0.36521  1.0000 0.8311573311
Zn  Zn2       1.0  0.55758  0.04111  0.63479  1.0000 0.8311573311
Zn  Zn3       1.0  0.55758  0.45889  0.13479  1.0000 0.8311573311
Zn  Zn4       1.0  0.44242  0.54111  0.86521  1.0000 0.8311573311
Zn  Zn5       1.0  0.82357  0.00927  0.05419  1.0000 0.9201796248
Zn  Zn6       1.0  0.17643  0.99073  0.94581  1.0000 0.9201796248
Zn  Zn7       1.0  0.17643  0.50927  0.44581  1.0000 0.9201796248
Zn  Zn8       1.0  0.82357  0.49073  0.55419  1.0000 0.9201796248
Zn  Zn9       1.0  0.00000  0.00000  0.00000  1.0000 1.0172121122
Zn  Zn10      1.0  0.00000  0.50000  0.50000  1.0000 1.0172121122
H   H1        1.0  0.34988  0.02622  0.19467  1.0000 0.1005084028
H   H2        1.0  0.65012  0.97378  0.80533  1.0000 0.1005084028
H   H3        1.0  0.65012  0.52622  0.30533  1.0000 0.1005084028
H   H4        1.0  0.34988  0.47378  0.69467  1.0000 0.1005084028
H   H5        1.0  0.28639  0.16059  0.14020  1.0000 0.1201058396
H   H6        1.0  0.71361  0.83941  0.85980  1.0000 0.1201058396
H   H7        1.0  0.71361  0.66059  0.35980  1.0000 0.1201058396
H   H8        1.0  0.28639  0.33941  0.64020  1.0000 0.1201058396
H   H9        1.0  0.28653  0.27533  0.25157  1.0000 0.1286125009
H   H10       1.0  0.71347  0.72467  0.74843  1.0000 0.1286125009
H   H11       1.0  0.71347  0.77533  0.24843  1.0000 0.1286125009
H   H12       1.0  0.28653  0.22467  0.75157  1.0000 0.1286125009
H   H13       1.0  0.39118  0.09958  0.45513  1.0000 0.1005084028
H   H14       1.0  0.60882  0.90042  0.54487  1.0000 0.1005084028
H   H15       1.0  0.60882  0.59958  0.04487  1.0000 0.1005084028
H   H16       1.0  0.39118  0.40042  0.95513  1.0000 0.1005084028
H   H17       1.0  0.36077  0.29473  0.54695  1.0000 0.1005084028
H   H18       1.0  0.63923  0.70527  0.45305  1.0000 0.1005084028
H   H19       1.0  0.63923  0.79473  0.95305  1.0000 0.1005084028
H   H20       1.0  0.36077  0.20527  0.04695  1.0000 0.1005084028
H   H21       1.0  0.40146  0.19595  0.53381  1.0000 0.0839022889
H   H22       1.0  0.59854  0.80405  0.46619  1.0000 0.0839022889
H   H23       1.0  0.59854  0.69595  0.96619  1.0000 0.0839022889
H   H24       1.0  0.40146  0.30405  0.03381  1.0000 0.0839022889
H   H25       1.0  0.33076  0.08800  0.59267  1.0000 0.1104721973
H   H26       1.0  0.66924  0.91200  0.40733  1.0000 0.1104721973
H   H27       1.0  0.66924  0.58800  0.90733  1.0000 0.1104721973
H   H28       1.0  0.33076  0.41200  0.09267  1.0000 0.1104721973
H   H29       1.0  0.20543  0.02908  0.62180  1.0000 0.1005084028
H   H30       1.0  0.79457  0.97092  0.37820  1.0000 0.1005084028
H   H31       1.0  0.79457  0.52908  0.87820  1.0000 0.1005084028
H   H32       1.0  0.20543  0.47092  0.12180  1.0000 0.1005084028
H   H33       1.0  0.07138  0.24100  0.49908  1.0000 0.1005084028
H   H34       1.0  0.92862  0.75900  0.50092  1.0000 0.1005084028
H   H35       1.0  0.92862  0.74100  0.00092  1.0000 0.1005084028
H   H36       1.0  0.07138  0.25900  0.99908  1.0000 0.1005084028
H   H37       1.0  0.19645  0.29810  0.46901  1.0000 0.1201058396
H   H38       1.0  0.80355  0.70190  0.53099  1.0000 0.1201058396
H   H39       1.0  0.80355  0.79810  0.03099  1.0000 0.1201058396
H   H40       1.0  0.19645  0.20190  0.96901  1.0000 0.1201058396
H   H41       1.0  0.11100  0.00345  0.67391  1.0000 0.1104721973
H   H42       1.0  0.88900  0.99655  0.32609  1.0000 0.1104721973
H   H43       1.0  0.88900  0.50345  0.82609  1.0000 0.1104721973
H   H44       1.0  0.11100  0.49655  0.17391  1.0000 0.1104721973
H   H45       1.0  0.98483  0.94760  0.70027  1.0000 0.1005084028
H   H46       1.0  0.01517  0.05240  0.29973  1.0000 0.1005084028
H   H47       1.0  0.01517  0.44760  0.79973  1.0000 0.1005084028
H   H48       1.0  0.98483  0.55240  0.20027  1.0000 0.1005084028
H   H49       1.0  0.84726  0.12926  0.52684  1.0000 0.1005084028
H   H50       1.0  0.15274  0.87074  0.47316  1.0000 0.1005084028
H   H51       1.0  0.15274  0.62926  0.97316  1.0000 0.1005084028
H   H52       1.0  0.84726  0.37074  0.02684  1.0000 0.1005084028
H   H53       1.0  0.97255  0.18019  0.49240  1.0000 0.1005084028
H   H54       1.0  0.02745  0.81981  0.50760  1.0000 0.1005084028
H   H55       1.0  0.02745  0.68019  0.00760  1.0000 0.1005084028
H   H56       1.0  0.97255  0.31981  0.99240  1.0000 0.1005084028
H   H57       1.0  0.83361  0.93599  0.64765  1.0000 0.1104721973
H   H58       1.0  0.16639  0.06401  0.35235  1.0000 0.1104721973
H   H59       1.0  0.16639  0.43599  0.85235  1.0000 0.1104721973
H   H60       1.0  0.83361  0.56401  0.14765  1.0000 0.1104721973
H   H61       1.0  0.77718  0.01525  0.58190  1.0000 0.1201058396
H   H62       1.0  0.22282  0.98475  0.41810  1.0000 0.1104721973
H   H63       1.0  0.22282  0.51525  0.91810  1.0000 0.1201058396
H   H64       1.0  0.77718  0.48475  0.08190  1.0000 0.1201058396
H   H65       1.0  0.88655  0.95516  0.79781  1.0000 0.1286125009
H   H66       1.0  0.11345  0.04484  0.20219  1.0000 0.1286125009
H   H67       1.0  0.11345  0.45516  0.70219  1.0000 0.1286125009
H   H68       1.0  0.88655  0.54484  0.29781  1.0000 0.1286125009
H   H69       1.0  0.77362  0.14185  0.92598  1.0000 0.1378144144
H   H70       1.0  0.22638  0.85815  0.07402  1.0000 0.1378144144
H   H71       1.0  0.22638  0.64185  0.57402  1.0000 0.1378144144
H   H72       1.0  0.77362  0.35815  0.42598  1.0000 0.1378144144
H   H73       1.0  0.71233  0.20076  0.77613  1.0000 0.1201058396
H   H74       1.0  0.28767  0.79924  0.22387  1.0000 0.1201058396
H   H75       1.0  0.28767  0.70076  0.72387  1.0000 0.1201058396
H   H76       1.0  0.71233  0.29924  0.27613  1.0000 0.1201058396
H   H77       1.0  0.74147  0.13179  0.64135  1.0000 0.1286125009
H   H78       1.0  0.25853  0.86821  0.35865  1.0000 0.1286125009
H   H79       1.0  0.25853  0.63179  0.85865  1.0000 0.1286125009
H   H80       1.0  0.74147  0.36821  0.14135  1.0000 0.1286125009
H   H81       1.0  0.55949  0.34379  0.40818  1.0000 0.1104721973
H   H82       1.0  0.44051  0.65621  0.59182  1.0000 0.1104721973
H   H83       1.0  0.44051  0.84379  0.09182  1.0000 0.1104721973
H   H84       1.0  0.55949  0.15621  0.90818  1.0000 0.1104721973
H   H85       1.0  0.57883  0.21929  0.50746  1.0000 0.1201058396
H   H86       1.0  0.42117  0.78071  0.49254  1.0000 0.1201058396
H   H87       1.0  0.42117  0.71929  0.99254  1.0000 0.1201058396
H   H88       1.0  0.57883  0.28071  0.00746  1.0000 0.1201058396
H   H89       1.0  0.55495  0.06198  0.28008  1.0000 0.1104721973
H   H90       1.0  0.44505  0.93802  0.71992  1.0000 0.1104721973
H   H91       1.0  0.44505  0.56198  0.21992  1.0000 0.1104721973
H   H92       1.0  0.55495  0.43802  0.78008  1.0000 0.1104721973
H   H93       1.0  0.53743  0.18745  0.18245  1.0000 0.1104721973
H   H94       1.0  0.46257  0.81255  0.81755  1.0000 0.1104721973
H   H95       1.0  0.46257  0.68745  0.31755  1.0000 0.1104721973
H   H96       1.0  0.53743  0.31255  0.68245  1.0000 0.1104721973
H   H97       1.0  0.89949  0.68916  0.33357  1.0000 0.1104721973
H   H98       1.0  0.10051  0.31084  0.66643  1.0000 0.1104721973
H   H99       1.0  0.10051  0.18916  0.16643  1.0000 0.1104721973
H   H100      1.0  0.89949  0.81084  0.83357  1.0000 0.1104721973
H   H101      1.0  0.12809  0.69152  0.25793  1.0000 0.1104721973
H   H102      1.0  0.87191  0.30848  0.74207  1.0000 0.1104721973
H   H103      1.0  0.87191  0.19152  0.24207  1.0000 0.1104721973
H   H104      1.0  0.12809  0.80848  0.75793  1.0000 0.1104721973
H   H105      1.0  0.07645  0.80651  0.14927  1.0000 0.1005084028
H   H106      1.0  0.92355  0.19349  0.85073  1.0000 0.1005084028
H   H107      1.0  0.92355  0.30651  0.35073  1.0000 0.1005084028
H   H108      1.0  0.07645  0.69349  0.64927  1.0000 0.1005084028
H   H109      1.0  0.84925  0.80590  0.22714  1.0000 0.1104721973
H   H110      1.0  0.15075  0.19410  0.77286  1.0000 0.1104721973
H   H111      1.0  0.15075  0.30590  0.27286  1.0000 0.1104721973
H   H112      1.0  0.84925  0.69410  0.72714  1.0000 0.1104721973
H   H113      1.0  0.59738  0.08158  0.11213  1.0000 0.1104721973
H   H114      1.0  0.40262  0.91842  0.88787  1.0000 0.1104721973
H   H115      1.0  0.40262  0.58158  0.38787  1.0000 0.1104721973
H   H116      1.0  0.59738  0.41842  0.61213  1.0000 0.1104721973
H   H117      1.0  0.55438  0.91013  0.89764  1.0000 0.1005084028
H   H118      1.0  0.44562  0.08987  0.10236  1.0000 0.1005084028
H   H119      1.0  0.44562  0.41013  0.60236  1.0000 0.1005084028
H   H120      1.0  0.55438  0.58987  0.39764  1.0000 0.1005084028
C   C1        1.0  0.34404  0.07571  0.23944  1.0000 0.0583450885
C   C2        1.0  0.65596  0.92429  0.76056  1.0000 0.0583450885
C   C3        1.0  0.65596  0.57571  0.26056  1.0000 0.0583450885
C   C4        1.0  0.34404  0.42429  0.73944  1.0000 0.0583450885
C   C5        1.0  0.31030  0.15194  0.21052  1.0000 -0.101468515
C   C6        1.0  0.68970  0.84806  0.78948  1.0000 -0.101468515
C   C7        1.0  0.68970  0.65194  0.28948  1.0000 -0.101468515
C   C8        1.0  0.31030  0.34806  0.71052  1.0000 -0.101468515
C   C9        1.0  0.30915  0.21362  0.27156  1.0000 -0.151812537
C   C10       1.0  0.69085  0.78638  0.72844  1.0000 -0.151812537
C   C11       1.0  0.69085  0.71362  0.22844  1.0000 -0.151812537
C   C12       1.0  0.30915  0.28638  0.77156  1.0000 -0.151812537
C   C13       1.0  0.33805  0.19654  0.36189  1.0000 0.2184100047
C   C14       1.0  0.66195  0.80346  0.63811  1.0000 0.2184100047
C   C15       1.0  0.66195  0.69654  0.13811  1.0000 0.2184100047
C   C16       1.0  0.33805  0.30346  0.86189  1.0000 0.2184100047
C   C17       1.0  0.36831  0.11819  0.38639  1.0000 -0.0798129339
C   C18       1.0  0.63169  0.88181  0.61361  1.0000 -0.0798129339
C   C19       1.0  0.63169  0.61819  0.11361  1.0000 -0.0798129339
C   C20       1.0  0.36831  0.38181  0.88639  1.0000 -0.0798129339
C   C21       1.0  0.34776  0.23555  0.51231  1.0000 -0.0233846337
C   C22       1.0  0.65224  0.76445  0.48769  1.0000 -0.0233846337
C   C23       1.0  0.65224  0.73555  0.98769  1.0000 -0.0233846337
C   C24       1.0  0.34776  0.26445  0.01231  1.0000 -0.0233846337
C   C25       1.0  0.27219  0.19727  0.52925  1.0000 0.0682447252
C   C26       1.0  0.72781  0.80273  0.47075  1.0000 0.0682447252
C   C27       1.0  0.72781  0.69727  0.97075  1.0000 0.0682447252
C   C28       1.0  0.27219  0.30273  0.02925  1.0000 0.0682447252
C   C29       1.0  0.27364  0.12175  0.57239  1.0000 -0.1396032378
C   C30       1.0  0.72636  0.87825  0.42761  1.0000 -0.1396032378
C   C31       1.0  0.72636  0.62175  0.92761  1.0000 -0.1396032378
C   C32       1.0  0.27364  0.37825  0.07239  1.0000 -0.1396032378
C   C33       1.0  0.20249  0.08842  0.58836  1.0000 -0.1292029836
C   C34       1.0  0.79751  0.91158  0.41164  1.0000 -0.1292029836
C   C35       1.0  0.79751  0.58842  0.91164  1.0000 -0.1292029836
C   C36       1.0  0.20249  0.41158  0.08836  1.0000 -0.1292029836
C   C37       1.0  0.12777  0.12968  0.56197  1.0000 0.0583450885
C   C38       1.0  0.87223  0.87032  0.43803  1.0000 0.0583450885
C   C39       1.0  0.87223  0.62968  0.93803  1.0000 0.0583450885
C   C40       1.0  0.12777  0.37032  0.06197  1.0000 0.0583450885
C   C41       1.0  0.12742  0.20567  0.51857  1.0000 -0.1211785574
C   C42       1.0  0.87258  0.79433  0.48143  1.0000 -0.1211785574
C   C43       1.0  0.87258  0.70567  0.98143  1.0000 -0.1211785574
C   C44       1.0  0.12742  0.29433  0.01857  1.0000 -0.1211785574
C   C45       1.0  0.19810  0.23890  0.50238  1.0000 -0.1211785574
C   C46       1.0  0.80190  0.76110  0.49762  1.0000 -0.1211785574
C   C47       1.0  0.80190  0.73890  0.99762  1.0000 -0.1211785574
C   C48       1.0  0.19810  0.26110  0.00238  1.0000 -0.1211785574
C   C49       1.0  0.05233  0.09639  0.58028  1.0000 0.0682447252
C   C50       1.0  0.94767  0.90361  0.41972  1.0000 0.0682447252
C   C51       1.0  0.94767  0.59639  0.91972  1.0000 0.0682447252
C   C52       1.0  0.05233  0.40361  0.08028  1.0000 0.0682447252
C   C53       1.0  0.05356  0.03058  0.63906  1.0000 -0.101468515
C   C54       1.0  0.94644  0.96942  0.36094  1.0000 -0.101468515
C   C55       1.0  0.94644  0.53058  0.86094  1.0000 -0.101468515
C   C56       1.0  0.05356  0.46942  0.13906  1.0000 -0.101468515
C   C57       1.0  0.98205  0.99961  0.65548  1.0000 -0.1211785574
C   C58       1.0  0.01795  0.00039  0.34452  1.0000 -0.1211785574
C   C59       1.0  0.01795  0.49961  0.84452  1.0000 -0.1211785574
C   C60       1.0  0.98205  0.50039  0.15548  1.0000 -0.1211785574
C   C61       1.0  0.90714  0.03453  0.61567  1.0000 0.0865351751
C   C62       1.0  0.09286  0.96547  0.38433  1.0000 0.0865351751
C   C63       1.0  0.09286  0.53453  0.88433  1.0000 0.0865351751
C   C64       1.0  0.90714  0.46547  0.11567  1.0000 0.0865351751
C   C65       1.0  0.90513  0.10060  0.55811  1.0000 -0.1292029836
C   C66       1.0  0.09487  0.89940  0.44189  1.0000 -0.1292029836
C   C67       1.0  0.09487  0.60060  0.94189  1.0000 -0.1292029836
C   C68       1.0  0.90513  0.39940  0.05811  1.0000 -0.1292029836
C   C69       1.0  0.97637  0.13021  0.53982  1.0000 -0.101468515
C   C70       1.0  0.02363  0.86979  0.46018  1.0000 -0.101468515
C   C71       1.0  0.02363  0.63021  0.96018  1.0000 -0.101468515
C   C72       1.0  0.97637  0.36979  0.03982  1.0000 -0.101468515
C   C73       1.0  0.83036  0.00270  0.63560  1.0000 -0.1211785574
C   C74       1.0  0.16964  0.99730  0.36440  1.0000 -0.1211785574
C   C75       1.0  0.16964  0.50270  0.86440  1.0000 -0.1211785574
C   C76       1.0  0.83036  0.49730  0.13560  1.0000 -0.1211785574
C   C77       1.0  0.84829  0.00962  0.79564  1.0000 -0.101468515
C   C78       1.0  0.15171  0.99038  0.20436  1.0000 -0.101468515
C   C79       1.0  0.15171  0.50962  0.70436  1.0000 -0.101468515
C   C80       1.0  0.84829  0.49038  0.29564  1.0000 -0.101468515
C   C81       1.0  0.83562  0.04467  0.87395  1.0000 0.3313208416
C   C82       1.0  0.16438  0.95533  0.12605  1.0000 0.3313208416
C   C83       1.0  0.16438  0.54467  0.62605  1.0000 0.3313208416
C   C84       1.0  0.83562  0.45533  0.37395  1.0000 0.3313208416
C   C85       1.0  0.78502  0.11456  0.86597  1.0000 -0.1556535567
C   C86       1.0  0.21498  0.88544  0.13403  1.0000 -0.151812537
C   C87       1.0  0.21498  0.61456  0.63403  1.0000 -0.1556535567
C   C88       1.0  0.78502  0.38544  0.36597  1.0000 -0.1556535567
C   C89       1.0  0.75140  0.14689  0.78324  1.0000 -0.0742549107
C   C90       1.0  0.24860  0.85311  0.21676  1.0000 -0.0742549107
C   C91       1.0  0.24860  0.64689  0.71676  1.0000 -0.0742549107
C   C92       1.0  0.75140  0.35311  0.28324  1.0000 -0.0742549107
C   C93       1.0  0.76660  0.11058  0.70808  1.0000 -0.0431733171
C   C94       1.0  0.23340  0.88942  0.29192  1.0000 -0.0431733171
C   C95       1.0  0.23340  0.61058  0.79192  1.0000 -0.0431733171
C   C96       1.0  0.76660  0.38942  0.20808  1.0000 -0.0431733171
C   C97       1.0  0.54560  0.34303  0.23129  1.0000 0.5385047987
C   C98       1.0  0.45440  0.65697  0.76871  1.0000 0.5385047987
C   C99       1.0  0.45440  0.84303  0.26871  1.0000 0.5385047987
C   C100      1.0  0.54560  0.15697  0.73129  1.0000 0.5385047987
C   C101      1.0  0.54885  0.27131  0.29036  1.0000 -0.0292016031
C   C102      1.0  0.45115  0.72869  0.70964  1.0000 -0.0292016031
C   C103      1.0  0.45115  0.77131  0.20964  1.0000 -0.0292016031
C   C104      1.0  0.54885  0.22869  0.79036  1.0000 -0.0292016031
C   C105      1.0  0.55960  0.28179  0.38150  1.0000 -0.0918298431
C   C106      1.0  0.44040  0.71821  0.61850  1.0000 -0.0918298431
C   C107      1.0  0.44040  0.78179  0.11850  1.0000 -0.0918298431
C   C108      1.0  0.55960  0.21821  0.88150  1.0000 -0.0918298431
C   C109      1.0  0.57058  0.21327  0.43610  1.0000 -0.0918298431
C   C110      1.0  0.42942  0.78673  0.56390  1.0000 -0.0918298431
C   C111      1.0  0.42942  0.71327  0.06390  1.0000 -0.0918298431
C   C112      1.0  0.57058  0.28673  0.93610  1.0000 -0.0918298431
C   C113      1.0  0.56958  0.13421  0.39941  1.0000 -0.0465524748
C   C114      1.0  0.43042  0.86579  0.60059  1.0000 -0.0465524748
C   C115      1.0  0.43042  0.63421  0.10059  1.0000 -0.0465524748
C   C116      1.0  0.56958  0.36579  0.89941  1.0000 -0.0465524748
C   C117      1.0  0.58088  0.06185  0.45934  1.0000 0.5838323578
C   C118      1.0  0.41912  0.93815  0.54066  1.0000 0.5838323578
C   C119      1.0  0.41912  0.56185  0.04066  1.0000 0.5838323578
C   C120      1.0  0.58088  0.43815  0.95934  1.0000 0.5838323578
C   C121      1.0  0.55641  0.12386  0.30789  1.0000 -0.101468515
C   C122      1.0  0.44359  0.87614  0.69211  1.0000 -0.101468515
C   C123      1.0  0.44359  0.62386  0.19211  1.0000 -0.101468515
C   C124      1.0  0.55641  0.37614  0.80789  1.0000 -0.101468515
C   C125      1.0  0.54655  0.19252  0.25380  1.0000 -0.0918298431
C   C126      1.0  0.45345  0.80748  0.74620  1.0000 -0.0918298431
C   C127      1.0  0.45345  0.69252  0.24620  1.0000 -0.0918298431
C   C128      1.0  0.54655  0.30748  0.75380  1.0000 -0.0918298431
C   C129      1.0  0.04726  0.62020  0.36570  1.0000 0.5838323578
C   C130      1.0  0.95274  0.37980  0.63430  1.0000 0.5838323578
C   C131      1.0  0.95274  0.12020  0.13430  1.0000 0.5838323578
C   C132      1.0  0.04726  0.87980  0.86570  1.0000 0.5838323578
C   C133      1.0  0.93716  0.71551  0.29218  1.0000 -0.101468515
C   C134      1.0  0.06284  0.28449  0.70782  1.0000 -0.101468515
C   C135      1.0  0.06284  0.21551  0.20782  1.0000 -0.101468515
C   C136      1.0  0.93716  0.78449  0.79218  1.0000 -0.101468515
C   C137      1.0  0.01622  0.68596  0.30085  1.0000 -0.0431733171
C   C138      1.0  0.98378  0.31404  0.69915  1.0000 -0.0431733171
C   C139      1.0  0.98378  0.18596  0.19915  1.0000 -0.0431733171
C   C140      1.0  0.01622  0.81404  0.80085  1.0000 -0.0431733171
C   C141      1.0  0.06711  0.71727  0.24946  1.0000 -0.101468515
C   C142      1.0  0.93289  0.28273  0.75054  1.0000 -0.101468515
C   C143      1.0  0.93289  0.21727  0.25054  1.0000 -0.101468515
C   C144      1.0  0.06711  0.78273  0.74946  1.0000 -0.101468515
C   C145      1.0  0.03908  0.78013  0.19075  1.0000 -0.0918298431
C   C146      1.0  0.96092  0.21987  0.80925  1.0000 -0.0918298431
C   C147      1.0  0.96092  0.28013  0.30925  1.0000 -0.0918298431
C   C148      1.0  0.03908  0.71987  0.69075  1.0000 -0.0918298431
C   C149      1.0  0.96114  0.81215  0.18466  1.0000 -0.0292016031
C   C150      1.0  0.03886  0.18785  0.81534  1.0000 -0.0292016031
C   C151      1.0  0.03886  0.31215  0.31534  1.0000 -0.0292016031
C   C152      1.0  0.96114  0.68785  0.68466  1.0000 -0.0292016031
C   C153      1.0  0.90966  0.77937  0.23426  1.0000 -0.0798129339
C   C154      1.0  0.09034  0.22063  0.76574  1.0000 -0.0798129339
C   C155      1.0  0.09034  0.27937  0.26574  1.0000 -0.0798129339
C   C156      1.0  0.90966  0.72063  0.73426  1.0000 -0.0798129339
C   C157      1.0  0.93474  0.88335  0.12578  1.0000 0.5891037926
C   C158      1.0  0.06526  0.11665  0.87422  1.0000 0.5891037926
C   C159      1.0  0.06526  0.38335  0.37422  1.0000 0.5891037926
C   C160      1.0  0.93474  0.61665  0.62578  1.0000 0.5891037926
C   C161      1.0  0.67054  0.99137  0.00998  1.0000 0.5533329442
C   C162      1.0  0.32946  0.00863  0.99002  1.0000 0.5533329442
C   C163      1.0  0.32946  0.49137  0.49002  1.0000 0.5533329442
C   C164      1.0  0.67054  0.50863  0.50998  1.0000 0.5533329442
C   C165      1.0  0.58244  0.99523  0.00526  1.0000 -0.0292016031
C   C166      1.0  0.41756  0.00477  0.99474  1.0000 -0.0292016031
C   C167      1.0  0.41756  0.49523  0.49474  1.0000 -0.0292016031
C   C168      1.0  0.58244  0.50477  0.50526  1.0000 -0.0292016031
C   C169      1.0  0.55362  0.04653  0.06344  1.0000 -0.0918298431
C   C170      1.0  0.44638  0.95347  0.93656  1.0000 -0.0918298431
C   C171      1.0  0.44638  0.54653  0.43656  1.0000 -0.0918298431
C   C172      1.0  0.55362  0.45347  0.56344  1.0000 -0.0918298431
C   C173      1.0  0.52910  0.94866  0.94205  1.0000 -0.0918298431
C   C174      1.0  0.47090  0.05134  0.05795  1.0000 -0.0918298431
C   C175      1.0  0.47090  0.44866  0.55795  1.0000 -0.0918298431
C   C176      1.0  0.52910  0.55134  0.44205  1.0000 -0.0918298431
N   N1        1.0  0.37323  0.06006  0.32581  1.0000 -0.2450875744
N   N2        1.0  0.62677  0.93994  0.67419  1.0000 -0.2448971972
N   N3        1.0  0.62677  0.56006  0.17419  1.0000 -0.2448971972
N   N4        1.0  0.37323  0.43994  0.82581  1.0000 -0.2450875744
N   N5        1.0  0.81404  0.04230  0.71632  1.0000 0.1286125009
N   N6        1.0  0.18596  0.95770  0.28368  1.0000 0.1286125009
N   N7        1.0  0.18596  0.54230  0.78368  1.0000 0.1286125009
N   N8        1.0  0.81404  0.45770  0.21632  1.0000 0.1286125009
O   O1        1.0  0.55563  0.41547  0.26406  1.0000 -0.5442893312
O   O2        1.0  0.44437  0.58453  0.73594  1.0000 -0.5442893312
O   O3        1.0  0.44437  0.91547  0.23594  1.0000 -0.5442893312
O   O4        1.0  0.55563  0.08453  0.76406  1.0000 -0.5442893312
O   O5        1.0  0.53740  0.33071  0.14845  1.0000 -0.5480287428
O   O6        1.0  0.46260  0.66929  0.85155  1.0000 -0.5480287428
O   O7        1.0  0.46260  0.83071  0.35155  1.0000 -0.5480287428
O   O8        1.0  0.53740  0.16929  0.64845  1.0000 -0.5480287428
O   O9        1.0  0.61882  0.07356  0.53890  1.0000 -0.5480287428
O   O10       1.0  0.38118  0.92644  0.46110  1.0000 -0.5480287428
O   O11       1.0  0.38118  0.57356  0.96110  1.0000 -0.5480287428
O   O12       1.0  0.61882  0.42644  0.03890  1.0000 -0.5480287428
O   O13       1.0  0.55275  0.99098  0.43023  1.0000 -0.566231589
O   O14       1.0  0.44725  0.00902  0.56977  1.0000 -0.566231589
O   O15       1.0  0.44725  0.49098  0.06977  1.0000 -0.566231589
O   O16       1.0  0.55275  0.50902  0.93023  1.0000 -0.566231589
O   O17       1.0  0.98593  0.91010  0.08486  1.0000 -0.5627582377
O   O18       1.0  0.01407  0.08990  0.91514  1.0000 -0.5627582377
O   O19       1.0  0.01407  0.41010  0.41514  1.0000 -0.5627582377
O   O20       1.0  0.98593  0.58990  0.58486  1.0000 -0.5627582377
O   O21       1.0  0.86291  0.91094  0.12210  1.0000 -0.5480287428
O   O22       1.0  0.13709  0.08906  0.87790  1.0000 -0.5480287428
O   O23       1.0  0.13709  0.41094  0.37790  1.0000 -0.5480287428
O   O24       1.0  0.86291  0.58906  0.62210  1.0000 -0.5480287428
O   O25       1.0  0.12229  0.60221  0.37485  1.0000 -0.5480287428
O   O26       1.0  0.87771  0.39779  0.62515  1.0000 -0.5480287428
O   O27       1.0  0.87771  0.10221  0.12515  1.0000 -0.5480287428
O   O28       1.0  0.12229  0.89779  0.87485  1.0000 -0.5480287428
O   O29       1.0  0.99656  0.58832  0.40456  1.0000 -0.5627582377
O   O30       1.0  0.00344  0.41168  0.59544  1.0000 -0.5627582377
O   O31       1.0  0.00344  0.08832  0.09544  1.0000 -0.5627582377
O   O32       1.0  0.99656  0.91168  0.90456  1.0000 -0.5627582377
O   O33       1.0  0.70004  0.93961  0.96578  1.0000 -0.5480287428
O   O34       1.0  0.29996  0.06039  0.03422  1.0000 -0.5480287428
O   O35       1.0  0.29996  0.43961  0.53422  1.0000 -0.5480287428
O   O36       1.0  0.70004  0.56039  0.46578  1.0000 -0.5480287428
O   O37       1.0  0.71512  0.04440  0.06169  1.0000 -0.5480287428
O   O38       1.0  0.28488  0.95560  0.93831  1.0000 -0.5480287428
O   O39       1.0  0.28488  0.54440  0.43831  1.0000 -0.5480287428
O   O40       1.0  0.71512  0.45560  0.56169  1.0000 -0.5480287428
O   O41       1.0  0.87072  0.01127  0.94981  1.0000 -0.5627582377
O   O42       1.0  0.12928  0.98873  0.05019  1.0000 -0.5627582377
O   O43       1.0  0.12928  0.51127  0.55019  1.0000 -0.5627582377
O   O44       1.0  0.87072  0.48873  0.44981  1.0000 -0.5627582377
O   O45       1.0  0.33609  0.25863  0.41993  1.0000 -0.1818706647
O   O46       1.0  0.66391  0.74137  0.58007  1.0000 -0.1818706647
O   O47       1.0  0.66391  0.75863  0.08007  1.0000 -0.1818706647
O   O48       1.0  0.33609  0.24137  0.91993  1.0000 -0.1818706647
