# DDEC6 charges by PACMAN v1.1 (https://github.com/mtap-research/PACMAN-charge/)
data_2007[ErRu][tfi]3[ASR]1
_chemical_formula_sum              "Er2 P8 H16 Ru4 C8 O28"
_cell_length_a       9.53211
_cell_length_b       9.53211
_cell_length_c       15.451
_cell_angle_alpha    87.1349
_cell_angle_beta     92.8651
_cell_angle_gamma    80.9588

_symmetry_space_group_name_H-M    "P 1"
_symmetry_Int_Tables_number       1

loop_
  _symmetry_equiv_pos_as_xyz
  'x, y, z'

loop_
  _atom_site_type_symbol
  _atom_site_label
  _atom_site_symmetry_multiplicity
  _atom_site_fract_x
  _atom_site_fract_y
  _atom_site_fract_z
  _atom_site_occupancy
  _atom_site_charge
Er  Er1       1.0  0.98914  0.98914  0.75000  1.0000 2.1435171463
Er  Er2       1.0  0.01086  0.01086  0.25000  1.0000 2.1290992595
P   P1        1.0  0.04491  0.64607  0.64596  1.0000 1.2030550338
P   P2        1.0  0.64607  0.04491  0.85404  1.0000 1.2030550338
P   P3        1.0  0.95509  0.35393  0.35404  1.0000 1.2030550338
P   P4        1.0  0.35393  0.95509  0.14596  1.0000 1.2030550338
P   P5        1.0  0.97627  0.34835  0.65429  1.0000 1.1938898959
P   P6        1.0  0.34835  0.97627  0.84571  1.0000 1.1938898959
P   P7        1.0  0.02373  0.65165  0.34571  1.0000 1.1938898959
P   P8        1.0  0.65165  0.02373  0.15429  1.0000 1.1938898959
H   H1        1.0  0.82960  0.57960  0.73250  1.0000 0.3483709045
H   H2        1.0  0.57960  0.82960  0.76750  1.0000 0.3483709045
H   H3        1.0  0.17040  0.42040  0.26750  1.0000 0.3483709045
H   H4        1.0  0.42040  0.17040  0.23250  1.0000 0.3483709045
H   H5        1.0  0.15900  0.52800  0.81430  1.0000 0.1510257892
H   H6        1.0  0.52800  0.15900  0.68570  1.0000 0.1510257892
H   H7        1.0  0.84100  0.47200  0.18570  1.0000 0.1510257892
H   H8        1.0  0.47200  0.84100  0.31430  1.0000 0.1510257892
H   H9        1.0  0.12620  0.36840  0.81650  1.0000 0.1625205375
H   H10       1.0  0.36840  0.12620  0.68350  1.0000 0.1625205375
H   H11       1.0  0.87380  0.63160  0.18350  1.0000 0.1625205375
H   H12       1.0  0.63160  0.87380  0.31650  1.0000 0.1625205375
H   H13       1.0  0.22520  0.42100  0.74500  1.0000 0.1510257892
H   H14       1.0  0.42100  0.22520  0.75500  1.0000 0.1510257892
H   H15       1.0  0.77480  0.57900  0.25500  1.0000 0.1510257892
H   H16       1.0  0.57900  0.77480  0.24500  1.0000 0.1510257892
Ru  Ru1       1.0  0.12164  0.45432  0.50190  1.0000 0.8918331511
Ru  Ru2       1.0  0.45432  0.12164  0.99810  1.0000 0.8918331511
Ru  Ru3       1.0  0.87836  0.54568  0.49810  1.0000 0.8918331511
Ru  Ru4       1.0  0.54568  0.87836  0.00190  1.0000 0.8918331511
C   C1        1.0  0.01670  0.49530  0.71970  1.0000 -0.173818776
C   C2        1.0  0.49530  0.01670  0.78030  1.0000 -0.173818776
C   C3        1.0  0.98330  0.50470  0.28030  1.0000 -0.173818776
C   C4        1.0  0.50470  0.98330  0.21970  1.0000 -0.173818776
C   C5        1.0  0.14220  0.44940  0.77870  1.0000 -0.4152579508
C   C6        1.0  0.44940  0.14220  0.72130  1.0000 -0.4136257671
C   C7        1.0  0.85780  0.55060  0.22130  1.0000 -0.4152579508
C   C8        1.0  0.55060  0.85780  0.27870  1.0000 -0.4152579508
O   O1        1.0  0.16780  0.59140  0.58960  1.0000 -0.6036722762
O   O2        1.0  0.59140  0.16780  0.91040  1.0000 -0.6050500773
O   O3        1.0  0.83220  0.40860  0.41040  1.0000 -0.6036722762
O   O4        1.0  0.40860  0.83220  0.08960  1.0000 -0.6036722762
O   O5        1.0  0.90970  0.69110  0.58610  1.0000 -0.6689883522
O   O6        1.0  0.69110  0.90970  0.91390  1.0000 -0.6689883522
O   O7        1.0  0.09030  0.30890  0.41390  1.0000 -0.6689883522
O   O8        1.0  0.30890  0.09030  0.08610  1.0000 -0.6689883522
O   O9        1.0  0.07410  0.76690  0.69950  1.0000 -0.8394869469
O   O10       1.0  0.76690  0.07410  0.80050  1.0000 -0.8394869469
O   O11       1.0  0.92590  0.23310  0.30050  1.0000 -0.8394869469
O   O12       1.0  0.23310  0.92590  0.19950  1.0000 -0.8394869469
O   O13       1.0  0.10430  0.30870  0.59870  1.0000 -0.6403177113
O   O14       1.0  0.30870  0.10430  0.90130  1.0000 -0.6403177113
O   O15       1.0  0.89570  0.69130  0.40130  1.0000 -0.6403177113
O   O16       1.0  0.69130  0.89570  0.09870  1.0000 -0.634415736
O   O17       1.0  0.84180  0.40560  0.59420  1.0000 -0.6403177113
O   O18       1.0  0.40560  0.84180  0.90580  1.0000 -0.6403177113
O   O19       1.0  0.15820  0.59440  0.40580  1.0000 -0.6403177113
O   O20       1.0  0.59440  0.15820  0.09420  1.0000 -0.6403177113
O   O21       1.0  0.95500  0.22740  0.71480  1.0000 -0.8394869469
O   O22       1.0  0.22740  0.95500  0.78520  1.0000 -0.8394869469
O   O23       1.0  0.04500  0.77260  0.28520  1.0000 -0.8394869469
O   O24       1.0  0.77260  0.04500  0.21480  1.0000 -0.8394869469
O   O25       1.0  0.90010  0.54930  0.76740  1.0000 -0.3500676207
O   O26       1.0  0.54930  0.90010  0.73260  1.0000 -0.3500676207
O   O27       1.0  0.09990  0.45070  0.23260  1.0000 -0.3500676207
O   O28       1.0  0.45070  0.09990  0.26740  1.0000 -0.3500676207
