# DDEC6 charges by PACMAN v1.1 (https://github.com/mtap-research/PACMAN-charge/)
data_2007[Zn][dia]3[ASR]1
_chemical_formula_sum              "Zn4 H80 C80 S8 N8 O16"
_cell_length_a       14.8219
_cell_length_b       14.8219
_cell_length_c       11.5312
_cell_angle_alpha    90
_cell_angle_beta     90
_cell_angle_gamma    90

_symmetry_space_group_name_H-M    "P 1"
_symmetry_Int_Tables_number       1

loop_
  _symmetry_equiv_pos_as_xyz
  'x, y, z'

loop_
  _atom_site_type_symbol
  _atom_site_label
  _atom_site_symmetry_multiplicity
  _atom_site_fract_x
  _atom_site_fract_y
  _atom_site_fract_z
  _atom_site_occupancy
  _atom_site_charge
Zn  Zn1       1.0  0.88747  0.11253  0.25000  1.0000 0.8119951515
Zn  Zn2       1.0  0.11253  0.88747  0.75000  1.0000 0.8119951515
Zn  Zn3       1.0  0.61253  0.61253  0.50000  1.0000 0.8119951515
Zn  Zn4       1.0  0.38747  0.38747  0.00000  1.0000 0.8119951515
H   H1        1.0  0.91060  0.63350  0.56140  1.0000 0.1642964808
H   H2        1.0  0.08940  0.36650  0.06140  1.0000 0.1642964808
H   H3        1.0  0.58940  0.13350  0.18860  1.0000 0.1642964808
H   H4        1.0  0.41060  0.86650  0.68860  1.0000 0.1642964808
H   H5        1.0  0.36650  0.08940  0.93860  1.0000 0.1642964808
H   H6        1.0  0.63350  0.91060  0.43860  1.0000 0.1642964808
H   H7        1.0  0.86650  0.41060  0.31140  1.0000 0.1642964808
H   H8        1.0  0.13350  0.58940  0.81140  1.0000 0.1642964808
H   H9        1.0  0.94630  0.59230  0.44160  1.0000 0.1484501731
H   H10       1.0  0.05370  0.40770  0.94160  1.0000 0.1484501731
H   H11       1.0  0.55370  0.09230  0.30840  1.0000 0.1484501731
H   H12       1.0  0.44630  0.90770  0.80840  1.0000 0.1484501731
H   H13       1.0  0.40770  0.05370  0.05840  1.0000 0.1484501731
H   H14       1.0  0.59230  0.94630  0.55840  1.0000 0.1484501731
H   H15       1.0  0.90770  0.44630  0.19160  1.0000 0.1484501731
H   H16       1.0  0.09230  0.55370  0.69160  1.0000 0.1484501731
H   H17       1.0  0.93020  0.69870  0.45370  1.0000 0.1484501731
H   H18       1.0  0.06980  0.30130  0.95370  1.0000 0.1484501731
H   H19       1.0  0.56980  0.19870  0.29630  1.0000 0.1484501731
H   H20       1.0  0.43020  0.80130  0.79630  1.0000 0.1484501731
H   H21       1.0  0.30130  0.06980  0.04630  1.0000 0.1484501731
H   H22       1.0  0.69870  0.93020  0.54630  1.0000 0.1484501731
H   H23       1.0  0.80130  0.43020  0.20370  1.0000 0.1484501731
H   H24       1.0  0.19870  0.56980  0.70370  1.0000 0.1484501731
H   H25       1.0  0.70900  0.68870  0.11150  1.0000 0.1484501731
H   H26       1.0  0.29100  0.31130  0.61150  1.0000 0.1484501731
H   H27       1.0  0.79100  0.18870  0.63850  1.0000 0.1484501731
H   H28       1.0  0.20900  0.81130  0.13850  1.0000 0.1484501731
H   H29       1.0  0.31130  0.29100  0.38850  1.0000 0.1484501731
H   H30       1.0  0.68870  0.70900  0.88850  1.0000 0.1484501731
H   H31       1.0  0.81130  0.20900  0.86150  1.0000 0.1484501731
H   H32       1.0  0.18870  0.79100  0.36150  1.0000 0.1484501731
H   H33       1.0  0.73090  0.58350  0.09790  1.0000 0.1484501731
H   H34       1.0  0.26910  0.41650  0.59790  1.0000 0.1484501731
H   H35       1.0  0.76910  0.08350  0.65210  1.0000 0.1484501731
H   H36       1.0  0.23090  0.91650  0.15210  1.0000 0.1484501731
H   H37       1.0  0.41650  0.26910  0.40210  1.0000 0.1484501731
H   H38       1.0  0.58350  0.73090  0.90210  1.0000 0.1484501731
H   H39       1.0  0.91650  0.23090  0.84790  1.0000 0.1484501731
H   H40       1.0  0.08350  0.76910  0.34790  1.0000 0.1484501731
H   H41       1.0  0.62920  0.61620  0.11820  1.0000 0.1484501731
H   H42       1.0  0.37080  0.38380  0.61820  1.0000 0.1484501731
H   H43       1.0  0.87080  0.11620  0.63180  1.0000 0.1484501731
H   H44       1.0  0.12920  0.88380  0.13180  1.0000 0.1484501731
H   H45       1.0  0.38380  0.37080  0.38180  1.0000 0.1484501731
H   H46       1.0  0.61620  0.62920  0.88180  1.0000 0.1484501731
H   H47       1.0  0.88380  0.12920  0.86820  1.0000 0.1484501731
H   H48       1.0  0.11620  0.87080  0.36820  1.0000 0.1484501731
H   H49       1.0  0.78160  0.80000  0.34770  1.0000 0.1484501731
H   H50       1.0  0.21840  0.20000  0.84770  1.0000 0.1484501731
H   H51       1.0  0.71840  0.30000  0.40230  1.0000 0.1484501731
H   H52       1.0  0.28160  0.70000  0.90230  1.0000 0.1484501731
H   H53       1.0  0.20000  0.21840  0.15230  1.0000 0.1484501731
H   H54       1.0  0.80000  0.78160  0.65230  1.0000 0.1484501731
H   H55       1.0  0.70000  0.28160  0.09770  1.0000 0.1484501731
H   H56       1.0  0.30000  0.71840  0.59770  1.0000 0.1484501731
H   H57       1.0  0.78760  0.95530  0.34620  1.0000 0.1104004005
H   H58       1.0  0.21240  0.04470  0.84620  1.0000 0.1104004005
H   H59       1.0  0.71240  0.45530  0.40380  1.0000 0.1104004005
H   H60       1.0  0.28760  0.54470  0.90380  1.0000 0.1104004005
H   H61       1.0  0.04470  0.21240  0.15380  1.0000 0.1104004005
H   H62       1.0  0.95530  0.78760  0.65380  1.0000 0.1104004005
H   H63       1.0  0.54470  0.28760  0.09620  1.0000 0.1104004005
H   H64       1.0  0.45530  0.71240  0.59620  1.0000 0.1104004005
H   H65       1.0  0.97730  0.95490  0.10820  1.0000 0.1104004005
H   H66       1.0  0.02270  0.04510  0.60820  1.0000 0.1104004005
H   H67       1.0  0.52270  0.45490  0.64180  1.0000 0.1104004005
H   H68       1.0  0.47730  0.54510  0.14180  1.0000 0.1104004005
H   H69       1.0  0.04510  0.02270  0.39180  1.0000 0.1104004005
H   H70       1.0  0.95490  0.97730  0.89180  1.0000 0.1104004005
H   H71       1.0  0.54510  0.47730  0.85820  1.0000 0.1104004005
H   H72       1.0  0.45490  0.52270  0.35820  1.0000 0.1104004005
H   H73       1.0  0.97660  0.79920  0.10040  1.0000 0.1484501731
H   H74       1.0  0.02340  0.20080  0.60040  1.0000 0.1484501731
H   H75       1.0  0.52340  0.29920  0.64960  1.0000 0.1484501731
H   H76       1.0  0.47660  0.70080  0.14960  1.0000 0.1484501731
H   H77       1.0  0.20080  0.02340  0.39960  1.0000 0.1484501731
H   H78       1.0  0.79920  0.97660  0.89960  1.0000 0.1484501731
H   H79       1.0  0.70080  0.47660  0.85040  1.0000 0.1484501731
H   H80       1.0  0.29920  0.52340  0.35040  1.0000 0.1484501731
C   C1        1.0  0.90823  0.63890  0.47680  1.0000 -0.5631029801
C   C2        1.0  0.09177  0.36110  0.97680  1.0000 -0.5631029801
C   C3        1.0  0.59177  0.13890  0.27320  1.0000 -0.5631029801
C   C4        1.0  0.40823  0.86110  0.77320  1.0000 -0.5631029801
C   C5        1.0  0.36110  0.09177  0.02320  1.0000 -0.5631029801
C   C6        1.0  0.63890  0.90823  0.52320  1.0000 -0.5631029801
C   C7        1.0  0.86110  0.40823  0.22680  1.0000 -0.5631029801
C   C8        1.0  0.13890  0.59177  0.72680  1.0000 -0.5631029801
C   C9        1.0  0.81215  0.62727  0.43620  1.0000 0.4550511269
C   C10       1.0  0.18785  0.37273  0.93620  1.0000 0.4550511269
C   C11       1.0  0.68785  0.12727  0.31380  1.0000 0.4550511269
C   C12       1.0  0.31215  0.87273  0.81380  1.0000 0.4550511269
C   C13       1.0  0.37273  0.18785  0.06380  1.0000 0.4550511269
C   C14       1.0  0.62727  0.81215  0.56380  1.0000 0.4550511269
C   C15       1.0  0.87273  0.31215  0.18620  1.0000 0.4550511269
C   C16       1.0  0.12727  0.68785  0.68620  1.0000 0.4550511269
C   C17       1.0  0.79283  0.63377  0.31470  1.0000 -0.3130240114
C   C18       1.0  0.20717  0.36623  0.81470  1.0000 -0.3130240114
C   C19       1.0  0.70717  0.13377  0.43530  1.0000 -0.3130240114
C   C20       1.0  0.29283  0.86623  0.93530  1.0000 -0.3130240114
C   C21       1.0  0.36623  0.20717  0.18530  1.0000 -0.3130240114
C   C22       1.0  0.63377  0.79283  0.68530  1.0000 -0.3130240114
C   C23       1.0  0.86623  0.29283  0.06470  1.0000 -0.3130240114
C   C24       1.0  0.13377  0.70717  0.56470  1.0000 -0.3130240114
C   C25       1.0  0.70573  0.62052  0.26580  1.0000 0.4538286059
C   C26       1.0  0.29427  0.37948  0.76580  1.0000 0.4538286059
C   C27       1.0  0.79427  0.12052  0.48420  1.0000 0.4538286059
C   C28       1.0  0.20573  0.87948  0.98420  1.0000 0.4538286059
C   C29       1.0  0.37948  0.29427  0.23420  1.0000 0.4538286059
C   C30       1.0  0.62052  0.70573  0.73420  1.0000 0.4538286059
C   C31       1.0  0.87948  0.20573  0.01580  1.0000 0.4538286059
C   C32       1.0  0.12052  0.79427  0.51580  1.0000 0.4538286059
C   C33       1.0  0.69260  0.62790  0.13720  1.0000 -0.5537882121
C   C34       1.0  0.30740  0.37210  0.63720  1.0000 -0.5537882121
C   C35       1.0  0.80740  0.12790  0.61280  1.0000 -0.5537882121
C   C36       1.0  0.19260  0.87210  0.11280  1.0000 -0.5537882121
C   C37       1.0  0.37210  0.30740  0.36280  1.0000 -0.5537882121
C   C38       1.0  0.62790  0.69260  0.86280  1.0000 -0.5537882121
C   C39       1.0  0.87210  0.19260  0.88720  1.0000 -0.5537882121
C   C40       1.0  0.12790  0.80740  0.38720  1.0000 -0.5537882121
C   C41       1.0  0.87895  0.78162  0.22340  1.0000 0.1104004005
C   C42       1.0  0.12105  0.21838  0.72340  1.0000 0.1104004005
C   C43       1.0  0.62105  0.28162  0.52660  1.0000 0.1104004005
C   C44       1.0  0.37895  0.71838  0.02660  1.0000 0.1104004005
C   C45       1.0  0.21838  0.12105  0.27660  1.0000 0.1104004005
C   C46       1.0  0.78162  0.87895  0.77660  1.0000 0.1104004005
C   C47       1.0  0.71838  0.37895  0.97340  1.0000 0.1104004005
C   C48       1.0  0.28162  0.62105  0.47340  1.0000 0.1104004005
C   C49       1.0  0.82248  0.83034  0.29770  1.0000 -0.1873415233
C   C50       1.0  0.17752  0.16966  0.79770  1.0000 -0.1873415233
C   C51       1.0  0.67752  0.33034  0.45230  1.0000 -0.1873415233
C   C52       1.0  0.32248  0.66966  0.95230  1.0000 -0.1873415233
C   C53       1.0  0.16966  0.17752  0.20230  1.0000 -0.1873415233
C   C54       1.0  0.83034  0.82248  0.70230  1.0000 -0.1873415233
C   C55       1.0  0.66966  0.32248  0.04770  1.0000 -0.1873415233
C   C56       1.0  0.33034  0.67752  0.54770  1.0000 -0.1873415233
C   C57       1.0  0.82730  0.92278  0.29690  1.0000 0.0967865745
C   C58       1.0  0.17270  0.07722  0.79690  1.0000 0.0967865745
C   C59       1.0  0.67270  0.42278  0.45310  1.0000 0.0967865745
C   C60       1.0  0.32730  0.57722  0.95310  1.0000 0.0967865745
C   C61       1.0  0.07722  0.17270  0.20310  1.0000 0.0967865745
C   C62       1.0  0.92278  0.82730  0.70310  1.0000 0.0967865745
C   C63       1.0  0.57722  0.32730  0.04690  1.0000 0.0967865745
C   C64       1.0  0.42278  0.67270  0.54690  1.0000 0.0967865745
C   C65       1.0  0.93772  0.92268  0.15800  1.0000 0.0721210344
C   C66       1.0  0.06228  0.07732  0.65800  1.0000 0.0721210344
C   C67       1.0  0.56228  0.42268  0.59200  1.0000 0.0721210344
C   C68       1.0  0.43772  0.57732  0.09200  1.0000 0.0721210344
C   C69       1.0  0.07732  0.06228  0.34200  1.0000 0.0721210344
C   C70       1.0  0.92268  0.93772  0.84200  1.0000 0.0721210344
C   C71       1.0  0.57732  0.43772  0.90800  1.0000 0.0721210344
C   C72       1.0  0.42268  0.56228  0.40800  1.0000 0.0721210344
C   C73       1.0  0.93737  0.82992  0.15230  1.0000 -0.2001482592
C   C74       1.0  0.06263  0.17008  0.65230  1.0000 -0.2001482592
C   C75       1.0  0.56263  0.32992  0.59770  1.0000 -0.2001482592
C   C76       1.0  0.43737  0.67008  0.09770  1.0000 -0.2001482592
C   C77       1.0  0.17008  0.06263  0.34770  1.0000 -0.2001482592
C   C78       1.0  0.82992  0.93737  0.84770  1.0000 -0.2001482592
C   C79       1.0  0.67008  0.43737  0.90230  1.0000 -0.2001482592
C   C80       1.0  0.32992  0.56263  0.40230  1.0000 -0.2001482592
S   S1        1.0  0.88142  0.66294  0.22021  1.0000 0.0075400344
S   S2        1.0  0.11858  0.33706  0.72021  1.0000 0.0075400344
S   S3        1.0  0.61858  0.16294  0.52979  1.0000 0.0075400344
S   S4        1.0  0.38142  0.83706  0.02979  1.0000 0.0075400344
S   S5        1.0  0.33706  0.11858  0.27979  1.0000 0.004784402
S   S6        1.0  0.66294  0.88142  0.77979  1.0000 0.0075400344
S   S7        1.0  0.83706  0.38142  0.97021  1.0000 0.0075400344
S   S8        1.0  0.16294  0.61858  0.47021  1.0000 0.0075400344
N   N1        1.0  0.88477  0.96999  0.23060  1.0000 -0.2466073101
N   N2        1.0  0.11523  0.03001  0.73060  1.0000 -0.2466073101
N   N3        1.0  0.61523  0.46999  0.51940  1.0000 -0.2466073101
N   N4        1.0  0.38477  0.53001  0.01940  1.0000 -0.2466073101
N   N5        1.0  0.03001  0.11523  0.26940  1.0000 -0.2466073101
N   N6        1.0  0.96999  0.88477  0.76940  1.0000 -0.2466073101
N   N7        1.0  0.53001  0.38477  0.98060  1.0000 -0.2466073101
N   N8        1.0  0.46999  0.61523  0.48060  1.0000 -0.2466073101
O   O1        1.0  0.75395  0.61299  0.51287  1.0000 -0.4631986142
O   O2        1.0  0.24605  0.38701  0.01287  1.0000 -0.4631986142
O   O3        1.0  0.74605  0.11299  0.23713  1.0000 -0.4631986142
O   O4        1.0  0.25395  0.88701  0.73713  1.0000 -0.4631986142
O   O5        1.0  0.38701  0.24605  0.98713  1.0000 -0.4631986142
O   O6        1.0  0.61299  0.75395  0.48713  1.0000 -0.4631986142
O   O7        1.0  0.88701  0.25395  0.26287  1.0000 -0.4631986142
O   O8        1.0  0.11299  0.74605  0.76287  1.0000 -0.4631986142
O   O9        1.0  0.63513  0.60267  0.32397  1.0000 -0.4984184811
O   O10       1.0  0.36487  0.39733  0.82397  1.0000 -0.4984184811
O   O11       1.0  0.86487  0.10267  0.42603  1.0000 -0.4984184811
O   O12       1.0  0.13513  0.89733  0.92603  1.0000 -0.4984184811
O   O13       1.0  0.39733  0.36487  0.17603  1.0000 -0.4984184811
O   O14       1.0  0.60267  0.63513  0.67603  1.0000 -0.4984184811
O   O15       1.0  0.89733  0.13513  0.07397  1.0000 -0.4984184811
O   O16       1.0  0.10267  0.86487  0.57397  1.0000 -0.4984184811
