# DDEC6 charges by PACMAN v1.1 (https://github.com/mtap-research/PACMAN-charge/)
data_2007[Cu][dia]3[ASR]2
_chemical_formula_sum              "Cu6 H64 C96 N12 O16"
_cell_length_a       14.8571
_cell_length_b       14.8571
_cell_length_c       13.3952
_cell_angle_alpha    75.3449
_cell_angle_beta     104.655
_cell_angle_gamma    79.9745

_symmetry_space_group_name_H-M    "P 1"
_symmetry_Int_Tables_number       1

loop_
  _symmetry_equiv_pos_as_xyz
  'x, y, z'

loop_
  _atom_site_type_symbol
  _atom_site_label
  _atom_site_symmetry_multiplicity
  _atom_site_fract_x
  _atom_site_fract_y
  _atom_site_fract_z
  _atom_site_occupancy
  _atom_site_charge
Cu  Cu1       1.0  0.74080  0.73250  0.44304  1.0000 0.7469869971
Cu  Cu2       1.0  0.73250  0.74080  0.05696  1.0000 0.7469869971
Cu  Cu3       1.0  0.25920  0.26750  0.55696  1.0000 0.7469869971
Cu  Cu4       1.0  0.26750  0.25920  0.94304  1.0000 0.7469869971
Cu  Cu5       1.0  0.63126  0.63126  0.25000  1.0000 0.806795907
Cu  Cu6       1.0  0.36874  0.36874  0.75000  1.0000 0.806795907
H   H1        1.0  0.81630  0.89970  0.32250  1.0000 0.107412517
H   H2        1.0  0.89970  0.81630  0.17750  1.0000 0.107412517
H   H3        1.0  0.18370  0.10030  0.67750  1.0000 0.107412517
H   H4        1.0  0.10030  0.18370  0.82250  1.0000 0.107412517
H   H5        1.0  0.95110  0.95770  0.36470  1.0000 0.1195552713
H   H6        1.0  0.95770  0.95110  0.13530  1.0000 0.1195552713
H   H7        1.0  0.04890  0.04230  0.63530  1.0000 0.1195552713
H   H8        1.0  0.04230  0.04890  0.86470  1.0000 0.1195552713
H   H9        1.0  0.07070  0.88270  0.52690  1.0000 0.1195552713
H   H10       1.0  0.88270  0.07070  0.97310  1.0000 0.1195552713
H   H11       1.0  0.92930  0.11730  0.47310  1.0000 0.1195552713
H   H12       1.0  0.11730  0.92930  0.02690  1.0000 0.1195552713
H   H13       1.0  0.13270  0.74430  0.70890  1.0000 0.1195552713
H   H14       1.0  0.74430  0.13270  0.79110  1.0000 0.1195552713
H   H15       1.0  0.86730  0.25570  0.29110  1.0000 0.1195552713
H   H16       1.0  0.25570  0.86730  0.20890  1.0000 0.1195552713
H   H17       1.0  0.11050  0.61570  0.82040  1.0000 0.1405434392
H   H18       1.0  0.61570  0.11050  0.67960  1.0000 0.1405434392
H   H19       1.0  0.88950  0.38430  0.17960  1.0000 0.1405434392
H   H20       1.0  0.38430  0.88950  0.32040  1.0000 0.1405434392
H   H21       1.0  0.00330  0.49690  0.85470  1.0000 0.1405434392
H   H22       1.0  0.49690  0.00330  0.64530  1.0000 0.1405434392
H   H23       1.0  0.99670  0.50310  0.14530  1.0000 0.1405434392
H   H24       1.0  0.50310  0.99670  0.35470  1.0000 0.1405434392
H   H25       1.0  0.86650  0.45010  0.78860  1.0000 0.1277974478
H   H26       1.0  0.45010  0.86650  0.71140  1.0000 0.1277974478
H   H27       1.0  0.13350  0.54990  0.21140  1.0000 0.1277974478
H   H28       1.0  0.54990  0.13350  0.28860  1.0000 0.1277974478
H   H29       1.0  0.75690  0.54150  0.62020  1.0000 0.107412517
H   H30       1.0  0.54150  0.75690  0.87980  1.0000 0.107412517
H   H31       1.0  0.24310  0.45850  0.37980  1.0000 0.107412517
H   H32       1.0  0.45850  0.24310  0.12020  1.0000 0.107412517
H   H33       1.0  0.42910  0.77650  0.12130  1.0000 0.107412517
H   H34       1.0  0.77650  0.42910  0.37870  1.0000 0.107412517
H   H35       1.0  0.57090  0.22350  0.87870  1.0000 0.107412517
H   H36       1.0  0.22350  0.57090  0.62130  1.0000 0.107412517
H   H37       1.0  0.27290  0.76250  0.06320  1.0000 0.1195552713
H   H38       1.0  0.76250  0.27290  0.43680  1.0000 0.1195552713
H   H39       1.0  0.72710  0.23750  0.93680  1.0000 0.1195552713
H   H40       1.0  0.23750  0.72710  0.56320  1.0000 0.1195552713
H   H41       1.0  0.24000  0.61500  0.10470  1.0000 0.1195552713
H   H42       1.0  0.61500  0.24000  0.39530  1.0000 0.1195552713
H   H43       1.0  0.76000  0.38500  0.89530  1.0000 0.1195552713
H   H44       1.0  0.38500  0.76000  0.60470  1.0000 0.1195552713
H   H45       1.0  0.30450  0.43190  0.20100  1.0000 0.1195552713
H   H46       1.0  0.43190  0.30450  0.29900  1.0000 0.1195552713
H   H47       1.0  0.69550  0.56810  0.79900  1.0000 0.1195552713
H   H48       1.0  0.56810  0.69550  0.70100  1.0000 0.1195552713
H   H49       1.0  0.42950  0.65390  0.42710  1.0000 0.1195552713
H   H50       1.0  0.65390  0.42950  0.07290  1.0000 0.1195552713
H   H51       1.0  0.57050  0.34610  0.57290  1.0000 0.1195552713
H   H52       1.0  0.34610  0.57050  0.92710  1.0000 0.1195552713
H   H53       1.0  0.59630  0.50730  0.50920  1.0000 0.107412517
H   H54       1.0  0.50730  0.59630  0.99080  1.0000 0.107412517
H   H55       1.0  0.40370  0.49270  0.49080  1.0000 0.107412517
H   H56       1.0  0.49270  0.40370  0.00920  1.0000 0.107412517
H   H57       1.0  0.61120  0.98540  0.14900  1.0000 0.1277974478
H   H58       1.0  0.98540  0.61120  0.35100  1.0000 0.1277974478
H   H59       1.0  0.38880  0.01460  0.85100  1.0000 0.1277974478
H   H60       1.0  0.01460  0.38880  0.64900  1.0000 0.1277974478
H   H61       1.0  0.49790  0.90150  0.02230  1.0000 0.107412517
H   H62       1.0  0.90150  0.49790  0.47770  1.0000 0.107412517
H   H63       1.0  0.50210  0.09850  0.97770  1.0000 0.107412517
H   H64       1.0  0.09850  0.50210  0.52230  1.0000 0.107412517
C   C1        1.0  0.86525  0.86745  0.38890  1.0000 0.0794056139
C   C2        1.0  0.86745  0.86525  0.11110  1.0000 0.0794056139
C   C3        1.0  0.13475  0.13255  0.61110  1.0000 0.0794056139
C   C4        1.0  0.13255  0.13475  0.88890  1.0000 0.0794056139
C   C5        1.0  0.94560  0.90300  0.41410  1.0000 -0.1629376889
C   C6        1.0  0.90300  0.94560  0.08590  1.0000 -0.1629376889
C   C7        1.0  0.05440  0.09700  0.58590  1.0000 -0.1629376889
C   C8        1.0  0.09700  0.05440  0.91410  1.0000 -0.1629376889
C   C9        1.0  0.01620  0.85880  0.50990  1.0000 -0.117743376
C   C10       1.0  0.85880  0.01620  0.99010  1.0000 -0.117743376
C   C11       1.0  0.98380  0.14120  0.49010  1.0000 -0.117743376
C   C12       1.0  0.14120  0.98380  0.00990  1.0000 -0.117743376
C   C13       1.0  0.00800  0.77740  0.58350  1.0000 0.0586325968
C   C14       1.0  0.77740  0.00800  0.91650  1.0000 0.0586325968
C   C15       1.0  0.99200  0.22260  0.41650  1.0000 0.0586325968
C   C16       1.0  0.22260  0.99200  0.08350  1.0000 0.0586325968
C   C17       1.0  0.07630  0.72430  0.68660  1.0000 -0.1715332039
C   C18       1.0  0.72430  0.07630  0.81340  1.0000 -0.1715332039
C   C19       1.0  0.92370  0.27570  0.31340  1.0000 -0.1715332039
C   C20       1.0  0.27570  0.92370  0.18660  1.0000 -0.1715332039
C   C21       1.0  0.06360  0.64780  0.75260  1.0000 -0.1418702335
C   C22       1.0  0.64780  0.06360  0.74740  1.0000 -0.1418702335
C   C23       1.0  0.93640  0.35220  0.24740  1.0000 -0.1418702335
C   C24       1.0  0.35220  0.93640  0.25260  1.0000 -0.1418702335
C   C25       1.0  0.97950  0.61290  0.72260  1.0000 0.0586325968
C   C26       1.0  0.61290  0.97950  0.77740  1.0000 0.0586325968
C   C27       1.0  0.02050  0.38710  0.27740  1.0000 0.0586325968
C   C28       1.0  0.38710  0.02050  0.22260  1.0000 0.0586325968
C   C29       1.0  0.95990  0.53230  0.78560  1.0000 -0.0865830111
C   C30       1.0  0.53230  0.95990  0.71440  1.0000 -0.0865830111
C   C31       1.0  0.04010  0.46770  0.21440  1.0000 -0.0865830111
C   C32       1.0  0.46770  0.04010  0.28560  1.0000 -0.0865830111
C   C33       1.0  0.87870  0.50530  0.74730  1.0000 -0.1530306494
C   C34       1.0  0.50530  0.87870  0.75270  1.0000 -0.1530306494
C   C35       1.0  0.12130  0.49470  0.25270  1.0000 -0.1530306494
C   C36       1.0  0.49470  0.12130  0.24730  1.0000 -0.1530306494
C   C37       1.0  0.81340  0.56040  0.64580  1.0000 0.0877674425
C   C38       1.0  0.56040  0.81340  0.85420  1.0000 0.0877674425
C   C39       1.0  0.18660  0.43960  0.35420  1.0000 0.0877674425
C   C40       1.0  0.43960  0.18660  0.14580  1.0000 0.0877674425
C   C41       1.0  0.91020  0.66380  0.62110  1.0000 0.104551275
C   C42       1.0  0.66380  0.91020  0.87890  1.0000 0.104551275
C   C43       1.0  0.08980  0.33620  0.37890  1.0000 0.104551275
C   C44       1.0  0.33620  0.08980  0.12110  1.0000 0.104551275
C   C45       1.0  0.92497  0.74517  0.55140  1.0000 0.107412517
C   C46       1.0  0.74517  0.92497  0.94860  1.0000 0.107412517
C   C47       1.0  0.07503  0.25483  0.44860  1.0000 0.107412517
C   C48       1.0  0.25483  0.07503  0.05140  1.0000 0.107412517
C   C49       1.0  0.41715  0.71535  0.13870  1.0000 0.0877674425
C   C50       1.0  0.71535  0.41715  0.36130  1.0000 0.0877674425
C   C51       1.0  0.58285  0.28465  0.86130  1.0000 0.0877674425
C   C52       1.0  0.28465  0.58285  0.63870  1.0000 0.0877674425
C   C53       1.0  0.32310  0.70710  0.10400  1.0000 -0.1530306494
C   C54       1.0  0.70710  0.32310  0.39600  1.0000 -0.1530306494
C   C55       1.0  0.67690  0.29290  0.89600  1.0000 -0.1530306494
C   C56       1.0  0.29290  0.67690  0.60400  1.0000 -0.1530306494
C   C57       1.0  0.30330  0.62030  0.12860  1.0000 -0.0990274653
C   C58       1.0  0.62030  0.30330  0.37140  1.0000 -0.0990274653
C   C59       1.0  0.69670  0.37970  0.87140  1.0000 -0.0990274653
C   C60       1.0  0.37970  0.69670  0.62860  1.0000 -0.0990274653
C   C61       1.0  0.37818  0.53838  0.19010  1.0000 0.0586325968
C   C62       1.0  0.53838  0.37818  0.30990  1.0000 0.0586325968
C   C63       1.0  0.62182  0.46162  0.80990  1.0000 0.0586325968
C   C64       1.0  0.46162  0.62182  0.69010  1.0000 0.0586325968
C   C65       1.0  0.36630  0.44210  0.22120  1.0000 -0.1530306494
C   C66       1.0  0.44210  0.36630  0.27880  1.0000 -0.1530306494
C   C67       1.0  0.63370  0.55790  0.77880  1.0000 -0.1530306494
C   C68       1.0  0.55790  0.63370  0.72120  1.0000 -0.1530306494
C   C69       1.0  0.47088  0.55168  0.22050  1.0000 0.107412517
C   C70       1.0  0.55168  0.47088  0.27950  1.0000 0.107412517
C   C71       1.0  0.52912  0.44832  0.77950  1.0000 0.107412517
C   C72       1.0  0.44832  0.52912  0.72050  1.0000 0.107412517
C   C73       1.0  0.55932  0.69492  0.44780  1.0000 0.5882014751
C   C74       1.0  0.69492  0.55932  0.05220  1.0000 0.5882014751
C   C75       1.0  0.44068  0.30508  0.55220  1.0000 0.5882014751
C   C76       1.0  0.30508  0.44068  0.94780  1.0000 0.5882014751
C   C77       1.0  0.49652  0.62792  0.45280  1.0000 -0.2687987753
C   C78       1.0  0.62792  0.49652  0.04720  1.0000 -0.2687987753
C   C79       1.0  0.50348  0.37208  0.54720  1.0000 -0.2687987753
C   C80       1.0  0.37208  0.50348  0.95280  1.0000 -0.2687987753
C   C81       1.0  0.52978  0.53318  0.49150  1.0000 -0.0806353346
C   C82       1.0  0.53318  0.52978  0.00850  1.0000 -0.0806353346
C   C83       1.0  0.47022  0.46682  0.50850  1.0000 -0.0806353346
C   C84       1.0  0.46682  0.47022  0.99150  1.0000 -0.0806353346
C   C85       1.0  0.62644  0.83744  0.21320  1.0000 0.6025470614
C   C86       1.0  0.83744  0.62644  0.28680  1.0000 0.6025470614
C   C87       1.0  0.37356  0.16256  0.78680  1.0000 0.6025470614
C   C88       1.0  0.16256  0.37356  0.71320  1.0000 0.6025470614
C   C89       1.0  0.58726  0.93446  0.13260  1.0000 -0.2687987753
C   C90       1.0  0.93446  0.58726  0.36740  1.0000 -0.2687987753
C   C91       1.0  0.41274  0.06554  0.86740  1.0000 -0.2687987753
C   C92       1.0  0.06554  0.41274  0.63260  1.0000 -0.2687987753
C   C93       1.0  0.52039  0.95299  0.03900  1.0000 -0.0865830111
C   C94       1.0  0.95299  0.52039  0.46100  1.0000 -0.0865830111
C   C95       1.0  0.47961  0.04701  0.96100  1.0000 -0.0865830111
C   C96       1.0  0.04701  0.47961  0.53900  1.0000 -0.0865830111
N   N1        1.0  0.85505  0.78985  0.45510  1.0000 -0.2687987753
N   N2        1.0  0.78985  0.85505  0.04490  1.0000 -0.2687987753
N   N3        1.0  0.14495  0.21015  0.54490  1.0000 -0.2687987753
N   N4        1.0  0.21015  0.14495  0.95510  1.0000 -0.2687987753
N   N5        1.0  0.82773  0.63801  0.58410  1.0000 -0.2687987753
N   N6        1.0  0.63801  0.82773  0.91590  1.0000 -0.2687987753
N   N7        1.0  0.17227  0.36199  0.41590  1.0000 -0.2687987753
N   N8        1.0  0.36199  0.17227  0.08410  1.0000 -0.2687987753
N   N9        1.0  0.49030  0.63902  0.19550  1.0000 -0.2642953873
N   N10       1.0  0.63902  0.49030  0.30450  1.0000 -0.2642953873
N   N11       1.0  0.50970  0.36098  0.80450  1.0000 -0.2642953873
N   N12       1.0  0.36098  0.50970  0.69550  1.0000 -0.2642953873
O   O1        1.0  0.64064  0.66348  0.43480  1.0000 -0.6031055332
O   O2        1.0  0.66348  0.64064  0.06520  1.0000 -0.6031055332
O   O3        1.0  0.35936  0.33652  0.56520  1.0000 -0.6031055332
O   O4        1.0  0.33652  0.35936  0.93480  1.0000 -0.6031055332
O   O5        1.0  0.53226  0.77336  0.45930  1.0000 -0.5620938123
O   O6        1.0  0.77336  0.53226  0.04070  1.0000 -0.5620938123
O   O7        1.0  0.46774  0.22664  0.54070  1.0000 -0.5620938123
O   O8        1.0  0.22664  0.46774  0.95930  1.0000 -0.5620938123
O   O9        1.0  0.67473  0.83285  0.30630  1.0000 -0.5257234305
O   O10       1.0  0.83285  0.67473  0.19370  1.0000 -0.5257234305
O   O11       1.0  0.32527  0.16715  0.69370  1.0000 -0.5257234305
O   O12       1.0  0.16715  0.32527  0.80630  1.0000 -0.5257234305
O   O13       1.0  0.60864  0.76798  0.18150  1.0000 -0.5655608058
O   O14       1.0  0.76798  0.60864  0.31850  1.0000 -0.5655608058
O   O15       1.0  0.39136  0.23202  0.81850  1.0000 -0.5655608058
O   O16       1.0  0.23202  0.39136  0.68150  1.0000 -0.5655608058
