# DDEC6 charges by PACMAN v1.1 (https://github.com/mtap-research/PACMAN-charge/)
data_2007[GdCu][pcu]3[ASR]1
_chemical_formula_sum              "Gd2 Cu4 H112 C120 N16 O32"
_cell_length_a       16.087
_cell_length_b       16.087
_cell_length_c       19.129
_cell_angle_alpha    82.8025
_cell_angle_beta     82.8025
_cell_angle_gamma    60.4652

_symmetry_space_group_name_H-M    "P 1"
_symmetry_Int_Tables_number       1

loop_
  _symmetry_equiv_pos_as_xyz
  'x, y, z'

loop_
  _atom_site_type_symbol
  _atom_site_label
  _atom_site_symmetry_multiplicity
  _atom_site_fract_x
  _atom_site_fract_y
  _atom_site_fract_z
  _atom_site_occupancy
  _atom_site_charge
Gd  Gd1       1.0  0.37090  0.62910  0.75000  1.0000 2.145185714
Gd  Gd2       1.0  0.62910  0.37090  0.25000  1.0000 2.145185714
Cu  Cu1       1.0  0.40296  0.64401  0.92650  1.0000 0.889288654
Cu  Cu2       1.0  0.59704  0.35599  0.07350  1.0000 0.889288654
Cu  Cu3       1.0  0.35599  0.59704  0.57350  1.0000 0.889288654
Cu  Cu4       1.0  0.64401  0.40296  0.42650  1.0000 0.889288654
H   H1        1.0  0.08354  0.75544  0.80657  1.0000 0.1292969895
H   H2        1.0  0.91646  0.24456  0.19343  1.0000 0.1292969895
H   H3        1.0  0.24456  0.91646  0.69343  1.0000 0.1292969895
H   H4        1.0  0.75544  0.08354  0.30657  1.0000 0.1292969895
H   H5        1.0  0.90601  0.81923  0.83587  1.0000 0.0802095855
H   H6        1.0  0.09399  0.18077  0.16413  1.0000 0.0802095855
H   H7        1.0  0.18077  0.09399  0.66413  1.0000 0.0802095855
H   H8        1.0  0.81923  0.90601  0.33587  1.0000 0.0802095855
H   H9        1.0  0.92634  0.88771  0.03804  1.0000 0.0886507351
H   H10       1.0  0.07366  0.11229  0.96196  1.0000 0.0886507351
H   H11       1.0  0.11229  0.07366  0.46196  1.0000 0.0886507351
H   H12       1.0  0.88771  0.92634  0.53804  1.0000 0.0886507351
H   H13       1.0  0.10508  0.81861  0.01509  1.0000 0.1087654171
H   H14       1.0  0.89492  0.18139  0.98491  1.0000 0.1087654171
H   H15       1.0  0.18139  0.89492  0.48491  1.0000 0.1087654171
H   H16       1.0  0.81861  0.10508  0.51509  1.0000 0.1087654171
H   H17       1.0  0.76884  0.91585  0.90831  1.0000 0.0601830185
H   H18       1.0  0.23116  0.08415  0.09169  1.0000 0.0601830185
H   H19       1.0  0.08415  0.23116  0.59169  1.0000 0.0601830185
H   H20       1.0  0.91585  0.76884  0.40831  1.0000 0.0601830185
H   H21       1.0  0.77943  0.94117  0.99391  1.0000 0.0709889209
H   H22       1.0  0.22057  0.05883  0.00609  1.0000 0.0709889209
H   H23       1.0  0.05883  0.22057  0.50609  1.0000 0.0709889209
H   H24       1.0  0.94117  0.77943  0.49391  1.0000 0.0709889209
H   H25       1.0  0.82347  0.74395  0.94943  1.0000 0.0886507351
H   H26       1.0  0.17653  0.25605  0.05057  1.0000 0.0886507351
H   H27       1.0  0.25605  0.17653  0.55057  1.0000 0.0886507351
H   H28       1.0  0.74395  0.82347  0.44943  1.0000 0.0886507351
H   H29       1.0  0.84327  0.76346  0.03372  1.0000 0.0886507351
H   H30       1.0  0.15673  0.23654  0.96628  1.0000 0.0886507351
H   H31       1.0  0.23654  0.15673  0.46628  1.0000 0.0886507351
H   H32       1.0  0.76346  0.84327  0.53372  1.0000 0.0886507351
H   H33       1.0  0.66969  0.87894  0.05653  1.0000 0.0601830185
H   H34       1.0  0.33031  0.12106  0.94347  1.0000 0.0601830185
H   H35       1.0  0.12106  0.33031  0.44347  1.0000 0.0601830185
H   H36       1.0  0.87894  0.66969  0.55653  1.0000 0.0601830185
H   H37       1.0  0.64747  0.87373  0.96827  1.0000 0.0601830185
H   H38       1.0  0.35253  0.12627  0.03173  1.0000 0.0601830185
H   H39       1.0  0.12627  0.35253  0.53173  1.0000 0.0601830185
H   H40       1.0  0.87373  0.64747  0.46827  1.0000 0.0601830185
H   H41       1.0  0.64054  0.74842  0.93257  1.0000 0.0886507351
H   H42       1.0  0.35946  0.25158  0.06743  1.0000 0.0886507351
H   H43       1.0  0.25158  0.35946  0.56743  1.0000 0.0886507351
H   H44       1.0  0.74842  0.64054  0.43257  1.0000 0.0886507351
H   H45       1.0  0.61870  0.60376  0.96411  1.0000 0.1374912461
H   H46       1.0  0.38130  0.39624  0.03589  1.0000 0.1374912461
H   H47       1.0  0.39624  0.38130  0.53589  1.0000 0.1374912461
H   H48       1.0  0.60376  0.61870  0.46411  1.0000 0.1374912461
H   H49       1.0  0.68571  0.59976  0.17802  1.0000 0.1235299905
H   H50       1.0  0.31429  0.40024  0.82198  1.0000 0.1235299905
H   H51       1.0  0.40024  0.31429  0.32198  1.0000 0.1235299905
H   H52       1.0  0.59976  0.68571  0.67802  1.0000 0.1235299905
H   H53       1.0  0.70367  0.74732  0.14064  1.0000 0.0802095855
H   H54       1.0  0.29633  0.25268  0.85936  1.0000 0.0802095855
H   H55       1.0  0.25268  0.29633  0.35936  1.0000 0.0802095855
H   H56       1.0  0.74732  0.70367  0.64064  1.0000 0.0802095855
H   H57       1.0  0.71078  0.43189  0.95068  1.0000 0.1292969895
H   H58       1.0  0.28922  0.56811  0.04932  1.0000 0.1292969895
H   H59       1.0  0.56811  0.28922  0.54932  1.0000 0.1292969895
H   H60       1.0  0.43189  0.71078  0.45068  1.0000 0.1292969895
H   H61       1.0  0.88669  0.32267  0.91940  1.0000 0.0951998358
H   H62       1.0  0.11331  0.67733  0.08060  1.0000 0.0951998358
H   H63       1.0  0.67733  0.11331  0.58060  1.0000 0.0951998358
H   H64       1.0  0.32267  0.88669  0.41940  1.0000 0.0951998358
H   H65       1.0  0.83614  0.32951  0.70680  1.0000 0.0886507351
H   H66       1.0  0.16386  0.67049  0.29320  1.0000 0.0886507351
H   H67       1.0  0.67049  0.16386  0.79320  1.0000 0.0886507351
H   H68       1.0  0.32951  0.83614  0.20680  1.0000 0.0886507351
H   H69       1.0  0.65786  0.44052  0.73242  1.0000 0.1292969895
H   H70       1.0  0.34214  0.55948  0.26758  1.0000 0.1292969895
H   H71       1.0  0.55948  0.34214  0.76758  1.0000 0.1292969895
H   H72       1.0  0.44052  0.65786  0.23242  1.0000 0.1292969895
H   H73       1.0  0.98156  0.25190  0.73920  1.0000 0.0709889209
H   H74       1.0  0.01844  0.74810  0.26080  1.0000 0.0709889209
H   H75       1.0  0.74810  0.01844  0.76080  1.0000 0.0709889209
H   H76       1.0  0.25190  0.98156  0.23920  1.0000 0.0709889209
H   H77       1.0  0.00604  0.20712  0.82892  1.0000 0.0709889209
H   H78       1.0  0.99396  0.79288  0.17108  1.0000 0.0709889209
H   H79       1.0  0.79288  0.99396  0.67108  1.0000 0.0709889209
H   H80       1.0  0.20712  0.00604  0.32892  1.0000 0.0709889209
H   H81       1.0  0.02965  0.33858  0.85300  1.0000 0.0802095855
H   H82       1.0  0.97035  0.66142  0.14700  1.0000 0.0802095855
H   H83       1.0  0.66142  0.97035  0.64700  1.0000 0.0802095855
H   H84       1.0  0.33858  0.02965  0.35300  1.0000 0.0802095855
H   H85       1.0  0.08840  0.30512  0.76807  1.0000 0.0802095855
H   H86       1.0  0.91160  0.69488  0.23193  1.0000 0.0802095855
H   H87       1.0  0.69488  0.91160  0.73193  1.0000 0.0802095855
H   H88       1.0  0.30512  0.08840  0.26807  1.0000 0.0802095855
H   H89       1.0  0.91828  0.43958  0.72044  1.0000 0.0802095855
H   H90       1.0  0.08172  0.56042  0.27956  1.0000 0.0802095855
H   H91       1.0  0.56042  0.08172  0.77956  1.0000 0.0802095855
H   H92       1.0  0.43958  0.91828  0.22044  1.0000 0.0802095855
H   H93       1.0  0.89576  0.48239  0.80573  1.0000 0.0802095855
H   H94       1.0  0.10424  0.51761  0.19427  1.0000 0.0802095855
H   H95       1.0  0.51761  0.10424  0.69427  1.0000 0.0802095855
H   H96       1.0  0.48239  0.89576  0.30573  1.0000 0.0802095855
H   H97       1.0  0.03097  0.50507  0.84412  1.0000 0.0886507351
H   H98       1.0  0.96903  0.49493  0.15588  1.0000 0.0886507351
H   H99       1.0  0.49493  0.96903  0.65588  1.0000 0.0886507351
H   H100      1.0  0.50507  0.03097  0.34412  1.0000 0.0886507351
H   H101      1.0  0.15183  0.56105  0.80146  1.0000 0.1292969895
H   H102      1.0  0.84817  0.43895  0.19854  1.0000 0.1292969895
H   H103      1.0  0.43895  0.84817  0.69854  1.0000 0.1292969895
H   H104      1.0  0.56105  0.15183  0.30146  1.0000 0.1292969895
H   H105      1.0  0.11539  0.53453  0.58640  1.0000 0.1087654171
H   H106      1.0  0.88461  0.46547  0.41360  1.0000 0.1087654171
H   H107      1.0  0.46547  0.88461  0.91360  1.0000 0.1087654171
H   H108      1.0  0.53453  0.11539  0.08640  1.0000 0.1087654171
H   H109      1.0  0.99691  0.47618  0.63417  1.0000 0.0709889209
H   H110      1.0  0.00309  0.52382  0.36583  1.0000 0.0709889209
H   H111      1.0  0.52382  0.00309  0.86583  1.0000 0.0709889209
H   H112      1.0  0.47618  0.99691  0.13417  1.0000 0.0709889209
C   C1        1.0  0.21173  0.74164  0.89283  1.0000 0.5967470309
C   C2        1.0  0.78827  0.25836  0.10717  1.0000 0.5967470309
C   C3        1.0  0.25836  0.78827  0.60717  1.0000 0.5967470309
C   C4        1.0  0.74164  0.21173  0.39283  1.0000 0.5967470309
C   C5        1.0  0.10764  0.78236  0.90874  1.0000 -0.0077260076
C   C6        1.0  0.89236  0.21764  0.09126  1.0000 -0.0077260076
C   C7        1.0  0.21764  0.89236  0.59126  1.0000 -0.0077260076
C   C8        1.0  0.78236  0.10764  0.40874  1.0000 -0.0077260076
C   C9        1.0  0.04964  0.78412  0.85769  1.0000 -0.1304814547
C   C10       1.0  0.95036  0.21588  0.14231  1.0000 -0.1304814547
C   C11       1.0  0.21588  0.95036  0.64231  1.0000 -0.1304814547
C   C12       1.0  0.78412  0.04964  0.35769  1.0000 -0.1304814547
C   C13       1.0  0.95308  0.81949  0.87250  1.0000 -0.0406732317
C   C14       1.0  0.04692  0.18051  0.12750  1.0000 -0.0406732317
C   C15       1.0  0.18051  0.04692  0.62750  1.0000 -0.0406732317
C   C16       1.0  0.81949  0.95308  0.37250  1.0000 -0.0406732317
C   C17       1.0  0.96505  0.85612  0.98856  1.0000 -0.0493351488
C   C18       1.0  0.03495  0.14388  0.01144  1.0000 -0.0493351488
C   C19       1.0  0.14388  0.03495  0.51144  1.0000 -0.0493351488
C   C20       1.0  0.85612  0.96505  0.48856  1.0000 -0.0493351488
C   C21       1.0  0.06204  0.81905  0.97492  1.0000 -0.150263379
C   C22       1.0  0.93796  0.18095  0.02508  1.0000 -0.150263379
C   C23       1.0  0.18095  0.93796  0.52508  1.0000 -0.150263379
C   C24       1.0  0.81905  0.06204  0.47492  1.0000 -0.150263379
C   C25       1.0  0.80942  0.88420  0.95634  1.0000 -0.0817071255
C   C26       1.0  0.19058  0.11580  0.04366  1.0000 -0.0817071255
C   C27       1.0  0.11580  0.19058  0.54366  1.0000 -0.0817071255
C   C28       1.0  0.88420  0.80942  0.45634  1.0000 -0.0817071255
C   C29       1.0  0.79778  0.79835  0.98857  1.0000 -0.2120162497
C   C30       1.0  0.20222  0.20165  0.01143  1.0000 -0.2120162497
C   C31       1.0  0.20165  0.20222  0.51143  1.0000 -0.2120162497
C   C32       1.0  0.79835  0.79778  0.48857  1.0000 -0.2120162497
C   C33       1.0  0.69278  0.83136  0.01259  1.0000 -0.0817071255
C   C34       1.0  0.30722  0.16864  0.98741  1.0000 -0.0817071255
C   C35       1.0  0.16864  0.30722  0.48741  1.0000 -0.0817071255
C   C36       1.0  0.83136  0.69278  0.51259  1.0000 -0.0817071255
C   C37       1.0  0.65159  0.71123  0.98535  1.0000 -0.0184693819
C   C38       1.0  0.34841  0.28877  0.01465  1.0000 -0.0077260076
C   C39       1.0  0.28877  0.34841  0.51465  1.0000 -0.0184693819
C   C40       1.0  0.71123  0.65159  0.48535  1.0000 -0.0184693819
C   C41       1.0  0.64085  0.63150  0.00358  1.0000 -0.1304814547
C   C42       1.0  0.35915  0.36850  0.99642  1.0000 -0.1304814547
C   C43       1.0  0.36850  0.35915  0.49642  1.0000 -0.1304814547
C   C44       1.0  0.63150  0.64085  0.50358  1.0000 -0.1304814547
C   C45       1.0  0.65329  0.58890  0.07361  1.0000 0.0028026489
C   C46       1.0  0.34671  0.41110  0.92639  1.0000 0.0028026489
C   C47       1.0  0.41110  0.34671  0.42639  1.0000 0.0028026489
C   C48       1.0  0.58890  0.65329  0.57361  1.0000 0.0028026489
C   C49       1.0  0.67652  0.63131  0.12355  1.0000 -0.1416851195
C   C50       1.0  0.32348  0.36869  0.87645  1.0000 -0.1416851195
C   C51       1.0  0.36869  0.32348  0.37645  1.0000 -0.1416851195
C   C52       1.0  0.63131  0.67652  0.62355  1.0000 -0.1416851195
C   C53       1.0  0.68641  0.71138  0.10433  1.0000 -0.0337905881
C   C54       1.0  0.31359  0.28862  0.89567  1.0000 -0.0337905881
C   C55       1.0  0.28862  0.31359  0.39567  1.0000 -0.0337905881
C   C56       1.0  0.71138  0.68641  0.60433  1.0000 -0.0337905881
C   C57       1.0  0.63593  0.50699  0.09786  1.0000 0.5901982039
C   C58       1.0  0.36407  0.49301  0.90214  1.0000 0.5901982039
C   C59       1.0  0.49301  0.36407  0.40214  1.0000 0.5901982039
C   C60       1.0  0.50699  0.63593  0.59786  1.0000 0.5901982039
C   C61       1.0  0.57070  0.52288  0.85020  1.0000 0.5901982039
C   C62       1.0  0.42930  0.47712  0.14980  1.0000 0.5901982039
C   C63       1.0  0.47712  0.42930  0.64980  1.0000 0.5901982039
C   C64       1.0  0.52288  0.57070  0.35020  1.0000 0.5901982039
C   C65       1.0  0.67250  0.44857  0.84182  1.0000 -0.0077260076
C   C66       1.0  0.32750  0.55143  0.15818  1.0000 -0.0077260076
C   C67       1.0  0.55143  0.32750  0.65818  1.0000 -0.0077260076
C   C68       1.0  0.44857  0.67250  0.34182  1.0000 -0.0077260076
C   C69       1.0  0.73717  0.41314  0.89594  1.0000 -0.1304814547
C   C70       1.0  0.26283  0.58686  0.10406  1.0000 -0.1304814547
C   C71       1.0  0.58686  0.26283  0.60406  1.0000 -0.1304814547
C   C72       1.0  0.41314  0.73717  0.39594  1.0000 -0.1304814547
C   C73       1.0  0.83321  0.35299  0.88017  1.0000 -0.0184693819
C   C74       1.0  0.16679  0.64701  0.11983  1.0000 -0.0184693819
C   C75       1.0  0.64701  0.16679  0.61983  1.0000 -0.0184693819
C   C76       1.0  0.35299  0.83321  0.38017  1.0000 -0.0184693819
C   C77       1.0  0.80495  0.35650  0.75868  1.0000 -0.0406732317
C   C78       1.0  0.19505  0.64350  0.24132  1.0000 -0.0493351488
C   C79       1.0  0.64350  0.19505  0.74132  1.0000 -0.0406732317
C   C80       1.0  0.35650  0.80495  0.25868  1.0000 -0.0493351488
C   C81       1.0  0.70901  0.41635  0.77298  1.0000 -0.1304814547
C   C82       1.0  0.29099  0.58365  0.22702  1.0000 -0.1304814547
C   C83       1.0  0.58365  0.29099  0.72702  1.0000 -0.1304814547
C   C84       1.0  0.41635  0.70901  0.27298  1.0000 -0.1304814547
C   C85       1.0  0.97160  0.27361  0.79365  1.0000 -0.0817071255
C   C86       1.0  0.02840  0.72639  0.20635  1.0000 -0.0817071255
C   C87       1.0  0.72639  0.02840  0.70635  1.0000 -0.0817071255
C   C88       1.0  0.27361  0.97160  0.29365  1.0000 -0.0817071255
C   C89       1.0  0.01708  0.33706  0.79766  1.0000 -0.2189789253
C   C90       1.0  0.98292  0.66294  0.20234  1.0000 -0.2189789253
C   C91       1.0  0.66294  0.98292  0.70234  1.0000 -0.2189789253
C   C92       1.0  0.33706  0.01708  0.29766  1.0000 -0.2189789253
C   C93       1.0  0.95412  0.43980  0.76629  1.0000 -0.0719864877
C   C94       1.0  0.04588  0.56020  0.23371  1.0000 -0.0719864877
C   C95       1.0  0.56020  0.04588  0.73371  1.0000 -0.0719864877
C   C96       1.0  0.43980  0.95412  0.26629  1.0000 -0.0719864877
C   C97       1.0  0.05303  0.51205  0.78813  1.0000 -0.0337905881
C   C98       1.0  0.94697  0.48795  0.21187  1.0000 -0.0337905881
C   C99       1.0  0.48795  0.94697  0.71187  1.0000 -0.0337905881
C   C100      1.0  0.51205  0.05303  0.28813  1.0000 -0.0337905881
C   C101      1.0  0.11865  0.54218  0.76397  1.0000 -0.1416851195
C   C102      1.0  0.88135  0.45782  0.23603  1.0000 -0.1416851195
C   C103      1.0  0.45782  0.88135  0.73603  1.0000 -0.1416851195
C   C104      1.0  0.54218  0.11865  0.26397  1.0000 -0.1416851195
C   C105      1.0  0.14501  0.54876  0.69031  1.0000 0.0067046942
C   C106      1.0  0.85499  0.45124  0.30969  1.0000 0.0067046942
C   C107      1.0  0.45124  0.85499  0.80969  1.0000 0.0067046942
C   C108      1.0  0.54876  0.14501  0.19031  1.0000 0.0067046942
C   C109      1.0  0.09863  0.52605  0.64326  1.0000 -0.1632067585
C   C110      1.0  0.90137  0.47395  0.35674  1.0000 -0.1632067585
C   C111      1.0  0.47395  0.90137  0.85674  1.0000 -0.1632067585
C   C112      1.0  0.52605  0.09863  0.14326  1.0000 -0.1632067585
C   C113      1.0  0.03400  0.49515  0.66818  1.0000 -0.0493351488
C   C114      1.0  0.96600  0.50485  0.33182  1.0000 -0.0493351488
C   C115      1.0  0.50485  0.96600  0.83182  1.0000 -0.0493351488
C   C116      1.0  0.49515  0.03400  0.16818  1.0000 -0.0493351488
C   C117      1.0  0.21811  0.57755  0.66368  1.0000 0.5901982039
C   C118      1.0  0.78189  0.42245  0.33632  1.0000 0.5901982039
C   C119      1.0  0.42245  0.78189  0.83632  1.0000 0.5901982039
C   C120      1.0  0.57755  0.21811  0.16368  1.0000 0.5901982039
N   N1        1.0  0.90881  0.85891  0.93715  1.0000 0.0303313922
N   N2        1.0  0.09119  0.14109  0.06285  1.0000 0.0303313922
N   N3        1.0  0.14109  0.09119  0.56285  1.0000 0.0303313922
N   N4        1.0  0.85891  0.90881  0.43715  1.0000 0.0303313922
N   N5        1.0  0.67354  0.75235  0.03522  1.0000 0.0303313922
N   N6        1.0  0.32646  0.24765  0.96478  1.0000 0.0303313922
N   N7        1.0  0.24765  0.32646  0.46478  1.0000 0.0303313922
N   N8        1.0  0.75235  0.67354  0.53522  1.0000 0.0303313922
N   N9        1.0  0.86794  0.32529  0.81161  1.0000 0.0371020114
N   N10       1.0  0.13206  0.67471  0.18839  1.0000 0.0371020114
N   N11       1.0  0.67471  0.13206  0.68839  1.0000 0.0371020114
N   N12       1.0  0.32529  0.86794  0.31161  1.0000 0.0371020114
N   N13       1.0  0.00945  0.48848  0.74068  1.0000 0.019199421
N   N14       1.0  0.99055  0.51152  0.25932  1.0000 0.019199421
N   N15       1.0  0.51152  0.99055  0.75932  1.0000 0.019199421
N   N16       1.0  0.48848  0.00945  0.24068  1.0000 0.019199421
O   O1        1.0  0.26176  0.73008  0.94472  1.0000 -0.551313445
O   O2        1.0  0.73824  0.26992  0.05528  1.0000 -0.551313445
O   O3        1.0  0.26992  0.73824  0.55528  1.0000 -0.551313445
O   O4        1.0  0.73008  0.26176  0.44472  1.0000 -0.551313445
O   O5        1.0  0.24353  0.71983  0.82954  1.0000 -0.6776217023
O   O6        1.0  0.75647  0.28017  0.17046  1.0000 -0.6776217023
O   O7        1.0  0.28017  0.75647  0.67046  1.0000 -0.6776217023
O   O8        1.0  0.71983  0.24353  0.32954  1.0000 -0.6776217023
O   O9        1.0  0.64567  0.47964  0.16287  1.0000 -0.6553716461
O   O10       1.0  0.35433  0.52036  0.83713  1.0000 -0.6553716461
O   O11       1.0  0.52036  0.35433  0.33713  1.0000 -0.6553716461
O   O12       1.0  0.47964  0.64567  0.66287  1.0000 -0.6553716461
O   O13       1.0  0.61046  0.47311  0.05177  1.0000 -0.551313445
O   O14       1.0  0.38954  0.52689  0.94823  1.0000 -0.551313445
O   O15       1.0  0.52689  0.38954  0.44823  1.0000 -0.551313445
O   O16       1.0  0.47311  0.61046  0.55177  1.0000 -0.551313445
O   O17       1.0  0.54413  0.57316  0.90426  1.0000 -0.5358711431
O   O18       1.0  0.45587  0.42684  0.09574  1.0000 -0.5358711431
O   O19       1.0  0.42684  0.45587  0.59574  1.0000 -0.5358711431
O   O20       1.0  0.57316  0.54413  0.40426  1.0000 -0.5358711431
O   O21       1.0  0.51913  0.53485  0.80106  1.0000 -0.6553716461
O   O22       1.0  0.48087  0.46515  0.19894  1.0000 -0.6553716461
O   O23       1.0  0.46515  0.48087  0.69894  1.0000 -0.6553716461
O   O24       1.0  0.53485  0.51913  0.30106  1.0000 -0.6553716461
O   O25       1.0  0.23447  0.58479  0.59575  1.0000 -0.551313445
O   O26       1.0  0.76553  0.41521  0.40425  1.0000 -0.551313445
O   O27       1.0  0.41521  0.76553  0.90425  1.0000 -0.551313445
O   O28       1.0  0.58479  0.23447  0.09575  1.0000 -0.551313445
O   O29       1.0  0.25967  0.59171  0.70987  1.0000 -0.6776217023
O   O30       1.0  0.74033  0.40829  0.29013  1.0000 -0.6776217023
O   O31       1.0  0.40829  0.74033  0.79013  1.0000 -0.6776217023
O   O32       1.0  0.59171  0.25967  0.20987  1.0000 -0.6776217023
