# DDEC6 charges by PACMAN v1.1 (https://github.com/mtap-research/PACMAN-charge/)
data_2007[Cu][nbo]3[ASR]1
_chemical_formula_sum              "Cu6 H42 C54 N6 O18"
_cell_length_a       15.7563
_cell_length_b       15.7563
_cell_length_c       15.7563
_cell_angle_alpha    117.854
_cell_angle_beta     117.854
_cell_angle_gamma    117.854

_symmetry_space_group_name_H-M    "P 1"
_symmetry_Int_Tables_number       1

loop_
  _symmetry_equiv_pos_as_xyz
  'x, y, z'

loop_
  _atom_site_type_symbol
  _atom_site_label
  _atom_site_symmetry_multiplicity
  _atom_site_fract_x
  _atom_site_fract_y
  _atom_site_fract_z
  _atom_site_occupancy
  _atom_site_charge
Cu  Cu1       1.0  0.46100  0.36271  0.89320  1.0000 0.7948651909
Cu  Cu2       1.0  0.36271  0.89320  0.46100  1.0000 0.7948651909
Cu  Cu3       1.0  0.89320  0.46100  0.36271  1.0000 0.7948651909
Cu  Cu4       1.0  0.53900  0.63729  0.10680  1.0000 0.7962759137
Cu  Cu5       1.0  0.63729  0.10680  0.53900  1.0000 0.7948651909
Cu  Cu6       1.0  0.10680  0.53900  0.63729  1.0000 0.7948651909
H   H1        1.0  0.20240  0.91810  0.54350  1.0000 0.1393139585
H   H2        1.0  0.91810  0.54350  0.20240  1.0000 0.1393139585
H   H3        1.0  0.54350  0.20240  0.91810  1.0000 0.1393139585
H   H4        1.0  0.79760  0.08190  0.45650  1.0000 0.1393139585
H   H5        1.0  0.08190  0.45650  0.79760  1.0000 0.1393139585
H   H6        1.0  0.45650  0.79760  0.08190  1.0000 0.1393139585
H   H7        1.0  0.12110  0.91170  0.42870  1.0000 0.1393139585
H   H8        1.0  0.91170  0.42870  0.12110  1.0000 0.1393139585
H   H9        1.0  0.42870  0.12110  0.91170  1.0000 0.1393139585
H   H10       1.0  0.87890  0.08830  0.57130  1.0000 0.1393139585
H   H11       1.0  0.08830  0.57130  0.87890  1.0000 0.1393139585
H   H12       1.0  0.57130  0.87890  0.08830  1.0000 0.1393139585
H   H13       1.0  0.95910  0.82010  0.44770  1.0000 0.1215412492
H   H14       1.0  0.82010  0.44770  0.95910  1.0000 0.1215412492
H   H15       1.0  0.44770  0.95910  0.82010  1.0000 0.1215412492
H   H16       1.0  0.04090  0.17990  0.55230  1.0000 0.1215412492
H   H17       1.0  0.17990  0.55230  0.04090  1.0000 0.1215412492
H   H18       1.0  0.55230  0.04090  0.17990  1.0000 0.1215412492
H   H19       1.0  0.77460  0.72790  0.42470  1.0000 0.1282729878
H   H20       1.0  0.72790  0.42470  0.77460  1.0000 0.1282729878
H   H21       1.0  0.42470  0.77460  0.72790  1.0000 0.1282729878
H   H22       1.0  0.22540  0.27210  0.57530  1.0000 0.1282729878
H   H23       1.0  0.27210  0.57530  0.22540  1.0000 0.1282729878
H   H24       1.0  0.57530  0.22540  0.27210  1.0000 0.1282729878
H   H25       1.0  0.72150  0.79230  0.53520  1.0000 0.1215412492
H   H26       1.0  0.79230  0.53520  0.72150  1.0000 0.1215412492
H   H27       1.0  0.53520  0.72150  0.79230  1.0000 0.1215412492
H   H28       1.0  0.27850  0.20770  0.46480  1.0000 0.1215412492
H   H29       1.0  0.20770  0.46480  0.27850  1.0000 0.1215412492
H   H30       1.0  0.46480  0.27850  0.20770  1.0000 0.1215412492
H   H31       1.0  0.96210  0.11890  0.82690  1.0000 0.1089537516
H   H32       1.0  0.11890  0.82690  0.96210  1.0000 0.1089537516
H   H33       1.0  0.82690  0.96210  0.11890  1.0000 0.1089537516
H   H34       1.0  0.03790  0.88110  0.17310  1.0000 0.1089537516
H   H35       1.0  0.88110  0.17310  0.03790  1.0000 0.1089537516
H   H36       1.0  0.17310  0.03790  0.88110  1.0000 0.1089537516
H   H37       1.0  0.24670  0.37660  0.00070  1.0000 0.1393139585
H   H38       1.0  0.37660  0.00070  0.24670  1.0000 0.1393139585
H   H39       1.0  0.00070  0.24670  0.37660  1.0000 0.1393139585
H   H40       1.0  0.75330  0.62340  0.99930  1.0000 0.1393139585
H   H41       1.0  0.62340  0.99930  0.75330  1.0000 0.1393139585
H   H42       1.0  0.99930  0.75330  0.62340  1.0000 0.1393139585
C   C1        1.0  0.42758  0.16951  0.69121  1.0000 0.6075471639
C   C2        1.0  0.16951  0.69121  0.42758  1.0000 0.6075471639
C   C3        1.0  0.69121  0.42758  0.16951  1.0000 0.6075471639
C   C4        1.0  0.57242  0.83049  0.30879  1.0000 0.6075471639
C   C5        1.0  0.83049  0.30879  0.57242  1.0000 0.6075471639
C   C6        1.0  0.30879  0.57242  0.83049  1.0000 0.6075471639
C   C7        1.0  0.22572  0.99713  0.55965  1.0000 -0.2491345406
C   C8        1.0  0.99713  0.55965  0.22572  1.0000 -0.2491345406
C   C9        1.0  0.55965  0.22572  0.99713  1.0000 -0.2491345406
C   C10       1.0  0.77428  0.00287  0.44035  1.0000 -0.2491345406
C   C11       1.0  0.00287  0.44035  0.77428  1.0000 -0.2491345406
C   C12       1.0  0.44035  0.77428  0.00287  1.0000 -0.2491345406
C   C13       1.0  0.06676  0.95600  0.56834  1.0000 0.0982206761
C   C14       1.0  0.95600  0.56834  0.06676  1.0000 0.0982206761
C   C15       1.0  0.56834  0.06676  0.95600  1.0000 0.0982206761
C   C16       1.0  0.93324  0.04400  0.43166  1.0000 0.0982206761
C   C17       1.0  0.04400  0.43166  0.93324  1.0000 0.0982206761
C   C18       1.0  0.43166  0.93324  0.04400  1.0000 0.0982206761
C   C19       1.0  0.04523  0.01427  0.64590  1.0000 -0.0606769361
C   C20       1.0  0.01427  0.64590  0.04523  1.0000 -0.0606769361
C   C21       1.0  0.64590  0.04523  0.01427  1.0000 -0.0606769361
C   C22       1.0  0.95477  0.98573  0.35410  1.0000 -0.0606769361
C   C23       1.0  0.98573  0.35410  0.95477  1.0000 -0.0606769361
C   C24       1.0  0.35410  0.95477  0.98573  1.0000 -0.0606769361
C   C25       1.0  0.87014  0.85865  0.54071  1.0000 -0.1269654533
C   C26       1.0  0.85865  0.54071  0.87014  1.0000 -0.1269654533
C   C27       1.0  0.54071  0.87014  0.85865  1.0000 -0.1269654533
C   C28       1.0  0.12986  0.14135  0.45929  1.0000 -0.1269654533
C   C29       1.0  0.14135  0.45929  0.12986  1.0000 -0.1269654533
C   C30       1.0  0.45929  0.12986  0.14135  1.0000 -0.1269654533
C   C31       1.0  0.83798  0.89639  0.60623  1.0000 -0.1235693097
C   C32       1.0  0.89639  0.60623  0.83798  1.0000 -0.1235693097
C   C33       1.0  0.60623  0.83798  0.89639  1.0000 -0.1235693097
C   C34       1.0  0.16202  0.10361  0.39377  1.0000 -0.1235693097
C   C35       1.0  0.10361  0.39377  0.16202  1.0000 -0.1235693097
C   C36       1.0  0.39377  0.16202  0.10361  1.0000 -0.1235693097
C   C37       1.0  0.98181  0.09208  0.78001  1.0000 -0.0669429576
C   C38       1.0  0.09208  0.78001  0.98181  1.0000 -0.0669429576
C   C39       1.0  0.78001  0.98181  0.09208  1.0000 -0.0669429576
C   C40       1.0  0.01819  0.90792  0.21999  1.0000 -0.0669429576
C   C41       1.0  0.90792  0.21999  0.01819  1.0000 -0.0669429576
C   C42       1.0  0.21999  0.01819  0.90792  1.0000 -0.0669429576
C   C43       1.0  0.15252  0.24685  0.88413  1.0000 -0.2231711746
C   C44       1.0  0.24685  0.88413  0.15252  1.0000 -0.2231711746
C   C45       1.0  0.88413  0.15252  0.24685  1.0000 -0.2231711746
C   C46       1.0  0.84748  0.75315  0.11587  1.0000 -0.2231711746
C   C47       1.0  0.75315  0.11587  0.84748  1.0000 -0.2231711746
C   C48       1.0  0.11587  0.84748  0.75315  1.0000 -0.2231711746
C   C49       1.0  0.18786  0.21307  0.81807  1.0000 0.294916898
C   C50       1.0  0.21307  0.81807  0.18786  1.0000 0.294916898
C   C51       1.0  0.81807  0.18786  0.21307  1.0000 0.294916898
C   C52       1.0  0.81214  0.78693  0.18193  1.0000 0.294916898
C   C53       1.0  0.78693  0.18193  0.81214  1.0000 0.294916898
C   C54       1.0  0.18193  0.81214  0.78693  1.0000 0.2953004836
N   N1        1.0  0.22178  0.07620  0.65222  1.0000 -0.2491345406
N   N2        1.0  0.07620  0.65222  0.22178  1.0000 -0.2491345406
N   N3        1.0  0.65222  0.22178  0.07620  1.0000 -0.2491345406
N   N4        1.0  0.77822  0.92380  0.34778  1.0000 -0.2491345406
N   N5        1.0  0.92380  0.34778  0.77822  1.0000 -0.2491345406
N   N6        1.0  0.34778  0.77822  0.92380  1.0000 -0.2491345406
O   O1        1.0  0.55058  0.34375  0.84727  1.0000 -0.5313669444
O   O2        1.0  0.34375  0.84727  0.55058  1.0000 -0.5313669444
O   O3        1.0  0.84727  0.55058  0.34375  1.0000 -0.5313669444
O   O4        1.0  0.44942  0.65625  0.15273  1.0000 -0.5313669444
O   O5        1.0  0.65625  0.15273  0.44942  1.0000 -0.5313669444
O   O6        1.0  0.15273  0.44942  0.65625  1.0000 -0.5313669444
O   O7        1.0  0.46469  0.13507  0.64384  1.0000 -0.5452018977
O   O8        1.0  0.13507  0.64384  0.46469  1.0000 -0.5452018977
O   O9        1.0  0.64384  0.46469  0.13507  1.0000 -0.5452018977
O   O10       1.0  0.53531  0.86493  0.35616  1.0000 -0.5452018977
O   O11       1.0  0.86493  0.35616  0.53531  1.0000 -0.5452018977
O   O12       1.0  0.35616  0.53531  0.86493  1.0000 -0.5452018977
O   O13       1.0  0.34911  0.36397  0.91422  1.0000 -0.517936339
O   O14       1.0  0.36397  0.91422  0.34911  1.0000 -0.517936339
O   O15       1.0  0.91422  0.34911  0.36397  1.0000 -0.517936339
O   O16       1.0  0.65089  0.63603  0.08578  1.0000 -0.517936339
O   O17       1.0  0.63603  0.08578  0.65089  1.0000 -0.517936339
O   O18       1.0  0.08578  0.65089  0.63603  1.0000 -0.517936339
