# DDEC6 charges by PACMAN v1.1 (https://github.com/mtap-research/PACMAN-charge/)
data_2007[Zn][ths]3[ASR]1
_chemical_formula_sum              "Zn12 H96 C144 I24 N48"
_cell_length_a       19.3008
_cell_length_b       19.3008
_cell_length_c       31.842
_cell_angle_alpha    78.2401
_cell_angle_beta     101.76
_cell_angle_gamma    134.882

_symmetry_space_group_name_H-M    "P 1"
_symmetry_Int_Tables_number       1

loop_
  _symmetry_equiv_pos_as_xyz
  'x, y, z'

loop_
  _atom_site_type_symbol
  _atom_site_label
  _atom_site_symmetry_multiplicity
  _atom_site_fract_x
  _atom_site_fract_y
  _atom_site_fract_z
  _atom_site_occupancy
  _atom_site_charge
Zn  Zn1       1.0  0.78410  0.03610  0.93716  1.0000 0.4652892085
Zn  Zn2       1.0  0.96390  0.21590  0.43716  1.0000 0.4643632801
Zn  Zn3       1.0  0.29255  0.96549  0.76811  1.0000 0.4377953292
Zn  Zn4       1.0  0.03451  0.70745  0.26811  1.0000 0.4377953292
Zn  Zn5       1.0  0.71750  0.53834  0.08066  1.0000 0.4524278821
Zn  Zn6       1.0  0.46166  0.28250  0.58066  1.0000 0.4524278821
Zn  Zn7       1.0  0.03610  0.78410  0.56284  1.0000 0.4652892085
Zn  Zn8       1.0  0.21590  0.96390  0.06284  1.0000 0.4643632801
Zn  Zn9       1.0  0.96549  0.29255  0.73189  1.0000 0.4377953292
Zn  Zn10      1.0  0.70745  0.03451  0.23189  1.0000 0.4377953292
Zn  Zn11      1.0  0.53834  0.71750  0.41934  1.0000 0.4524278821
Zn  Zn12      1.0  0.28250  0.46166  0.91934  1.0000 0.4524278821
H   H1        1.0  0.36810  0.33970  0.01640  1.0000 0.1385078652
H   H2        1.0  0.66030  0.63190  0.51640  1.0000 0.1385078652
H   H3        1.0  0.40640  0.14740  0.89660  1.0000 0.1309607706
H   H4        1.0  0.85260  0.59360  0.39660  1.0000 0.1309607706
H   H5        1.0  0.41420  0.08600  0.84430  1.0000 0.1071609553
H   H6        1.0  0.91400  0.58580  0.34430  1.0000 0.1071609553
H   H7        1.0  0.65120  0.41080  0.01380  1.0000 0.1071609553
H   H8        1.0  0.58920  0.34880  0.51380  1.0000 0.1071609553
H   H9        1.0  0.51080  0.28980  0.97210  1.0000 0.1385078652
H   H10       1.0  0.71020  0.48920  0.47210  1.0000 0.1385078652
H   H11       1.0  0.12370  0.99410  0.85350  1.0000 0.1385078652
H   H12       1.0  0.00590  0.87630  0.35350  1.0000 0.1385078652
H   H13       1.0  0.51270  0.46010  0.05550  1.0000 0.1071609553
H   H14       1.0  0.53990  0.48730  0.55550  1.0000 0.1071609553
H   H15       1.0  0.48840  0.17120  0.65540  1.0000 0.1071609553
H   H16       1.0  0.82880  0.51160  0.15540  1.0000 0.1071609553
H   H17       1.0  0.59980  0.20680  0.71440  1.0000 0.1309607706
H   H18       1.0  0.79320  0.40020  0.21440  1.0000 0.1309607706
H   H19       1.0  0.66630  0.44830  0.61140  1.0000 0.1027017824
H   H20       1.0  0.55170  0.33370  0.11140  1.0000 0.1027017824
H   H21       1.0  0.08850  0.82350  0.72720  1.0000 0.1027017824
H   H22       1.0  0.17650  0.91150  0.22720  1.0000 0.1027017824
H   H23       1.0  0.68510  0.15550  0.80570  1.0000 0.1244341167
H   H24       1.0  0.84450  0.31490  0.30570  1.0000 0.1244341167
H   H25       1.0  0.67110  0.04190  0.85600  1.0000 0.1071609553
H   H26       1.0  0.95810  0.32890  0.35600  1.0000 0.1071609553
H   H27       1.0  0.92720  0.25200  0.91560  1.0000 0.1071609553
H   H28       1.0  0.74800  0.07280  0.41560  1.0000 0.1071609553
H   H29       1.0  0.94980  0.65720  0.72690  1.0000 0.1385078652
H   H30       1.0  0.34280  0.05020  0.22690  1.0000 0.1385078652
H   H31       1.0  0.22700  0.77480  0.81630  1.0000 0.1071609553
H   H32       1.0  0.22520  0.77300  0.31630  1.0000 0.1071609553
H   H33       1.0  0.95110  0.37110  0.86530  1.0000 0.1385078652
H   H34       1.0  0.62890  0.04890  0.36530  1.0000 0.1385078652
H   H35       1.0  0.78180  0.49120  0.66870  1.0000 0.1309607706
H   H36       1.0  0.50880  0.21820  0.16870  1.0000 0.1309607706
H   H37       1.0  0.09160  0.60860  0.81950  1.0000 0.1385078652
H   H38       1.0  0.39140  0.90840  0.31950  1.0000 0.1385078652
H   H39       1.0  0.10550  0.14350  0.00310  1.0000 0.1385078652
H   H40       1.0  0.85650  0.89450  0.50310  1.0000 0.1385078652
H   H41       1.0  0.03700  0.08580  0.87930  1.0000 0.1385078652
H   H42       1.0  0.91420  0.96300  0.37930  1.0000 0.1385078652
H   H43       1.0  0.89890  0.05630  0.87910  1.0000 0.1027017824
H   H44       1.0  0.94370  0.10110  0.37910  1.0000 0.1027017824
H   H45       1.0  0.96330  0.11050  0.00020  1.0000 0.1027017824
H   H46       1.0  0.88950  0.03670  0.50020  1.0000 0.1027017824
H   H47       1.0  0.14040  0.93760  0.80240  1.0000 0.1027017824
H   H48       1.0  0.06240  0.85960  0.30240  1.0000 0.1027017824
H   H49       1.0  0.33970  0.36810  0.48360  1.0000 0.1385078652
H   H50       1.0  0.63190  0.66030  0.98360  1.0000 0.1385078652
H   H51       1.0  0.14740  0.40640  0.60340  1.0000 0.1309607706
H   H52       1.0  0.59360  0.85260  0.10340  1.0000 0.1309607706
H   H53       1.0  0.08600  0.41420  0.65570  1.0000 0.1071609553
H   H54       1.0  0.58580  0.91400  0.15570  1.0000 0.1071609553
H   H55       1.0  0.41080  0.65120  0.48620  1.0000 0.1071609553
H   H56       1.0  0.34880  0.58920  0.98620  1.0000 0.1071609553
H   H57       1.0  0.28980  0.51080  0.52790  1.0000 0.1385078652
H   H58       1.0  0.48920  0.71020  0.02790  1.0000 0.1385078652
H   H59       1.0  0.99410  0.12370  0.64650  1.0000 0.1385078652
H   H60       1.0  0.87630  0.00590  0.14650  1.0000 0.1385078652
H   H61       1.0  0.46010  0.51270  0.44450  1.0000 0.1071609553
H   H62       1.0  0.48730  0.53990  0.94450  1.0000 0.1071609553
H   H63       1.0  0.17120  0.48840  0.84460  1.0000 0.1071609553
H   H64       1.0  0.51160  0.82880  0.34460  1.0000 0.1071609553
H   H65       1.0  0.20680  0.59980  0.78560  1.0000 0.1309607706
H   H66       1.0  0.40020  0.79320  0.28560  1.0000 0.1309607706
H   H67       1.0  0.44830  0.66630  0.88860  1.0000 0.1027017824
H   H68       1.0  0.33370  0.55170  0.38860  1.0000 0.0888984115
H   H69       1.0  0.82350  0.08850  0.77280  1.0000 0.1027017824
H   H70       1.0  0.91150  0.17650  0.27280  1.0000 0.1027017824
H   H71       1.0  0.15550  0.68510  0.69430  1.0000 0.1244341167
H   H72       1.0  0.31490  0.84450  0.19430  1.0000 0.1244341167
H   H73       1.0  0.04190  0.67110  0.64400  1.0000 0.1071609553
H   H74       1.0  0.32890  0.95810  0.14400  1.0000 0.1071609553
H   H75       1.0  0.25200  0.92720  0.58440  1.0000 0.1071609553
H   H76       1.0  0.07280  0.74800  0.08440  1.0000 0.1071609553
H   H77       1.0  0.65720  0.94980  0.77310  1.0000 0.1385078652
H   H78       1.0  0.05020  0.34280  0.27310  1.0000 0.1385078652
H   H79       1.0  0.77480  0.22700  0.68370  1.0000 0.1071609553
H   H80       1.0  0.77300  0.22520  0.18370  1.0000 0.1071609553
H   H81       1.0  0.37110  0.95110  0.63470  1.0000 0.1385078652
H   H82       1.0  0.04890  0.62890  0.13470  1.0000 0.1385078652
H   H83       1.0  0.49120  0.78180  0.83130  1.0000 0.1309607706
H   H84       1.0  0.21820  0.50880  0.33130  1.0000 0.1309607706
H   H85       1.0  0.60860  0.09160  0.68050  1.0000 0.1385078652
H   H86       1.0  0.90840  0.39140  0.18050  1.0000 0.1385078652
H   H87       1.0  0.14350  0.10550  0.49690  1.0000 0.1385078652
H   H88       1.0  0.89450  0.85650  0.99690  1.0000 0.1385078652
H   H89       1.0  0.08580  0.03700  0.62070  1.0000 0.1385078652
H   H90       1.0  0.96300  0.91420  0.12070  1.0000 0.1385078652
H   H91       1.0  0.05630  0.89890  0.62090  1.0000 0.1027017824
H   H92       1.0  0.10110  0.94370  0.12090  1.0000 0.1027017824
H   H93       1.0  0.11050  0.96330  0.49980  1.0000 0.1027017824
H   H94       1.0  0.03670  0.88950  0.99980  1.0000 0.1027017824
H   H95       1.0  0.93760  0.14040  0.69760  1.0000 0.1027017824
H   H96       1.0  0.85960  0.06240  0.19760  1.0000 0.1027017824
C   C1        1.0  0.08479  0.11521  0.94199  1.0000 0.0604390608
C   C2        1.0  0.88479  0.91521  0.44199  1.0000 0.0604390608
C   C3        1.0  0.33300  0.22280  0.96396  1.0000 0.3635176452
C   C4        1.0  0.77720  0.66700  0.46396  1.0000 0.3635176452
C   C5        1.0  0.42365  0.30035  0.99015  1.0000 0.0736095685
C   C6        1.0  0.69965  0.57635  0.49015  1.0000 0.0801541701
C   C7        1.0  0.26079  0.12481  0.91094  1.0000 0.3685945192
C   C8        1.0  0.87519  0.73921  0.41094  1.0000 0.3685945192
C   C9        1.0  0.17471  0.13629  0.94190  1.0000 0.3685945192
C   C10       1.0  0.86371  0.82529  0.44190  1.0000 0.3685945192
C   C11       1.0  0.26591  0.08149  0.87947  1.0000 0.0801541701
C   C12       1.0  0.91851  0.73409  0.37947  1.0000 0.0801541701
C   C13       1.0  0.42540  0.35280  0.01532  1.0000 -0.1491389362
C   C14       1.0  0.64720  0.57460  0.51532  1.0000 -0.1491389362
C   C15       1.0  0.35074  0.10546  0.87709  1.0000 -0.140620778
C   C16       1.0  0.89454  0.64926  0.37709  1.0000 -0.140620778
C   C17       1.0  0.35445  0.06795  0.84589  1.0000 0.0801541701
C   C18       1.0  0.93205  0.64555  0.34589  1.0000 0.0801541701
C   C19       1.0  0.59268  0.39572  0.01430  1.0000 0.0801541701
C   C20       1.0  0.60428  0.40732  0.51430  1.0000 0.0801541701
C   C21       1.0  0.50904  0.32316  0.98941  1.0000 -0.140620778
C   C22       1.0  0.67684  0.49096  0.48941  1.0000 -0.140620778
C   C23       1.0  0.18507  0.01553  0.85170  1.0000 -0.140620778
C   C24       1.0  0.98447  0.81493  0.35170  1.0000 -0.140620778
C   C25       1.0  0.51162  0.42398  0.03865  1.0000 0.0736095685
C   C26       1.0  0.57602  0.48838  0.53865  1.0000 0.0736095685
C   C27       1.0  0.54880  0.23740  0.65846  1.0000 0.0801541701
C   C28       1.0  0.76260  0.45120  0.15846  1.0000 0.0801541701
C   C29       1.0  0.61494  0.25806  0.69368  1.0000 -0.1491389362
C   C30       1.0  0.74194  0.38506  0.19368  1.0000 -0.1491389362
C   C31       1.0  0.65215  0.39845  0.63285  1.0000 0.0888984115
C   C32       1.0  0.60155  0.34785  0.13285  1.0000 0.0888984115
C   C33       1.0  0.08920  0.77880  0.74594  1.0000 0.0736095685
C   C34       1.0  0.22120  0.91080  0.24594  1.0000 0.0736095685
C   C35       1.0  0.73640  0.17700  0.82775  1.0000 -0.1491389362
C   C36       1.0  0.82300  0.26360  0.32775  1.0000 -0.1491389362
C   C37       1.0  0.77502  0.38358  0.73571  1.0000 0.3751737209
C   C38       1.0  0.61642  0.22498  0.23571  1.0000 0.3751737209
C   C39       1.0  0.83281  0.35019  0.79690  1.0000 0.3685945192
C   C40       1.0  0.64981  0.16719  0.29690  1.0000 0.3685945192
C   C41       1.0  0.72817  0.10963  0.85808  1.0000 0.0736095685
C   C42       1.0  0.89037  0.27183  0.35808  1.0000 0.0736095685
C   C43       1.0  0.82028  0.27632  0.82979  1.0000 0.0538376862
C   C44       1.0  0.72368  0.17972  0.32979  1.0000 0.0538376862
C   C45       1.0  0.87788  0.23212  0.89263  1.0000 0.0888984115
C   C46       1.0  0.76788  0.12212  0.39263  1.0000 0.0888984115
C   C47       1.0  0.00616  0.61404  0.77277  1.0000 0.0604390608
C   C48       1.0  0.38596  0.99384  0.27277  1.0000 0.0604390608
C   C49       1.0  0.00639  0.68001  0.74559  1.0000 -0.140620778
C   C50       1.0  0.31999  0.99361  0.24559  1.0000 -0.140620778
C   C51       1.0  0.91836  0.50744  0.77166  1.0000 0.3685945192
C   C52       1.0  0.49256  0.08164  0.27166  1.0000 0.3685945192
C   C53       1.0  0.16959  0.75041  0.79795  1.0000 0.0801541701
C   C54       1.0  0.24959  0.83041  0.29795  1.0000 0.0801541701
C   C55       1.0  0.70272  0.35388  0.69824  1.0000 0.0538376862
C   C56       1.0  0.64612  0.29728  0.19824  1.0000 0.0538376862
C   C57       1.0  0.89252  0.30388  0.86299  1.0000 -0.140620778
C   C58       1.0  0.69612  0.10748  0.36299  1.0000 -0.140620778
C   C59       1.0  0.72140  0.42460  0.66688  1.0000 -0.140620778
C   C60       1.0  0.57540  0.27860  0.16688  1.0000 -0.140620778
C   C61       1.0  0.08962  0.65138  0.79975  1.0000 -0.157213347
C   C62       1.0  0.34862  0.91038  0.29975  1.0000 -0.157213347
C   C63       1.0  0.06319  0.12421  0.97737  1.0000 -0.140620778
C   C64       1.0  0.87579  0.93681  0.47737  1.0000 -0.140620778
C   C65       1.0  0.02270  0.09050  0.90482  1.0000 -0.140620778
C   C66       1.0  0.90950  0.97730  0.40482  1.0000 -0.140620778
C   C67       1.0  0.94068  0.07292  0.90499  1.0000 0.0888984115
C   C68       1.0  0.92708  0.05932  0.40499  1.0000 0.0888984115
C   C69       1.0  0.97831  0.10469  0.97529  1.0000 0.0801541701
C   C70       1.0  0.89531  0.02169  0.47529  1.0000 0.0801541701
C   C71       1.0  0.19560  0.98180  0.82150  1.0000 0.0801541701
C   C72       1.0  0.01820  0.80440  0.32150  1.0000 0.0801541701
C   C73       1.0  0.11521  0.08479  0.55801  1.0000 0.0604390608
C   C74       1.0  0.91521  0.88479  0.05801  1.0000 0.0604390608
C   C75       1.0  0.22280  0.33300  0.53604  1.0000 0.3635176452
C   C76       1.0  0.66700  0.77720  0.03604  1.0000 0.3635176452
C   C77       1.0  0.30035  0.42365  0.50985  1.0000 0.0736095685
C   C78       1.0  0.57635  0.69965  0.00985  1.0000 0.0736095685
C   C79       1.0  0.12481  0.26079  0.58906  1.0000 0.3685945192
C   C80       1.0  0.73921  0.87519  0.08906  1.0000 0.3685945192
C   C81       1.0  0.13629  0.17471  0.55810  1.0000 0.3685945192
C   C82       1.0  0.82529  0.86371  0.05810  1.0000 0.3685945192
C   C83       1.0  0.08149  0.26591  0.62053  1.0000 0.0801541701
C   C84       1.0  0.73409  0.91851  0.12053  1.0000 0.0736095685
C   C85       1.0  0.35280  0.42540  0.48468  1.0000 -0.1491389362
C   C86       1.0  0.57460  0.64720  0.98468  1.0000 -0.1491389362
C   C87       1.0  0.10546  0.35074  0.62291  1.0000 -0.140620778
C   C88       1.0  0.64926  0.89454  0.12291  1.0000 -0.140620778
C   C89       1.0  0.06795  0.35445  0.65411  1.0000 0.0801541701
C   C90       1.0  0.64555  0.93205  0.15411  1.0000 0.0801541701
C   C91       1.0  0.39572  0.59268  0.48570  1.0000 0.0801541701
C   C92       1.0  0.40732  0.60428  0.98570  1.0000 0.0801541701
C   C93       1.0  0.32316  0.50904  0.51059  1.0000 -0.140620778
C   C94       1.0  0.49096  0.67684  0.01059  1.0000 -0.140620778
C   C95       1.0  0.01553  0.18507  0.64830  1.0000 -0.140620778
C   C96       1.0  0.81493  0.98447  0.14830  1.0000 -0.140620778
C   C97       1.0  0.42398  0.51162  0.46135  1.0000 0.0736095685
C   C98       1.0  0.48838  0.57602  0.96135  1.0000 0.0736095685
C   C99       1.0  0.23740  0.54880  0.84154  1.0000 0.0801541701
C   C100      1.0  0.45120  0.76260  0.34154  1.0000 0.0801541701
C   C101      1.0  0.25806  0.61494  0.80632  1.0000 -0.157213347
C   C102      1.0  0.38506  0.74194  0.30632  1.0000 -0.157213347
C   C103      1.0  0.39845  0.65215  0.86715  1.0000 0.0888984115
C   C104      1.0  0.34785  0.60155  0.36715  1.0000 0.0888984115
C   C105      1.0  0.77880  0.08920  0.75406  1.0000 0.0736095685
C   C106      1.0  0.91080  0.22120  0.25406  1.0000 0.0736095685
C   C107      1.0  0.17700  0.73640  0.67225  1.0000 -0.1491389362
C   C108      1.0  0.26360  0.82300  0.17225  1.0000 -0.1491389362
C   C109      1.0  0.38358  0.77502  0.76429  1.0000 0.3751737209
C   C110      1.0  0.22498  0.61642  0.26429  1.0000 0.3751737209
C   C111      1.0  0.35019  0.83281  0.70310  1.0000 0.3685945192
C   C112      1.0  0.16719  0.64981  0.20310  1.0000 0.3685945192
C   C113      1.0  0.10963  0.72817  0.64192  1.0000 0.0736095685
C   C114      1.0  0.27183  0.89037  0.14192  1.0000 0.0736095685
C   C115      1.0  0.27632  0.82028  0.67021  1.0000 0.0538376862
C   C116      1.0  0.17972  0.72368  0.17021  1.0000 0.0538376862
C   C117      1.0  0.23212  0.87788  0.60737  1.0000 0.0888984115
C   C118      1.0  0.12212  0.76788  0.10737  1.0000 0.0888984115
C   C119      1.0  0.61404  0.00616  0.72723  1.0000 0.0604390608
C   C120      1.0  0.99384  0.38596  0.22723  1.0000 0.0604390608
C   C121      1.0  0.68001  0.00639  0.75441  1.0000 -0.140620778
C   C122      1.0  0.99361  0.31999  0.25441  1.0000 -0.140620778
C   C123      1.0  0.50744  0.91836  0.72834  1.0000 0.3685945192
C   C124      1.0  0.08164  0.49256  0.22834  1.0000 0.3685945192
C   C125      1.0  0.75041  0.16959  0.70205  1.0000 0.0801541701
C   C126      1.0  0.83041  0.24959  0.20205  1.0000 0.0801541701
C   C127      1.0  0.35388  0.70272  0.80176  1.0000 0.0538376862
C   C128      1.0  0.29728  0.64612  0.30176  1.0000 0.0538376862
C   C129      1.0  0.30388  0.89252  0.63701  1.0000 -0.140620778
C   C130      1.0  0.10748  0.69612  0.13701  1.0000 -0.140620778
C   C131      1.0  0.42460  0.72140  0.83312  1.0000 -0.140620778
C   C132      1.0  0.27860  0.57540  0.33312  1.0000 -0.140620778
C   C133      1.0  0.65138  0.08962  0.70025  1.0000 -0.157213347
C   C134      1.0  0.91038  0.34862  0.20025  1.0000 -0.157213347
C   C135      1.0  0.12421  0.06319  0.52263  1.0000 -0.140620778
C   C136      1.0  0.93681  0.87579  0.02263  1.0000 -0.140620778
C   C137      1.0  0.09050  0.02270  0.59518  1.0000 -0.140620778
C   C138      1.0  0.97730  0.90950  0.09518  1.0000 -0.140620778
C   C139      1.0  0.07292  0.94068  0.59501  1.0000 0.0888984115
C   C140      1.0  0.05932  0.92708  0.09501  1.0000 0.0888984115
C   C141      1.0  0.10469  0.97831  0.52471  1.0000 0.0801541701
C   C142      1.0  0.02169  0.89531  0.02471  1.0000 0.0801541701
C   C143      1.0  0.98180  0.19560  0.67850  1.0000 0.0801541701
C   C144      1.0  0.80440  0.01820  0.17850  1.0000 0.0801541701
I   I1        1.0  0.45178  0.00544  0.78885  1.0000 -0.4392248211
I   I2        1.0  0.99456  0.54822  0.28885  1.0000 -0.4392248211
I   I3        1.0  0.66356  0.87352  0.90300  1.0000 -0.4554924933
I   I4        1.0  0.12648  0.33644  0.40300  1.0000 -0.4554924933
I   I5        1.0  0.76949  0.06075  0.00897  1.0000 -0.4392248211
I   I6        1.0  0.93925  0.23051  0.50897  1.0000 -0.4392248211
I   I7        1.0  0.86584  0.61556  0.04362  1.0000 -0.4392248211
I   I8        1.0  0.38444  0.13416  0.54362  1.0000 -0.4392248211
I   I9        1.0  0.26912  0.03790  0.69715  1.0000 -0.4392248211
I   I10       1.0  0.96210  0.73088  0.19715  1.0000 -0.4392248211
I   I11       1.0  0.68846  0.62278  0.11537  1.0000 -0.4189076914
I   I12       1.0  0.37722  0.31154  0.61537  1.0000 -0.4189076914
I   I13       1.0  0.00544  0.45178  0.71115  1.0000 -0.4392248211
I   I14       1.0  0.54822  0.99456  0.21115  1.0000 -0.4392248211
I   I15       1.0  0.87352  0.66356  0.59700  1.0000 -0.4554924933
I   I16       1.0  0.33644  0.12648  0.09700  1.0000 -0.4554924933
I   I17       1.0  0.06075  0.76949  0.49103  1.0000 -0.4392248211
I   I18       1.0  0.23051  0.93925  0.99103  1.0000 -0.4392248211
I   I19       1.0  0.61556  0.86584  0.45638  1.0000 -0.4392248211
I   I20       1.0  0.13416  0.38444  0.95638  1.0000 -0.4392248211
I   I21       1.0  0.03790  0.26912  0.80285  1.0000 -0.4392248211
I   I22       1.0  0.73088  0.96210  0.30285  1.0000 -0.4392248211
I   I23       1.0  0.62278  0.68846  0.38463  1.0000 -0.4189076914
I   I24       1.0  0.31154  0.37722  0.88463  1.0000 -0.4189076914
N   N1        1.0  0.59367  0.44473  0.03878  1.0000 -0.1880725716
N   N2        1.0  0.55527  0.40633  0.53878  1.0000 -0.1880725716
N   N3        1.0  0.24976  0.19564  0.97015  1.0000 -0.3823367922
N   N4        1.0  0.80436  0.75024  0.47015  1.0000 -0.3823367922
N   N5        1.0  0.34283  0.19057  0.93479  1.0000 -0.3823367922
N   N6        1.0  0.80943  0.65717  0.43479  1.0000 -0.3823367922
N   N7        1.0  0.17533  0.09707  0.91178  1.0000 -0.3905546584
N   N8        1.0  0.90293  0.82467  0.41178  1.0000 -0.3905546584
N   N9        1.0  0.91682  0.07798  0.93967  1.0000 -0.1880725716
N   N10       1.0  0.92202  0.08318  0.43967  1.0000 -0.1880725716
N   N11       1.0  0.27870  0.00790  0.81802  1.0000 -0.1803429854
N   N12       1.0  0.99210  0.72130  0.31802  1.0000 -0.1803429854
N   N13       1.0  0.17067  0.81453  0.77155  1.0000 -0.1803429854
N   N14       1.0  0.18547  0.82933  0.27155  1.0000 -0.1803429854
N   N15       1.0  0.91169  0.44511  0.80246  1.0000 -0.3959995179
N   N16       1.0  0.55489  0.08831  0.30246  1.0000 -0.3959995179
N   N17       1.0  0.76267  0.31473  0.76417  1.0000 -0.3905546584
N   N18       1.0  0.68527  0.23733  0.26417  1.0000 -0.3905546584
N   N19       1.0  0.79826  0.13654  0.89058  1.0000 -0.1880725716
N   N20       1.0  0.86346  0.20174  0.39058  1.0000 -0.1880725716
N   N21       1.0  0.56659  0.30681  0.62868  1.0000 -0.1803429854
N   N22       1.0  0.69319  0.43341  0.12868  1.0000 -0.1803429854
N   N23       1.0  0.85181  0.48059  0.73813  1.0000 -0.3905546584
N   N24       1.0  0.51941  0.14819  0.23813  1.0000 -0.3905546584
N   N25       1.0  0.44473  0.59367  0.46122  1.0000 -0.1880725716
N   N26       1.0  0.40633  0.55527  0.96122  1.0000 -0.1880725716
N   N27       1.0  0.19564  0.24976  0.52985  1.0000 -0.3823367922
N   N28       1.0  0.75024  0.80436  0.02985  1.0000 -0.3823367922
N   N29       1.0  0.19057  0.34283  0.56521  1.0000 -0.3823367922
N   N30       1.0  0.65717  0.80943  0.06521  1.0000 -0.3823367922
N   N31       1.0  0.09707  0.17533  0.58822  1.0000 -0.3905546584
N   N32       1.0  0.82467  0.90293  0.08822  1.0000 -0.3905546584
N   N33       1.0  0.07798  0.91682  0.56033  1.0000 -0.1880725716
N   N34       1.0  0.08318  0.92202  0.06033  1.0000 -0.1880725716
N   N35       1.0  0.00790  0.27870  0.68198  1.0000 -0.1880725716
N   N36       1.0  0.72130  0.99210  0.18198  1.0000 -0.1803429854
N   N37       1.0  0.81453  0.17067  0.72845  1.0000 -0.1803429854
N   N38       1.0  0.82933  0.18547  0.22845  1.0000 -0.1803429854
N   N39       1.0  0.44511  0.91169  0.69754  1.0000 -0.3959995179
N   N40       1.0  0.08831  0.55489  0.19754  1.0000 -0.3959995179
N   N41       1.0  0.31473  0.76267  0.73583  1.0000 -0.3905546584
N   N42       1.0  0.23733  0.68527  0.23583  1.0000 -0.3905546584
N   N43       1.0  0.13654  0.79826  0.60942  1.0000 -0.1880725716
N   N44       1.0  0.20174  0.86346  0.10942  1.0000 -0.1880725716
N   N45       1.0  0.30681  0.56659  0.87132  1.0000 -0.1803429854
N   N46       1.0  0.43341  0.69319  0.37132  1.0000 -0.1803429854
N   N47       1.0  0.48059  0.85181  0.76187  1.0000 -0.3905546584
N   N48       1.0  0.14819  0.51941  0.26187  1.0000 -0.3905546584
