# DDEC6 charges by PACMAN v1.1 (https://github.com/mtap-research/PACMAN-charge/)
data_2007[Fe][dia]3[ASR]19
_chemical_formula_sum              "Fe12 H24 C24 O48"
_cell_length_a       11.4082
_cell_length_b       9.8855
_cell_length_c       18.4668
_cell_angle_alpha    90
_cell_angle_beta     126.729
_cell_angle_gamma    90

_symmetry_space_group_name_H-M    "P 1"
_symmetry_Int_Tables_number       1

loop_
  _symmetry_equiv_pos_as_xyz
  'x, y, z'

loop_
  _atom_site_type_symbol
  _atom_site_label
  _atom_site_symmetry_multiplicity
  _atom_site_fract_x
  _atom_site_fract_y
  _atom_site_fract_z
  _atom_site_occupancy
  _atom_site_charge
Fe  Fe1       1.0  0.62363  0.92392  0.86709  1.0000 0.9006440096
Fe  Fe2       1.0  0.37637  0.42392  0.63291  1.0000 0.9006440096
Fe  Fe3       1.0  0.37637  0.07608  0.13291  1.0000 0.9006440096
Fe  Fe4       1.0  0.62363  0.57608  0.36709  1.0000 0.9006440096
Fe  Fe5       1.0  0.56843  0.88601  0.30824  1.0000 0.9080863498
Fe  Fe6       1.0  0.43157  0.38601  0.19176  1.0000 0.9080863498
Fe  Fe7       1.0  0.43157  0.11399  0.69176  1.0000 0.9080863498
Fe  Fe8       1.0  0.56843  0.61399  0.80824  1.0000 0.9080863498
Fe  Fe9       1.0  0.50000  0.00000  0.00000  1.0000 0.9431157016
Fe  Fe10      1.0  0.50000  0.50000  0.50000  1.0000 0.9431157016
Fe  Fe11      1.0  0.00000  0.00000  0.00000  1.0000 0.9597816967
Fe  Fe12      1.0  1.00000  0.50000  0.50000  1.0000 0.9597816967
H   H1        1.0  0.48650  0.76210  0.63170  1.0000 0.120363115
H   H2        1.0  0.51350  0.26210  0.86830  1.0000 0.120363115
H   H3        1.0  0.51350  0.23790  0.36830  1.0000 0.120363115
H   H4        1.0  0.48650  0.73790  0.13170  1.0000 0.120363115
H   H5        1.0  0.21630  0.04290  0.73980  1.0000 0.1295951862
H   H6        1.0  0.78370  0.54290  0.76020  1.0000 0.1295951862
H   H7        1.0  0.78370  0.95710  0.26020  1.0000 0.1295951862
H   H8        1.0  0.21630  0.45710  0.23980  1.0000 0.1295951862
H   H9        1.0  0.51380  0.62020  0.95570  1.0000 0.120363115
H   H10       1.0  0.48620  0.12020  0.54430  1.0000 0.120363115
H   H11       1.0  0.48620  0.37980  0.04430  1.0000 0.120363115
H   H12       1.0  0.51380  0.87980  0.45570  1.0000 0.120363115
H   H13       1.0  0.75360  0.20530  0.77660  1.0000 0.120363115
H   H14       1.0  0.24640  0.70530  0.72340  1.0000 0.120363115
H   H15       1.0  0.24640  0.79470  0.22340  1.0000 0.120363115
H   H16       1.0  0.75360  0.29470  0.27660  1.0000 0.120363115
H   H17       1.0  0.76720  0.16030  0.07040  1.0000 0.120363115
H   H18       1.0  0.23280  0.66030  0.42960  1.0000 0.120363115
H   H19       1.0  0.23280  0.83970  0.92960  1.0000 0.120363115
H   H20       1.0  0.76720  0.33970  0.57040  1.0000 0.120363115
H   H21       1.0  0.97610  0.70540  0.98130  1.0000 0.1295951862
H   H22       1.0  0.02390  0.20540  0.51870  1.0000 0.1295951862
H   H23       1.0  0.02390  0.29460  0.01870  1.0000 0.1295951862
H   H24       1.0  0.97610  0.79460  0.48130  1.0000 0.1295951862
C   C1        1.0  0.49350  0.83180  0.66796  1.0000 0.4360102989
C   C2        1.0  0.50650  0.33180  0.83204  1.0000 0.4360102989
C   C3        1.0  0.50650  0.16820  0.33204  1.0000 0.4360102989
C   C4        1.0  0.49350  0.66820  0.16796  1.0000 0.4360102989
C   C5        1.0  0.30800  0.02050  0.79190  1.0000 0.4263254473
C   C6        1.0  0.69200  0.52050  0.70810  1.0000 0.4263254473
C   C7        1.0  0.69200  0.97950  0.20810  1.0000 0.4263254473
C   C8        1.0  0.30800  0.47950  0.29190  1.0000 0.4263254473
C   C9        1.0  0.52520  0.71180  0.94990  1.0000 0.4263254473
C   C10       1.0  0.47480  0.21180  0.55010  1.0000 0.4263254473
C   C11       1.0  0.47480  0.28820  0.05010  1.0000 0.4263254473
C   C12       1.0  0.52520  0.78820  0.44990  1.0000 0.4263254473
C   C13       1.0  0.76950  0.14130  0.81850  1.0000 0.4242626034
C   C14       1.0  0.23050  0.64130  0.68150  1.0000 0.4242626034
C   C15       1.0  0.23050  0.85870  0.18150  1.0000 0.4263254473
C   C16       1.0  0.76950  0.35870  0.31850  1.0000 0.4242626034
C   C17       1.0  0.77470  0.10420  0.03290  1.0000 0.4627591147
C   C18       1.0  0.22530  0.60420  0.46710  1.0000 0.4627591147
C   C19       1.0  0.22530  0.89580  0.96710  1.0000 0.4655997061
C   C20       1.0  0.77470  0.39580  0.53290  1.0000 0.4627591147
C   C21       1.0  0.87620  0.72240  0.94151  1.0000 0.4627591147
C   C22       1.0  0.12380  0.22240  0.55849  1.0000 0.4627591147
C   C23       1.0  0.12380  0.27760  0.05849  1.0000 0.4627591147
C   C24       1.0  0.87620  0.77760  0.44151  1.0000 0.4627591147
O   O1        1.0  0.55872  0.80484  0.75128  1.0000 -0.54139776
O   O2        1.0  0.44128  0.30484  0.74872  1.0000 -0.54139776
O   O3        1.0  0.44128  0.19516  0.24872  1.0000 -0.54139776
O   O4        1.0  0.55872  0.69516  0.25128  1.0000 -0.54139776
O   O5        1.0  0.43860  0.94178  0.63061  1.0000 -0.4707712429
O   O6        1.0  0.56140  0.44178  0.86939  1.0000 -0.4707712429
O   O7        1.0  0.56140  0.05822  0.36939  1.0000 -0.4707712429
O   O8        1.0  0.43860  0.55822  0.13061  1.0000 -0.4707712429
O   O9        1.0  0.41200  0.01012  0.78454  1.0000 -0.5458209313
O   O10       1.0  0.58800  0.51012  0.71546  1.0000 -0.5458209313
O   O11       1.0  0.58800  0.98988  0.21546  1.0000 -0.5458209313
O   O12       1.0  0.41200  0.48988  0.28454  1.0000 -0.5458209313
O   O13       1.0  0.31700  0.00396  0.86088  1.0000 -0.4707712429
O   O14       1.0  0.68300  0.50396  0.63912  1.0000 -0.4707712429
O   O15       1.0  0.68300  0.99604  0.13912  1.0000 -0.4707712429
O   O16       1.0  0.31700  0.49604  0.36088  1.0000 -0.4707712429
O   O17       1.0  0.54579  0.74417  0.89150  1.0000 -0.54139776
O   O18       1.0  0.45421  0.24417  0.60850  1.0000 -0.54139776
O   O19       1.0  0.45421  0.25583  0.10850  1.0000 -0.54139776
O   O20       1.0  0.54579  0.75583  0.39150  1.0000 -0.54139776
O   O21       1.0  0.51900  0.79031  0.99975  1.0000 -0.4875703721
O   O22       1.0  0.48100  0.29031  0.50025  1.0000 -0.4875703721
O   O23       1.0  0.48100  0.20969  0.00025  1.0000 -0.4875703721
O   O24       1.0  0.51900  0.70969  0.49975  1.0000 -0.4875703721
O   O25       1.0  0.65635  0.08752  0.80495  1.0000 -0.54139776
O   O26       1.0  0.34365  0.58752  0.69505  1.0000 -0.54139776
O   O27       1.0  0.34365  0.91248  0.19505  1.0000 -0.54139776
O   O28       1.0  0.65635  0.41248  0.30495  1.0000 -0.54139776
O   O29       1.0  0.89770  0.11708  0.88156  1.0000 -0.4707712429
O   O30       1.0  0.10230  0.61708  0.61844  1.0000 -0.4707712429
O   O31       1.0  0.10230  0.88292  0.11844  1.0000 -0.4707712429
O   O32       1.0  0.89770  0.38292  0.38156  1.0000 -0.4707712429
O   O33       1.0  0.66380  0.02909  0.97721  1.0000 -0.5590705223
O   O34       1.0  0.33620  0.52909  0.52279  1.0000 -0.5590705223
O   O35       1.0  0.33620  0.97091  0.02279  1.0000 -0.5590705223
O   O36       1.0  0.66380  0.47091  0.47721  1.0000 -0.5590705223
O   O37       1.0  0.89010  0.10852  0.04095  1.0000 -0.483556322
O   O38       1.0  0.10990  0.60852  0.45905  1.0000 -0.4875703721
O   O39       1.0  0.10990  0.89148  0.95905  1.0000 -0.4875703721
O   O40       1.0  0.89010  0.39148  0.54095  1.0000 -0.4875703721
O   O41       1.0  0.83572  0.84483  0.93530  1.0000 -0.54139776
O   O42       1.0  0.16428  0.34483  0.56470  1.0000 -0.54139776
O   O43       1.0  0.16428  0.15517  0.06470  1.0000 -0.54139776
O   O44       1.0  0.83572  0.65517  0.43530  1.0000 -0.54139776
O   O45       1.0  0.79640  0.62403  0.90010  1.0000 -0.483556322
O   O46       1.0  0.20360  0.12403  0.59990  1.0000 -0.483556322
O   O47       1.0  0.20360  0.37597  0.09990  1.0000 -0.483556322
O   O48       1.0  0.79640  0.87597  0.40010  1.0000 -0.483556322
