# DDEC6 charges by PACMAN v1.1 (https://github.com/mtap-research/PACMAN-charge/)
data_2007[La][nan]3[ASR]3
_chemical_formula_sum              "La4 H60 C48 O24"
_cell_length_a       9.8785
_cell_length_b       11.1986
_cell_length_c       14.7456
_cell_angle_alpha    93.919
_cell_angle_beta     97.409
_cell_angle_gamma    104.517

_symmetry_space_group_name_H-M    "P 1"
_symmetry_Int_Tables_number       1

loop_
  _symmetry_equiv_pos_as_xyz
  'x, y, z'

loop_
  _atom_site_type_symbol
  _atom_site_label
  _atom_site_symmetry_multiplicity
  _atom_site_fract_x
  _atom_site_fract_y
  _atom_site_fract_z
  _atom_site_occupancy
  _atom_site_charge
La  La1       1.0  0.61803  0.47520  0.11755  1.0000 1.8736136009
La  La2       1.0  0.38197  0.52480  0.88245  1.0000 1.8736136009
La  La3       1.0  0.82418  0.42153  0.38526  1.0000 1.8210890342
La  La4       1.0  0.17582  0.57847  0.61474  1.0000 1.8210890342
H   H1        1.0  0.86400  0.11030  0.19280  1.0000 0.1088648931
H   H2        1.0  0.13600  0.88970  0.80720  1.0000 0.1088648931
H   H3        1.0  0.58790  0.09430  0.12000  1.0000 0.1088648931
H   H4        1.0  0.41210  0.90570  0.88000  1.0000 0.1088648931
H   H5        1.0  0.64600  0.07710  0.22080  1.0000 0.1174351095
H   H6        1.0  0.35400  0.92290  0.77920  1.0000 0.1174351095
H   H7        1.0  0.94990  0.13780  0.06760  1.0000 0.1022127605
H   H8        1.0  0.05010  0.86220  0.93240  1.0000 0.1022127605
H   H9        1.0  0.80350  0.13680  0.01170  1.0000 0.1088648931
H   H10       1.0  0.19650  0.86320  0.98830  1.0000 0.1088648931
H   H11       1.0  0.83230  0.94680  0.97400  1.0000 0.1088648931
H   H12       1.0  0.16770  0.05320  0.02600  1.0000 0.1088648931
H   H13       1.0  0.88620  0.93140  0.07590  1.0000 0.1088648931
H   H14       1.0  0.11380  0.06860  0.92410  1.0000 0.1088648931
H   H15       1.0  0.66710  0.88720  0.18150  1.0000 0.1174351095
H   H16       1.0  0.33290  0.11280  0.81850  1.0000 0.1174351095
H   H17       1.0  0.52480  0.88870  0.12120  1.0000 0.1022127605
H   H18       1.0  0.47520  0.11130  0.87880  1.0000 0.1022127605
H   H19       1.0  0.62470  0.92250  0.99850  1.0000 0.1088648931
H   H20       1.0  0.37530  0.07750  0.00150  1.0000 0.1088648931
H   H21       1.0  0.94530  0.76750  0.19110  1.0000 0.1174351095
H   H22       1.0  0.05470  0.23250  0.80890  1.0000 0.1174351095
H   H23       1.0  0.15890  0.82840  0.29970  1.0000 0.1088648931
H   H24       1.0  0.84110  0.17160  0.70030  1.0000 0.1088648931
H   H25       1.0  0.17300  0.86660  0.20040  1.0000 0.0903352995
H   H26       1.0  0.82700  0.13340  0.79960  1.0000 0.0903352995
H   H27       1.0  0.91350  0.58430  0.08850  1.0000 0.0768434678
H   H28       1.0  0.08650  0.41570  0.91150  1.0000 0.0768434678
H   H29       1.0  0.01800  0.70200  0.06130  1.0000 0.1022127605
H   H30       1.0  0.98200  0.29800  0.93870  1.0000 0.1022127605
H   H31       1.0  0.11480  0.53220  0.04810  1.0000 0.1022127605
H   H32       1.0  0.88520  0.46780  0.95190  1.0000 0.1022127605
H   H33       1.0  0.10460  0.51240  0.15170  1.0000 0.1174351095
H   H34       1.0  0.89540  0.48760  0.84830  1.0000 0.1174351095
H   H35       1.0  0.36520  0.79220  0.24770  1.0000 0.1022127605
H   H36       1.0  0.63480  0.20780  0.75230  1.0000 0.1022127605
H   H37       1.0  0.26840  0.67170  0.27690  1.0000 0.1174351095
H   H38       1.0  0.73160  0.32830  0.72310  1.0000 0.1174351095
H   H39       1.0  0.27650  0.72790  0.09360  1.0000 0.1022127605
H   H40       1.0  0.72350  0.27210  0.90640  1.0000 0.1022127605
H   H41       1.0  0.09180  0.23750  0.36110  1.0000 0.1088648931
H   H42       1.0  0.90820  0.76250  0.63890  1.0000 0.1022127605
H   H43       1.0  0.23050  0.14270  0.45560  1.0000 0.1022127605
H   H44       1.0  0.76950  0.85730  0.54440  1.0000 0.1022127605
H   H45       1.0  0.36680  0.24800  0.44950  1.0000 0.1088648931
H   H46       1.0  0.63320  0.75200  0.55050  1.0000 0.1088648931
H   H47       1.0  0.18730  0.42530  0.30270  1.0000 0.1088648931
H   H48       1.0  0.81270  0.57470  0.69730  1.0000 0.1088648931
H   H49       1.0  0.33970  0.42900  0.35100  1.0000 0.1174351095
H   H50       1.0  0.66030  0.57100  0.64900  1.0000 0.1174351095
H   H51       1.0  0.31790  0.35820  0.19660  1.0000 0.0903352995
H   H52       1.0  0.68210  0.64180  0.80340  1.0000 0.0903352995
H   H53       1.0  0.18260  0.25270  0.20450  1.0000 0.0903352995
H   H54       1.0  0.81740  0.74730  0.79550  1.0000 0.0903352995
H   H55       1.0  0.21170  0.07300  0.30100  1.0000 0.0903352995
H   H56       1.0  0.78830  0.92700  0.69900  1.0000 0.0903352995
H   H57       1.0  0.36370  0.07660  0.34990  1.0000 0.1022127605
H   H58       1.0  0.63630  0.92340  0.65010  1.0000 0.1022127605
H   H59       1.0  0.36640  0.16250  0.20690  1.0000 0.1088648931
H   H60       1.0  0.63360  0.83750  0.79310  1.0000 0.1088648931
C   C1        1.0  0.81870  0.27060  0.17110  1.0000 0.6187029828
C   C2        1.0  0.18130  0.72940  0.82890  1.0000 0.6187029828
C   C3        1.0  0.80090  0.13400  0.14450  1.0000 -0.1272034923
C   C4        1.0  0.19910  0.86600  0.85550  1.0000 -0.1272034923
C   C5        1.0  0.65720  0.06280  0.15690  1.0000 -0.1991155024
C   C6        1.0  0.34280  0.93720  0.84310  1.0000 -0.1991155024
C   C7        1.0  0.84870  0.10150  0.06160  1.0000 -0.1991155024
C   C8        1.0  0.15130  0.89850  0.93840  1.0000 -0.1991155024
C   C9        1.0  0.81790  0.96190  0.03720  1.0000 -0.1893035484
C   C10       1.0  0.18210  0.03810  0.96280  1.0000 -0.1893035484
C   C11       1.0  0.62640  0.92450  0.13090  1.0000 -0.1893035484
C   C12       1.0  0.37360  0.07550  0.86910  1.0000 -0.1893035484
C   C13       1.0  0.68420  0.89410  0.04630  1.0000 -0.1204812765
C   C14       1.0  0.31580  0.10590  0.95370  1.0000 -0.1204812765
C   C15       1.0  0.64440  0.75500  0.01930  1.0000 0.6187029828
C   C16       1.0  0.35560  0.24500  0.98070  1.0000 0.6187029828
C   C17       1.0  0.94490  0.62280  0.26640  1.0000 0.5896162241
C   C18       1.0  0.05510  0.37720  0.73360  1.0000 0.5896162241
C   C19       1.0  0.00790  0.71270  0.20120  1.0000 -0.1204812765
C   C20       1.0  0.99210  0.28730  0.79880  1.0000 -0.1272034923
C   C21       1.0  0.15570  0.79650  0.23640  1.0000 -0.1893035484
C   C22       1.0  0.84430  0.20350  0.76360  1.0000 -0.1893035484
C   C23       1.0  0.00520  0.64310  0.10680  1.0000 -0.1991155024
C   C24       1.0  0.99480  0.35690  0.89320  1.0000 -0.1991155024
C   C25       1.0  0.11970  0.57440  0.10860  1.0000 -0.1791838209
C   C26       1.0  0.88030  0.42560  0.89140  1.0000 -0.1791838209
C   C27       1.0  0.27440  0.73130  0.23190  1.0000 -0.1893035484
C   C28       1.0  0.72560  0.26870  0.76810  1.0000 -0.1893035484
C   C29       1.0  0.26600  0.66500  0.13720  1.0000 -0.1204812765
C   C30       1.0  0.73400  0.33500  0.86280  1.0000 -0.1204812765
C   C31       1.0  0.38100  0.59980  0.13020  1.0000 0.5896162241
C   C32       1.0  0.61900  0.40020  0.86980  1.0000 0.5896162241
C   C33       1.0  0.16590  0.36730  0.47160  1.0000 0.6048880865
C   C34       1.0  0.83410  0.63270  0.52840  1.0000 0.6048880865
C   C35       1.0  0.18530  0.28750  0.39070  1.0000 -0.1272034923
C   C36       1.0  0.81470  0.71250  0.60930  1.0000 -0.1272034923
C   C37       1.0  0.27630  0.20030  0.41570  1.0000 -0.1791838209
C   C38       1.0  0.72370  0.79970  0.58430  1.0000 -0.1791838209
C   C39       1.0  0.25010  0.37430  0.32140  1.0000 -0.1791838209
C   C40       1.0  0.74990  0.62570  0.67860  1.0000 -0.1791838209
C   C41       1.0  0.27330  0.30120  0.23730  1.0000 -0.1893035484
C   C42       1.0  0.72670  0.69880  0.76270  1.0000 -0.1893035484
C   C43       1.0  0.30100  0.12760  0.33110  1.0000 -0.1893035484
C   C44       1.0  0.69900  0.87240  0.66890  1.0000 -0.1893035484
C   C45       1.0  0.36640  0.21450  0.26310  1.0000 -0.1204812765
C   C46       1.0  0.63360  0.78550  0.73690  1.0000 -0.1204812765
C   C47       1.0  0.51950  0.28350  0.29890  1.0000 0.5896162241
C   C48       1.0  0.48050  0.71650  0.70110  1.0000 0.5896162241
O   O1        1.0  0.77530  0.33570  0.11360  1.0000 -0.6309813609
O   O2        1.0  0.22470  0.66430  0.88640  1.0000 -0.624423785
O   O3        1.0  0.87300  0.31070  0.25240  1.0000 -0.624423785
O   O4        1.0  0.12700  0.68930  0.74760  1.0000 -0.624423785
O   O5        1.0  0.56300  0.71560  0.94540  1.0000 -0.624423785
O   O6        1.0  0.43700  0.28440  0.05460  1.0000 -0.624423785
O   O7        1.0  0.69150  0.68740  0.07330  1.0000 -0.6309813609
O   O8        1.0  0.30850  0.31260  0.92670  1.0000 -0.6309813609
O   O9        1.0  0.81320  0.56950  0.24860  1.0000 -0.6608127306
O   O10       1.0  0.18680  0.43050  0.75140  1.0000 -0.6608127306
O   O11       1.0  0.01540  0.60220  0.33490  1.0000 -0.5196932505
O   O12       1.0  0.98460  0.39780  0.66510  1.0000 -0.5196932505
O   O13       1.0  0.38560  0.54410  0.05250  1.0000 -0.6955031405
O   O14       1.0  0.61440  0.45590  0.94750  1.0000 -0.6955031405
O   O15       1.0  0.46940  0.59730  0.19820  1.0000 -0.56059211
O   O16       1.0  0.53060  0.40270  0.80180  1.0000 -0.56059211
O   O17       1.0  0.57890  0.37660  0.26100  1.0000 -0.6534846078
O   O18       1.0  0.42110  0.62340  0.73900  1.0000 -0.6534846078
O   O19       1.0  0.58920  0.24850  0.36230  1.0000 -0.5780733774
O   O20       1.0  0.41080  0.75150  0.63770  1.0000 -0.5780733774
O   O21       1.0  0.05890  0.41230  0.46490  1.0000 -0.6878712128
O   O22       1.0  0.94110  0.58770  0.53510  1.0000 -0.6878712128
O   O23       1.0  0.25710  0.39930  0.54310  1.0000 -0.5865561317
O   O24       1.0  0.74290  0.60070  0.45690  1.0000 -0.5865561317
