# DDEC6 charges by PACMAN v1.1 (https://github.com/mtap-research/PACMAN-charge/)
data_2008[Er][rtl]3[ASR]1
_chemical_formula_sum              "Er4 H36 C36 O24"
_cell_length_a       9.5631
_cell_length_b       13.8741
_cell_length_c       17.5579
_cell_angle_alpha    90
_cell_angle_beta     119.555
_cell_angle_gamma    90

_symmetry_space_group_name_H-M    "P 1"
_symmetry_Int_Tables_number       1

loop_
  _symmetry_equiv_pos_as_xyz
  'x, y, z'

loop_
  _atom_site_type_symbol
  _atom_site_label
  _atom_site_symmetry_multiplicity
  _atom_site_fract_x
  _atom_site_fract_y
  _atom_site_fract_z
  _atom_site_occupancy
  _atom_site_charge
Er  Er1       1.0  0.62844  0.11095  0.08577  1.0000 1.9937576401
Er  Er2       1.0  0.37156  0.61095  0.41423  1.0000 1.9992005773
Er  Er3       1.0  0.37156  0.88905  0.91423  1.0000 1.9992005773
Er  Er4       1.0  0.62844  0.38905  0.58577  1.0000 1.9992005773
H   H1        1.0  0.42540  0.81130  0.18840  1.0000 0.1078056994
H   H2        1.0  0.57460  0.31130  0.31160  1.0000 0.1078056994
H   H3        1.0  0.57460  0.18870  0.81160  1.0000 0.1078056994
H   H4        1.0  0.42540  0.68870  0.68840  1.0000 0.1078056994
H   H5        1.0  0.41740  0.89300  0.24800  1.0000 0.099218098
H   H6        1.0  0.58260  0.39300  0.25200  1.0000 0.099218098
H   H7        1.0  0.58260  0.10700  0.75200  1.0000 0.099218098
H   H8        1.0  0.41740  0.60700  0.74800  1.0000 0.099218098
H   H9        1.0  0.15750  0.76500  0.14440  1.0000 0.099218098
H   H10       1.0  0.84250  0.26500  0.35560  1.0000 0.099218098
H   H11       1.0  0.84250  0.23500  0.85560  1.0000 0.099218098
H   H12       1.0  0.15750  0.73500  0.64440  1.0000 0.099218098
H   H13       1.0  0.01380  0.83470  0.20490  1.0000 0.1159711304
H   H14       1.0  0.98620  0.33470  0.29510  1.0000 0.1159711304
H   H15       1.0  0.98620  0.16530  0.79510  1.0000 0.1159711304
H   H16       1.0  0.01380  0.66530  0.70490  1.0000 0.1159711304
H   H17       1.0  0.15660  0.90530  0.26120  1.0000 0.099218098
H   H18       1.0  0.84340  0.40530  0.23880  1.0000 0.099218098
H   H19       1.0  0.84340  0.09470  0.73880  1.0000 0.099218098
H   H20       1.0  0.15660  0.59470  0.76120  1.0000 0.099218098
H   H21       1.0  0.98210  0.90450  0.07500  1.0000 0.099218098
H   H22       1.0  0.01790  0.40450  0.42500  1.0000 0.099218098
H   H23       1.0  0.01790  0.09550  0.92500  1.0000 0.099218098
H   H24       1.0  0.98210  0.59550  0.57500  1.0000 0.099218098
H   H25       1.0  0.12430  0.03730  0.07160  1.0000 0.094387551
H   H26       1.0  0.87570  0.53730  0.42840  1.0000 0.094387551
H   H27       1.0  0.87570  0.96270  0.92840  1.0000 0.094387551
H   H28       1.0  0.12430  0.46270  0.57160  1.0000 0.094387551
H   H29       1.0  0.22740  0.03630  0.17410  1.0000 0.1159711304
H   H30       1.0  0.77260  0.53630  0.32590  1.0000 0.1078056994
H   H31       1.0  0.77260  0.96370  0.82590  1.0000 0.1159711304
H   H32       1.0  0.22740  0.46370  0.67410  1.0000 0.1159711304
H   H33       1.0  0.22800  0.88770  0.06370  1.0000 0.099218098
H   H34       1.0  0.77200  0.38770  0.43630  1.0000 0.099218098
H   H35       1.0  0.77200  0.11230  0.93630  1.0000 0.099218098
H   H36       1.0  0.22800  0.61230  0.56370  1.0000 0.099218098
C   C1        1.0  0.35470  0.85720  0.19410  1.0000 -0.1937133489
C   C2        1.0  0.64530  0.35720  0.30590  1.0000 -0.1937133489
C   C3        1.0  0.64530  0.14280  0.80590  1.0000 -0.1937133489
C   C4        1.0  0.35470  0.64280  0.69410  1.0000 -0.1937133489
C   C5        1.0  0.21720  0.80260  0.19830  1.0000 -0.1134846926
C   C6        1.0  0.78280  0.30260  0.30170  1.0000 -0.1134846926
C   C7        1.0  0.78280  0.19740  0.80170  1.0000 -0.1134846926
C   C8        1.0  0.21720  0.69740  0.69830  1.0000 -0.1134846926
C   C9        1.0  0.10170  0.87080  0.20610  1.0000 -0.1955375028
C   C10       1.0  0.89830  0.37080  0.29390  1.0000 -0.1937133489
C   C11       1.0  0.89830  0.12920  0.79390  1.0000 -0.1955375028
C   C12       1.0  0.10170  0.62920  0.70610  1.0000 -0.1955375028
C   C13       1.0  0.03400  0.94440  0.12780  1.0000 -0.1018996042
C   C14       1.0  0.96600  0.44440  0.37220  1.0000 -0.1018996042
C   C15       1.0  0.96600  0.05560  0.87220  1.0000 -0.1018996042
C   C16       1.0  0.03400  0.55560  0.62780  1.0000 -0.1018996042
C   C17       1.0  0.16970  0.99580  0.12280  1.0000 -0.1937133489
C   C18       1.0  0.83030  0.49580  0.37720  1.0000 -0.1937133489
C   C19       1.0  0.83030  0.00420  0.87720  1.0000 -0.1937133489
C   C20       1.0  0.16970  0.50420  0.62280  1.0000 -0.1937133489
C   C21       1.0  0.28700  0.92570  0.11740  1.0000 -0.125652234
C   C22       1.0  0.71300  0.42570  0.38260  1.0000 -0.125652234
C   C23       1.0  0.71300  0.07430  0.88260  1.0000 -0.125652234
C   C24       1.0  0.28700  0.57430  0.61740  1.0000 -0.125652234
C   C25       1.0  0.41850  0.98050  0.11190  1.0000 0.6278641122
C   C26       1.0  0.58150  0.48050  0.38810  1.0000 0.6278641122
C   C27       1.0  0.58150  0.01950  0.88810  1.0000 0.6278641122
C   C28       1.0  0.41850  0.51950  0.61190  1.0000 0.6278641122
C   C29       1.0  0.27890  0.73480  0.27520  1.0000 0.5856725324
C   C30       1.0  0.72110  0.23480  0.22480  1.0000 0.5856725324
C   C31       1.0  0.72110  0.26520  0.72480  1.0000 0.5856725324
C   C32       1.0  0.27890  0.76520  0.77520  1.0000 0.5856725324
C   C33       1.0  0.90310  0.00880  0.12260  1.0000 0.5719812709
C   C34       1.0  0.09690  0.50880  0.37740  1.0000 0.5719812709
C   C35       1.0  0.09690  0.99120  0.87740  1.0000 0.5719812709
C   C36       1.0  0.90310  0.49120  0.62260  1.0000 0.5719812709
O   O1        1.0  0.50120  0.04430  0.16520  1.0000 -0.5681830448
O   O2        1.0  0.49880  0.54430  0.33480  1.0000 -0.5681830448
O   O3        1.0  0.49880  0.95570  0.83480  1.0000 -0.5681830448
O   O4        1.0  0.50120  0.45570  0.66520  1.0000 -0.5681830448
O   O5        1.0  0.44250  0.96250  0.04830  1.0000 -0.7437044632
O   O6        1.0  0.55750  0.46250  0.45170  1.0000 -0.7437044632
O   O7        1.0  0.55750  0.03750  0.95170  1.0000 -0.7437044632
O   O8        1.0  0.44250  0.53750  0.54830  1.0000 -0.7437044632
O   O9        1.0  0.41160  0.74630  0.34400  1.0000 -0.6290455711
O   O10       1.0  0.58840  0.24630  0.15600  1.0000 -0.6290455711
O   O11       1.0  0.58840  0.25370  0.65600  1.0000 -0.6290455711
O   O12       1.0  0.41160  0.75370  0.84400  1.0000 -0.6290455711
O   O13       1.0  0.19190  0.66330  0.26960  1.0000 -0.6172407222
O   O14       1.0  0.80810  0.16330  0.23040  1.0000 -0.6172407222
O   O15       1.0  0.80810  0.33670  0.73040  1.0000 -0.6172407222
O   O16       1.0  0.19190  0.83670  0.76960  1.0000 -0.6172407222
O   O17       1.0  0.89510  0.09430  0.10120  1.0000 -0.6007783365
O   O18       1.0  0.10490  0.59430  0.39880  1.0000 -0.6007783365
O   O19       1.0  0.10490  0.90570  0.89880  1.0000 -0.6007783365
O   O20       1.0  0.89510  0.40570  0.60120  1.0000 -0.6007783365
O   O21       1.0  0.79530  0.97090  0.13650  1.0000 -0.6290455711
O   O22       1.0  0.20470  0.47090  0.36350  1.0000 -0.6290455711
O   O23       1.0  0.20470  0.02910  0.86350  1.0000 -0.6290455711
O   O24       1.0  0.79530  0.52910  0.63650  1.0000 -0.6290455711
