# DDEC6 charges by PACMAN v1.1 (https://github.com/mtap-research/PACMAN-charge/)
data_2008[CuLa][nan]3[ASR]2
_chemical_formula_sum              "La4 Cu4 H32 C56 N8 O32"
_cell_length_a       9.155
_cell_length_b       21.5679
_cell_length_c       9.5454
_cell_angle_alpha    90
_cell_angle_beta     116.278
_cell_angle_gamma    90

_symmetry_space_group_name_H-M    "P 1"
_symmetry_Int_Tables_number       1

loop_
  _symmetry_equiv_pos_as_xyz
  'x, y, z'

loop_
  _atom_site_type_symbol
  _atom_site_label
  _atom_site_symmetry_multiplicity
  _atom_site_fract_x
  _atom_site_fract_y
  _atom_site_fract_z
  _atom_site_occupancy
  _atom_site_charge
La  La1       1.0  0.12122  0.00938  0.35765  1.0000 1.8234309154
La  La2       1.0  0.37878  0.50938  0.64235  1.0000 1.8234309154
La  La3       1.0  0.87878  0.99062  0.64235  1.0000 1.8234309154
La  La4       1.0  0.62122  0.49062  0.35765  1.0000 1.8234309154
Cu  Cu1       1.0  0.45125  0.14575  0.30919  1.0000 0.3305485743
Cu  Cu2       1.0  0.04875  0.64575  0.69081  1.0000 0.3305485743
Cu  Cu3       1.0  0.54875  0.85425  0.69081  1.0000 0.3305485743
Cu  Cu4       1.0  0.95125  0.35425  0.30919  1.0000 0.3305485743
H   H1        1.0  0.28780  0.07180  0.02140  1.0000 0.1216026666
H   H2        1.0  0.21220  0.57180  0.97860  1.0000 0.1216026666
H   H3        1.0  0.71220  0.92820  0.97860  1.0000 0.1216026666
H   H4        1.0  0.78780  0.42820  0.02140  1.0000 0.1216026666
H   H5        1.0  0.69750  0.16360  0.19990  1.0000 0.0967359963
H   H6        1.0  0.80250  0.66360  0.80010  1.0000 0.0967359963
H   H7        1.0  0.30250  0.83640  0.80010  1.0000 0.0967359963
H   H8        1.0  0.19750  0.33640  0.19990  1.0000 0.0967359963
H   H9        1.0  0.75670  0.13250  0.00250  1.0000 0.1474020473
H   H10       1.0  0.74330  0.63250  0.99750  1.0000 0.1474020473
H   H11       1.0  0.24330  0.86750  0.99750  1.0000 0.1474020473
H   H12       1.0  0.25670  0.36750  0.00250  1.0000 0.1474020473
H   H13       1.0  0.57070  0.07290  0.80250  1.0000 0.1327685724
H   H14       1.0  0.92930  0.57290  0.19750  1.0000 0.1327685724
H   H15       1.0  0.42930  0.92710  0.19750  1.0000 0.1327685724
H   H16       1.0  0.07070  0.42710  0.80250  1.0000 0.1327685724
H   H17       1.0  0.38410  0.15570  0.58790  1.0000 0.1129225614
H   H18       1.0  0.11590  0.65570  0.41210  1.0000 0.1129225614
H   H19       1.0  0.61590  0.84430  0.41210  1.0000 0.1129225614
H   H20       1.0  0.88410  0.34430  0.58790  1.0000 0.1129225614
H   H21       1.0  0.36080  0.23290  0.74190  1.0000 0.1327685724
H   H22       1.0  0.13920  0.73290  0.25810  1.0000 0.1327685724
H   H23       1.0  0.63920  0.76710  0.25810  1.0000 0.1327685724
H   H24       1.0  0.86080  0.26710  0.74190  1.0000 0.1327685724
H   H25       1.0  0.40050  0.33530  0.69100  1.0000 0.1474020473
H   H26       1.0  0.09950  0.83530  0.30900  1.0000 0.1474020473
H   H27       1.0  0.59950  0.66470  0.30900  1.0000 0.1474020473
H   H28       1.0  0.90050  0.16470  0.69100  1.0000 0.1474020473
H   H29       1.0  0.49770  0.27570  0.34610  1.0000 0.1129225614
H   H30       1.0  0.00230  0.77570  0.65390  1.0000 0.1129225614
H   H31       1.0  0.50230  0.72430  0.65390  1.0000 0.1129225614
H   H32       1.0  0.99770  0.22430  0.34610  1.0000 0.1129225614
C   C1        1.0  0.27640  0.03040  0.76010  1.0000 0.6139912802
C   C2        1.0  0.22360  0.53040  0.23990  1.0000 0.6139912802
C   C3        1.0  0.72360  0.96960  0.23990  1.0000 0.6139912802
C   C4        1.0  0.77640  0.46960  0.76010  1.0000 0.6139912802
C   C5        1.0  0.40660  0.06700  0.89060  1.0000 -0.0664378208
C   C6        1.0  0.09340  0.56700  0.10940  1.0000 -0.0664378208
C   C7        1.0  0.59340  0.93300  0.10940  1.0000 -0.0664378208
C   C8        1.0  0.90660  0.43300  0.89060  1.0000 -0.0664378208
C   C9        1.0  0.38260  0.08460  0.01690  1.0000 0.0380034298
C   C10       1.0  0.11740  0.58460  0.98310  1.0000 0.0380034298
C   C11       1.0  0.61740  0.91540  0.98310  1.0000 0.0380034298
C   C12       1.0  0.88260  0.41540  0.01690  1.0000 0.0380034298
C   C13       1.0  0.62400  0.13770  0.12290  1.0000 0.0647326979
C   C14       1.0  0.87600  0.63770  0.87710  1.0000 0.0647326979
C   C15       1.0  0.37600  0.86230  0.87710  1.0000 0.0647326979
C   C16       1.0  0.12400  0.36230  0.12290  1.0000 0.0647326979
C   C17       1.0  0.65960  0.12030  0.00330  1.0000 -0.1143546057
C   C18       1.0  0.84040  0.62030  0.99670  1.0000 -0.1143546057
C   C19       1.0  0.34040  0.87970  0.99670  1.0000 -0.1143546057
C   C20       1.0  0.15960  0.37970  0.00330  1.0000 -0.1143546057
C   C21       1.0  0.54990  0.08490  0.88540  1.0000 -0.0633753007
C   C22       1.0  0.95010  0.58490  0.11460  1.0000 -0.0633753007
C   C23       1.0  0.45010  0.91510  0.11460  1.0000 -0.0633753007
C   C24       1.0  0.04990  0.41510  0.88540  1.0000 -0.0633753007
C   C25       1.0  0.98910  0.03420  0.99290  1.0000 0.4537888365
C   C26       1.0  0.51090  0.53420  0.00710  1.0000 0.4537888365
C   C27       1.0  0.01090  0.96580  0.00710  1.0000 0.4537888365
C   C28       1.0  0.48910  0.46580  0.99290  1.0000 0.4537888365
C   C29       1.0  0.50340  0.03390  0.47720  1.0000 0.4720571684
C   C30       1.0  0.99660  0.53390  0.52280  1.0000 0.4720571684
C   C31       1.0  0.49660  0.96610  0.52280  1.0000 0.4720571684
C   C32       1.0  0.00340  0.46610  0.47720  1.0000 0.4720571684
C   C33       1.0  0.40100  0.19650  0.56720  1.0000 0.0871810439
C   C34       1.0  0.09900  0.69650  0.43280  1.0000 0.0871810439
C   C35       1.0  0.59900  0.80350  0.43280  1.0000 0.0871810439
C   C36       1.0  0.90100  0.30350  0.56720  1.0000 0.0871810439
C   C37       1.0  0.38690  0.24260  0.66070  1.0000 -0.1430346025
C   C38       1.0  0.11310  0.74260  0.33930  1.0000 -0.1430346025
C   C39       1.0  0.61310  0.75740  0.33930  1.0000 -0.1430346025
C   C40       1.0  0.88690  0.25740  0.66070  1.0000 -0.1430346025
C   C41       1.0  0.41200  0.30320  0.63150  1.0000 -0.0493574952
C   C42       1.0  0.08800  0.80320  0.36850  1.0000 -0.0493574952
C   C43       1.0  0.58800  0.69680  0.36850  1.0000 -0.0493574952
C   C44       1.0  0.91200  0.19680  0.63150  1.0000 -0.0493574952
C   C45       1.0  0.45440  0.31560  0.51240  1.0000 -0.0633753007
C   C46       1.0  0.04560  0.81560  0.48760  1.0000 -0.0633753007
C   C47       1.0  0.54560  0.68440  0.48760  1.0000 -0.0633753007
C   C48       1.0  0.95440  0.18440  0.51240  1.0000 -0.0633753007
C   C49       1.0  0.49020  0.38010  0.47510  1.0000 0.5899345624
C   C50       1.0  0.00980  0.88010  0.52490  1.0000 0.5899345624
C   C51       1.0  0.50980  0.61990  0.52490  1.0000 0.5899345624
C   C52       1.0  0.99020  0.11990  0.47510  1.0000 0.5899345624
C   C53       1.0  0.46720  0.26700  0.42500  1.0000 0.0181296068
C   C54       1.0  0.03280  0.76700  0.57500  1.0000 0.0181296068
C   C55       1.0  0.53280  0.73300  0.57500  1.0000 0.0181296068
C   C56       1.0  0.96720  0.23300  0.42500  1.0000 0.0181296068
N   N1        1.0  0.49060  0.12000  0.13610  1.0000 -0.2021472854
N   N2        1.0  0.00940  0.62000  0.86390  1.0000 -0.2021472854
N   N3        1.0  0.50940  0.88000  0.86390  1.0000 -0.2021472854
N   N4        1.0  0.99060  0.38000  0.13610  1.0000 -0.2021472854
N   N5        1.0  0.43780  0.20730  0.44800  1.0000 -0.2021472854
N   N6        1.0  0.06220  0.70730  0.55200  1.0000 -0.2021472854
N   N7        1.0  0.56220  0.79270  0.55200  1.0000 -0.2021472854
N   N8        1.0  0.93780  0.29270  0.44800  1.0000 -0.2021472854
O   O1        1.0  0.28610  0.03110  0.63270  1.0000 -0.6165068251
O   O2        1.0  0.21390  0.53110  0.36730  1.0000 -0.6165068251
O   O3        1.0  0.71390  0.96890  0.36730  1.0000 -0.6165068251
O   O4        1.0  0.78610  0.46890  0.63270  1.0000 -0.6165068251
O   O5        1.0  0.16820  0.00390  0.78480  1.0000 -0.6043232483
O   O6        1.0  0.33180  0.50390  0.21520  1.0000 -0.6043232483
O   O7        1.0  0.83180  0.99610  0.21520  1.0000 -0.6043232483
O   O8        1.0  0.66820  0.49610  0.78480  1.0000 -0.6043232483
O   O9        1.0  0.04980  0.06620  0.11590  1.0000 -0.542814861
O   O10       1.0  0.45020  0.56620  0.88410  1.0000 -0.542814861
O   O11       1.0  0.95020  0.93380  0.88410  1.0000 -0.542814861
O   O12       1.0  0.54980  0.43380  0.11590  1.0000 -0.542814861
O   O13       1.0  0.91160  0.05650  0.85650  1.0000 -0.5682573197
O   O14       1.0  0.58840  0.55650  0.14350  1.0000 -0.5682573197
O   O15       1.0  0.08840  0.94350  0.14350  1.0000 -0.5682573197
O   O16       1.0  0.41160  0.44350  0.85650  1.0000 -0.5682573197
O   O17       1.0  0.37270  0.05810  0.38100  1.0000 -0.5326121849
O   O18       1.0  0.12730  0.55810  0.61900  1.0000 -0.5326121849
O   O19       1.0  0.62730  0.94190  0.61900  1.0000 -0.5326121849
O   O20       1.0  0.87270  0.44190  0.38100  1.0000 -0.5326121849
O   O21       1.0  0.63860  0.06060  0.53940  1.0000 -0.542814861
O   O22       1.0  0.86140  0.56060  0.46060  1.0000 -0.542814861
O   O23       1.0  0.36140  0.93940  0.46060  1.0000 -0.542814861
O   O24       1.0  0.13860  0.43940  0.53940  1.0000 -0.542814861
O   O25       1.0  0.55780  0.38490  0.38590  1.0000 -0.5682573197
O   O26       1.0  0.94220  0.88490  0.61410  1.0000 -0.5682573197
O   O27       1.0  0.44220  0.61510  0.61410  1.0000 -0.5682573197
O   O28       1.0  0.05780  0.11510  0.38590  1.0000 -0.5682573197
O   O29       1.0  0.45140  0.42580  0.53120  1.0000 -0.6165068251
O   O30       1.0  0.04860  0.92580  0.46880  1.0000 -0.6165068251
O   O31       1.0  0.54860  0.57420  0.46880  1.0000 -0.6165068251
O   O32       1.0  0.95140  0.07420  0.53120  1.0000 -0.6165068251
