# DDEC6 charges by PACMAN v1.1 (https://github.com/mtap-research/PACMAN-charge/)
data_2008[Zn][lcy]3[ASR]1
_chemical_formula_sum              "Zn16 H72 C108 O52"
_cell_length_a       16.215
_cell_length_b       17.174
_cell_length_c       18.104
_cell_angle_alpha    90
_cell_angle_beta     90
_cell_angle_gamma    90

_symmetry_space_group_name_H-M    "P 1"
_symmetry_Int_Tables_number       1

loop_
  _symmetry_equiv_pos_as_xyz
  'x, y, z'

loop_
  _atom_site_type_symbol
  _atom_site_label
  _atom_site_symmetry_multiplicity
  _atom_site_fract_x
  _atom_site_fract_y
  _atom_site_fract_z
  _atom_site_occupancy
  _atom_site_charge
Zn  Zn1       1.0  0.72145  0.24322  0.23767  1.0000 0.9328844136
Zn  Zn2       1.0  0.77855  0.75678  0.73767  1.0000 0.9328844136
Zn  Zn3       1.0  0.27855  0.74322  0.26233  1.0000 0.9328844136
Zn  Zn4       1.0  0.22145  0.25678  0.76233  1.0000 0.9328844136
Zn  Zn5       1.0  0.77299  0.85661  0.87971  1.0000 0.9413115045
Zn  Zn6       1.0  0.72701  0.14339  0.37971  1.0000 0.9413115045
Zn  Zn7       1.0  0.22701  0.35661  0.62029  1.0000 0.9413115045
Zn  Zn8       1.0  0.27299  0.64339  0.12029  1.0000 0.9413115045
Zn  Zn9       1.0  0.11164  0.73093  0.17930  1.0000 0.9413115045
Zn  Zn10      1.0  0.38836  0.26907  0.67930  1.0000 0.9413115045
Zn  Zn11      1.0  0.88836  0.23093  0.32070  1.0000 0.9413115045
Zn  Zn12      1.0  0.61164  0.76907  0.82070  1.0000 0.9413115045
Zn  Zn13      1.0  0.68928  0.92039  0.72910  1.0000 0.9800199455
Zn  Zn14      1.0  0.81072  0.07961  0.22910  1.0000 0.9800199455
Zn  Zn15      1.0  0.31072  0.42039  0.77090  1.0000 0.9800199455
Zn  Zn16      1.0  0.18928  0.57961  0.27090  1.0000 0.9800199455
H   H1        1.0  0.77720  0.06890  0.00430  1.0000 0.1298869378
H   H2        1.0  0.72280  0.93110  0.50430  1.0000 0.1298869378
H   H3        1.0  0.22280  0.56890  0.49570  1.0000 0.1298869378
H   H4        1.0  0.27720  0.43110  0.99570  1.0000 0.1298869378
H   H5        1.0  0.63900  0.26240  0.01690  1.0000 0.1298869378
H   H6        1.0  0.86100  0.73760  0.51690  1.0000 0.1298869378
H   H7        1.0  0.36100  0.76240  0.48310  1.0000 0.1298869378
H   H8        1.0  0.13900  0.23760  0.98310  1.0000 0.1298869378
H   H9        1.0  0.62290  0.12630  0.83550  1.0000 0.1298869378
H   H10       1.0  0.87710  0.87370  0.33550  1.0000 0.1298869378
H   H11       1.0  0.37710  0.62630  0.66450  1.0000 0.1298869378
H   H12       1.0  0.12290  0.37370  0.16450  1.0000 0.1298869378
H   H13       1.0  0.54340  0.24180  0.83800  1.0000 0.1403253822
H   H14       1.0  0.95660  0.75820  0.33800  1.0000 0.1403253822
H   H15       1.0  0.45660  0.74180  0.66200  1.0000 0.1403253822
H   H16       1.0  0.04340  0.25820  0.16200  1.0000 0.1403253822
H   H17       1.0  0.58500  0.31250  0.88200  1.0000 0.1298869378
H   H18       1.0  0.91500  0.68750  0.38200  1.0000 0.1298869378
H   H19       1.0  0.41500  0.81250  0.61800  1.0000 0.1298869378
H   H20       1.0  0.08500  0.18750  0.11800  1.0000 0.1298869378
H   H21       1.0  0.51230  0.26320  0.91940  1.0000 0.150633782
H   H22       1.0  0.98770  0.73680  0.41940  1.0000 0.150633782
H   H23       1.0  0.48770  0.76320  0.58060  1.0000 0.150633782
H   H24       1.0  0.01230  0.23680  0.08060  1.0000 0.150633782
H   H25       1.0  0.96400  0.47320  0.26630  1.0000 0.1298869378
H   H26       1.0  0.53600  0.52680  0.76630  1.0000 0.1298869378
H   H27       1.0  0.03600  0.97320  0.23370  1.0000 0.1298869378
H   H28       1.0  0.46400  0.02680  0.73370  1.0000 0.1298869378
H   H29       1.0  0.71490  0.48490  0.24710  1.0000 0.1298869378
H   H30       1.0  0.78510  0.51510  0.74710  1.0000 0.1298869378
H   H31       1.0  0.28510  0.98490  0.25290  1.0000 0.1298869378
H   H32       1.0  0.21490  0.01510  0.75290  1.0000 0.1298869378
H   H33       1.0  0.85340  0.67860  0.22210  1.0000 0.1244436687
H   H34       1.0  0.64660  0.32140  0.72210  1.0000 0.1244436687
H   H35       1.0  0.14660  0.17860  0.27790  1.0000 0.1244436687
H   H36       1.0  0.35340  0.82140  0.77790  1.0000 0.1244436687
H   H37       1.0  0.64470  0.60140  0.23250  1.0000 0.1403253822
H   H38       1.0  0.85530  0.39860  0.73250  1.0000 0.1403253822
H   H39       1.0  0.35530  0.10140  0.26750  1.0000 0.1403253822
H   H40       1.0  0.14470  0.89860  0.76750  1.0000 0.1403253822
H   H41       1.0  0.69130  0.66040  0.17830  1.0000 0.1298869378
H   H42       1.0  0.80870  0.33960  0.67830  1.0000 0.1298869378
H   H43       1.0  0.30870  0.16040  0.32170  1.0000 0.1298869378
H   H44       1.0  0.19130  0.83960  0.82170  1.0000 0.1298869378
H   H45       1.0  0.69020  0.67650  0.26540  1.0000 0.1298869378
H   H46       1.0  0.80980  0.32350  0.76540  1.0000 0.1298869378
H   H47       1.0  0.30980  0.17650  0.23460  1.0000 0.1298869378
H   H48       1.0  0.19020  0.82350  0.73460  1.0000 0.1298869378
H   H49       1.0  0.46940  0.29290  0.25230  1.0000 0.1298869378
H   H50       1.0  0.03060  0.70710  0.75230  1.0000 0.1298869378
H   H51       1.0  0.53060  0.79290  0.24770  1.0000 0.1298869378
H   H52       1.0  0.96940  0.20710  0.74770  1.0000 0.1298869378
H   H53       1.0  0.28790  0.34340  0.39640  1.0000 0.1298869378
H   H54       1.0  0.21210  0.65660  0.89640  1.0000 0.1298869378
H   H55       1.0  0.71210  0.84340  0.10360  1.0000 0.1298869378
H   H56       1.0  0.78790  0.15660  0.60360  1.0000 0.1298869378
H   H57       1.0  0.49400  0.23240  0.46650  1.0000 0.1298869378
H   H58       1.0  0.00600  0.76760  0.96650  1.0000 0.1298869378
H   H59       1.0  0.50600  0.73240  0.03350  1.0000 0.1298869378
H   H60       1.0  0.99400  0.26760  0.53350  1.0000 0.1298869378
H   H61       1.0  0.35230  0.35500  0.20500  1.0000 0.1403253822
H   H62       1.0  0.14770  0.64500  0.70500  1.0000 0.1403253822
H   H63       1.0  0.64770  0.85500  0.29500  1.0000 0.1403253822
H   H64       1.0  0.85230  0.14500  0.79500  1.0000 0.1403253822
H   H65       1.0  0.30920  0.41370  0.26180  1.0000 0.1403253822
H   H66       1.0  0.19080  0.58630  0.76180  1.0000 0.1403253822
H   H67       1.0  0.69080  0.91370  0.23820  1.0000 0.1403253822
H   H68       1.0  0.80920  0.08630  0.73820  1.0000 0.1403253822
H   H69       1.0  0.26870  0.33040  0.24580  1.0000 0.1298869378
H   H70       1.0  0.23130  0.66960  0.74580  1.0000 0.1298869378
H   H71       1.0  0.73130  0.83040  0.25420  1.0000 0.1298869378
H   H72       1.0  0.76870  0.16960  0.75420  1.0000 0.1298869378
C   C1        1.0  0.72330  0.01180  0.87400  1.0000 0.5920142008
C   C2        1.0  0.77670  0.98820  0.37400  1.0000 0.5920142008
C   C3        1.0  0.27670  0.51180  0.62600  1.0000 0.5920142008
C   C4        1.0  0.22330  0.48820  0.12600  1.0000 0.5920142008
C   C5        1.0  0.70380  0.08660  0.91350  1.0000 -0.0184496054
C   C6        1.0  0.79620  0.91340  0.41350  1.0000 -0.0184496054
C   C7        1.0  0.29620  0.58660  0.58650  1.0000 -0.0184496054
C   C8        1.0  0.20380  0.41340  0.08650  1.0000 -0.0184496054
C   C9        1.0  0.73800  0.10320  0.98290  1.0000 -0.1271319354
C   C10       1.0  0.76200  0.89680  0.48290  1.0000 -0.1271319354
C   C11       1.0  0.26200  0.60320  0.51710  1.0000 -0.1271319354
C   C12       1.0  0.23800  0.39680  0.01710  1.0000 -0.1271319354
C   C13       1.0  0.71470  0.16880  0.01900  1.0000 -0.0184496054
C   C14       1.0  0.78530  0.83120  0.51900  1.0000 -0.0184496054
C   C15       1.0  0.28530  0.66880  0.48100  1.0000 -0.0184496054
C   C16       1.0  0.21470  0.33120  0.98100  1.0000 -0.0184496054
C   C17       1.0  0.65670  0.21840  0.98920  1.0000 -0.1503119682
C   C18       1.0  0.84330  0.78160  0.48920  1.0000 -0.1503119682
C   C19       1.0  0.34330  0.71840  0.51080  1.0000 -0.1503119682
C   C20       1.0  0.15670  0.28160  0.01080  1.0000 -0.1503119682
C   C21       1.0  0.62320  0.20530  0.91900  1.0000 0.1772035321
C   C22       1.0  0.87680  0.79470  0.41900  1.0000 0.1772035321
C   C23       1.0  0.37680  0.70530  0.58100  1.0000 0.1772035321
C   C24       1.0  0.12320  0.29470  0.08100  1.0000 0.1772035321
C   C25       1.0  0.64640  0.13790  0.88240  1.0000 -0.1711444782
C   C26       1.0  0.85360  0.86210  0.38240  1.0000 -0.1711444782
C   C27       1.0  0.35360  0.63790  0.61760  1.0000 -0.1711444782
C   C28       1.0  0.14640  0.36210  0.11760  1.0000 -0.1711444782
C   C29       1.0  0.56050  0.26050  0.88680  1.0000 -0.4624011704
C   C30       1.0  0.93950  0.73950  0.38680  1.0000 -0.4624011704
C   C31       1.0  0.43950  0.76050  0.61320  1.0000 -0.4624011704
C   C32       1.0  0.06050  0.23950  0.11320  1.0000 -0.4624011704
C   C33       1.0  0.00290  0.62100  0.23860  1.0000 0.5920142008
C   C34       1.0  0.49710  0.37900  0.73860  1.0000 0.5920142008
C   C35       1.0  0.99710  0.12100  0.26140  1.0000 0.5920142008
C   C36       1.0  0.50290  0.87900  0.76140  1.0000 0.5920142008
C   C37       1.0  0.92010  0.58050  0.24190  1.0000 -0.0271232236
C   C38       1.0  0.57990  0.41950  0.74190  1.0000 -0.0271232236
C   C39       1.0  0.07990  0.08050  0.25810  1.0000 -0.0271232236
C   C40       1.0  0.42010  0.91950  0.75810  1.0000 -0.0271232236
C   C41       1.0  0.91540  0.50230  0.25660  1.0000 -0.1174639241
C   C42       1.0  0.58460  0.49770  0.75660  1.0000 -0.1174639241
C   C43       1.0  0.08460  0.00230  0.24340  1.0000 -0.1174639241
C   C44       1.0  0.41540  0.99770  0.74340  1.0000 -0.1174639241
C   C45       1.0  0.83880  0.46580  0.25720  1.0000 -0.0184496054
C   C46       1.0  0.66120  0.53420  0.75720  1.0000 -0.0184496054
C   C47       1.0  0.16120  0.96580  0.24280  1.0000 -0.0184496054
C   C48       1.0  0.33880  0.03420  0.74280  1.0000 -0.0184496054
C   C49       1.0  0.76700  0.51020  0.24670  1.0000 -0.1503119682
C   C50       1.0  0.73300  0.48980  0.74670  1.0000 -0.1503119682
C   C51       1.0  0.23300  0.01020  0.25330  1.0000 -0.1503119682
C   C52       1.0  0.26700  0.98980  0.75330  1.0000 -0.1503119682
C   C53       1.0  0.77020  0.58990  0.23580  1.0000 0.1692129763
C   C54       1.0  0.72980  0.41010  0.73580  1.0000 0.1692129763
C   C55       1.0  0.22980  0.08990  0.26420  1.0000 0.1692129763
C   C56       1.0  0.27020  0.91010  0.76420  1.0000 0.1692129763
C   C57       1.0  0.84890  0.62440  0.23180  1.0000 -0.1612580048
C   C58       1.0  0.65110  0.37560  0.73180  1.0000 -0.1612580048
C   C59       1.0  0.15110  0.12440  0.26820  1.0000 -0.1612580048
C   C60       1.0  0.34890  0.87560  0.76820  1.0000 -0.1612580048
C   C61       1.0  0.69240  0.63600  0.22730  1.0000 -0.4525213132
C   C62       1.0  0.80760  0.36400  0.72730  1.0000 -0.4525213132
C   C63       1.0  0.30760  0.13600  0.27270  1.0000 -0.4525213132
C   C64       1.0  0.19240  0.86400  0.77270  1.0000 -0.4525213132
C   C65       1.0  0.58040  0.22890  0.33960  1.0000 0.5920142008
C   C66       1.0  0.91960  0.77110  0.83960  1.0000 0.5920142008
C   C67       1.0  0.41960  0.72890  0.16040  1.0000 0.5920142008
C   C68       1.0  0.08040  0.27110  0.66040  1.0000 0.5920142008
C   C69       1.0  0.49460  0.25870  0.35600  1.0000 -0.0271232236
C   C70       1.0  0.00540  0.74130  0.85600  1.0000 -0.0271232236
C   C71       1.0  0.50540  0.75870  0.14400  1.0000 -0.0271232236
C   C72       1.0  0.99460  0.24130  0.64400  1.0000 -0.0271232236
C   C73       1.0  0.44800  0.29180  0.30110  1.0000 -0.1503119682
C   C74       1.0  0.05200  0.70820  0.80110  1.0000 -0.1503119682
C   C75       1.0  0.55200  0.79180  0.19890  1.0000 -0.1503119682
C   C76       1.0  0.94800  0.20820  0.69890  1.0000 -0.1503119682
C   C77       1.0  0.37070  0.32370  0.31410  1.0000 0.1692129763
C   C78       1.0  0.12930  0.67630  0.81410  1.0000 0.1692129763
C   C79       1.0  0.62930  0.82370  0.18590  1.0000 0.1692129763
C   C80       1.0  0.87070  0.17630  0.68590  1.0000 0.1692129763
C   C81       1.0  0.34050  0.32160  0.38590  1.0000 -0.1612580048
C   C82       1.0  0.15950  0.67840  0.88590  1.0000 -0.1612580048
C   C83       1.0  0.65950  0.82160  0.11410  1.0000 -0.1612580048
C   C84       1.0  0.84050  0.17840  0.61410  1.0000 -0.1612580048
C   C85       1.0  0.38620  0.28790  0.44290  1.0000 -0.0271232236
C   C86       1.0  0.11380  0.71210  0.94290  1.0000 -0.0271232236
C   C87       1.0  0.61380  0.78790  0.05710  1.0000 -0.0271232236
C   C88       1.0  0.88620  0.21210  0.55710  1.0000 -0.0271232236
C   C89       1.0  0.46300  0.25600  0.42800  1.0000 -0.1174639241
C   C90       1.0  0.03700  0.74400  0.92800  1.0000 -0.1174639241
C   C91       1.0  0.53700  0.75600  0.07200  1.0000 -0.1174639241
C   C92       1.0  0.96300  0.24400  0.57200  1.0000 -0.1174639241
C   C93       1.0  0.32080  0.35880  0.25100  1.0000 -0.4525213132
C   C94       1.0  0.17920  0.64120  0.75100  1.0000 -0.4525213132
C   C95       1.0  0.67920  0.85880  0.24900  1.0000 -0.4525213132
C   C96       1.0  0.82080  0.14120  0.74900  1.0000 -0.4525213132
C   C97       1.0  0.83050  0.37860  0.26730  1.0000 0.5920142008
C   C98       1.0  0.66950  0.62140  0.76730  1.0000 0.5920142008
C   C99       1.0  0.16950  0.87860  0.23270  1.0000 0.5920142008
C   C100      1.0  0.33050  0.12140  0.73270  1.0000 0.5920142008
C   C101      1.0  0.74520  0.18320  0.09670  1.0000 0.582592938
C   C102      1.0  0.75480  0.81680  0.59670  1.0000 0.582592938
C   C103      1.0  0.25480  0.68320  0.40330  1.0000 0.582592938
C   C104      1.0  0.24520  0.31680  0.90330  1.0000 0.582592938
C   C105      1.0  0.35370  0.28970  0.52100  1.0000 0.600647319
C   C106      1.0  0.14630  0.71030  0.02100  1.0000 0.600647319
C   C107      1.0  0.64630  0.78970  0.97900  1.0000 0.600647319
C   C108      1.0  0.85370  0.21030  0.47900  1.0000 0.600647319
O   O1        1.0  0.77660  0.96730  0.90260  1.0000 -0.5211930836
O   O2        1.0  0.72340  0.03270  0.40260  1.0000 -0.5211930836
O   O3        1.0  0.22340  0.46730  0.59740  1.0000 -0.5211930836
O   O4        1.0  0.27660  0.53270  0.09740  1.0000 -0.5211930836
O   O5        1.0  0.68460  0.99780  0.81530  1.0000 -0.5708687419
O   O6        1.0  0.81540  0.00220  0.31530  1.0000 -0.5708687419
O   O7        1.0  0.31540  0.49780  0.68470  1.0000 -0.5708687419
O   O8        1.0  0.18460  0.50220  0.18470  1.0000 -0.5708687419
O   O9        1.0  0.06140  0.58810  0.27010  1.0000 -0.5318348303
O   O10       1.0  0.43860  0.41190  0.77010  1.0000 -0.5318348303
O   O11       1.0  0.93860  0.08810  0.22990  1.0000 -0.5318348303
O   O12       1.0  0.56140  0.91190  0.72990  1.0000 -0.5318348303
O   O13       1.0  0.00570  0.68380  0.20340  1.0000 -0.5211930836
O   O14       1.0  0.49430  0.31620  0.70340  1.0000 -0.5211930836
O   O15       1.0  0.99430  0.18380  0.29660  1.0000 -0.5211930836
O   O16       1.0  0.50570  0.81620  0.79660  1.0000 -0.5211930836
O   O17       1.0  0.61600  0.18830  0.38860  1.0000 -0.5318348303
O   O18       1.0  0.88400  0.81170  0.88860  1.0000 -0.5318348303
O   O19       1.0  0.38400  0.68830  0.11140  1.0000 -0.5318348303
O   O20       1.0  0.11600  0.31170  0.61140  1.0000 -0.5318348303
O   O21       1.0  0.60950  0.24900  0.27890  1.0000 -0.5318348303
O   O22       1.0  0.89050  0.75100  0.77890  1.0000 -0.5318348303
O   O23       1.0  0.39050  0.74900  0.22110  1.0000 -0.5318348303
O   O24       1.0  0.10950  0.25100  0.72110  1.0000 -0.5318348303
O   O25       1.0  0.89240  0.34090  0.28820  1.0000 -0.5318348303
O   O26       1.0  0.60760  0.65910  0.78820  1.0000 -0.5371907489
O   O27       1.0  0.10760  0.84090  0.21180  1.0000 -0.5318348303
O   O28       1.0  0.39240  0.15910  0.71180  1.0000 -0.5318348303
O   O29       1.0  0.76120  0.35090  0.25310  1.0000 -0.5371907489
O   O30       1.0  0.73880  0.64910  0.75310  1.0000 -0.5371907489
O   O31       1.0  0.23880  0.85090  0.24690  1.0000 -0.5371907489
O   O32       1.0  0.26120  0.14910  0.74690  1.0000 -0.5371907489
O   O33       1.0  0.70630  0.23590  0.13280  1.0000 -0.5371907489
O   O34       1.0  0.79370  0.76410  0.63280  1.0000 -0.5371907489
O   O35       1.0  0.29370  0.73590  0.36720  1.0000 -0.5371907489
O   O36       1.0  0.20630  0.26410  0.86720  1.0000 -0.5371907489
O   O37       1.0  0.80180  0.14340  0.12220  1.0000 -0.5494813287
O   O38       1.0  0.69820  0.85660  0.62220  1.0000 -0.5494813287
O   O39       1.0  0.19820  0.64340  0.37780  1.0000 -0.5494813287
O   O40       1.0  0.30180  0.35660  0.87780  1.0000 -0.5494813287
O   O41       1.0  0.40000  0.26230  0.57030  1.0000 -0.5211930836
O   O42       1.0  0.10000  0.73770  0.07030  1.0000 -0.5211930836
O   O43       1.0  0.60000  0.76230  0.92970  1.0000 -0.5211930836
O   O44       1.0  0.90000  0.23770  0.42970  1.0000 -0.5211930836
O   O45       1.0  0.28330  0.31850  0.53030  1.0000 -0.5371907489
O   O46       1.0  0.21670  0.68150  0.03030  1.0000 -0.5371907489
O   O47       1.0  0.71670  0.81850  0.96970  1.0000 -0.5371907489
O   O48       1.0  0.78330  0.18150  0.46970  1.0000 -0.5371907489
O   O49       1.0  0.79030  0.17450  0.29420  1.0000 -1.022477817
O   O50       1.0  0.70970  0.82550  0.79420  1.0000 -1.022477817
O   O51       1.0  0.20970  0.67450  0.20580  1.0000 -1.022477817
O   O52       1.0  0.29030  0.32550  0.70580  1.0000 -1.022477817
