# DDEC6 charges by PACMAN v1.1 (https://github.com/mtap-research/PACMAN-charge/)
data_2008[Zn][dia]3[ASR]1
_chemical_formula_sum              "Zn2 H32 C52 N4 O8"
_cell_length_a       14.7508
_cell_length_b       14.7508
_cell_length_c       17.144
_cell_angle_alpha    81.3593
_cell_angle_beta     98.6407
_cell_angle_gamma    155.836

_symmetry_space_group_name_H-M    "P 1"
_symmetry_Int_Tables_number       1

loop_
  _symmetry_equiv_pos_as_xyz
  'x, y, z'

loop_
  _atom_site_type_symbol
  _atom_site_label
  _atom_site_symmetry_multiplicity
  _atom_site_fract_x
  _atom_site_fract_y
  _atom_site_fract_z
  _atom_site_occupancy
  _atom_site_charge
Zn  Zn1       1.0  0.41947  0.41947  0.75000  1.0000 0.7447404849
Zn  Zn2       1.0  0.58053  0.58053  0.25000  1.0000 0.7447404849
H   H1        1.0  0.22320  0.58560  0.65140  1.0000 0.1207095838
H   H2        1.0  0.58560  0.22320  0.84860  1.0000 0.1207095838
H   H3        1.0  0.77680  0.41440  0.34860  1.0000 0.1207095838
H   H4        1.0  0.41440  0.77680  0.15140  1.0000 0.1207095838
H   H5        1.0  0.81900  0.99840  0.64620  1.0000 0.1109360891
H   H6        1.0  0.99840  0.81900  0.85380  1.0000 0.1109360891
H   H7        1.0  0.18100  0.00160  0.35380  1.0000 0.1109360891
H   H8        1.0  0.00160  0.18100  0.14620  1.0000 0.1109360891
H   H9        1.0  0.55490  0.85090  0.57060  1.0000 0.1207095838
H   H10       1.0  0.85090  0.55490  0.92940  1.0000 0.1207095838
H   H11       1.0  0.44510  0.14910  0.42940  1.0000 0.1207095838
H   H12       1.0  0.14910  0.44510  0.07060  1.0000 0.1207095838
H   H13       1.0  0.95740  0.43720  0.57820  1.0000 0.1207095838
H   H14       1.0  0.43720  0.95740  0.92180  1.0000 0.1207095838
H   H15       1.0  0.04260  0.56280  0.42180  1.0000 0.1207095838
H   H16       1.0  0.56280  0.04260  0.07820  1.0000 0.1207095838
H   H17       1.0  0.77150  0.87290  0.78850  1.0000 0.1207095838
H   H18       1.0  0.87290  0.77150  0.71150  1.0000 0.1207095838
H   H19       1.0  0.22850  0.12710  0.21150  1.0000 0.1207095838
H   H20       1.0  0.12710  0.22850  0.28850  1.0000 0.1207095838
H   H21       1.0  0.51820  0.42600  0.91770  1.0000 0.1109360891
H   H22       1.0  0.42600  0.51820  0.58230  1.0000 0.1109360891
H   H23       1.0  0.48180  0.57400  0.08230  1.0000 0.1109360891
H   H24       1.0  0.57400  0.48180  0.41770  1.0000 0.1109360891
H   H25       1.0  0.76190  0.66290  0.02090  1.0000 0.134033932
H   H26       1.0  0.66290  0.76190  0.47910  1.0000 0.134033932
H   H27       1.0  0.23810  0.33710  0.97910  1.0000 0.134033932
H   H28       1.0  0.33710  0.23810  0.52090  1.0000 0.134033932
H   H29       1.0  0.02300  0.12200  0.88660  1.0000 0.1387657399
H   H30       1.0  0.12200  0.02300  0.61340  1.0000 0.1387657399
H   H31       1.0  0.97700  0.87800  0.11340  1.0000 0.1387657399
H   H32       1.0  0.87800  0.97700  0.38660  1.0000 0.1387657399
C   C1        1.0  0.22134  0.40286  0.69990  1.0000 0.5350604939
C   C2        1.0  0.40286  0.22134  0.80010  1.0000 0.5350604939
C   C3        1.0  0.77866  0.59714  0.30010  1.0000 0.5350604939
C   C4        1.0  0.59714  0.77866  0.19990  1.0000 0.5350604939
C   C5        1.0  0.04493  0.30387  0.65540  1.0000 -0.0185376372
C   C6        1.0  0.30387  0.04493  0.84460  1.0000 -0.0185376372
C   C7        1.0  0.95507  0.69613  0.34460  1.0000 -0.0185376372
C   C8        1.0  0.69613  0.95507  0.15540  1.0000 -0.0185376372
C   C9        1.0  0.08739  0.43661  0.63520  1.0000 -0.0999614218
C   C10       1.0  0.43661  0.08739  0.86480  1.0000 -0.0999614218
C   C11       1.0  0.91261  0.56339  0.36480  1.0000 -0.0999614218
C   C12       1.0  0.56339  0.91261  0.13520  1.0000 -0.0999614218
C   C13       1.0  0.84761  0.08799  0.63180  1.0000 -0.0999614218
C   C14       1.0  0.08799  0.84761  0.86820  1.0000 -0.0999614218
C   C15       1.0  0.15239  0.91201  0.36820  1.0000 -0.0999614218
C   C16       1.0  0.91201  0.15239  0.13180  1.0000 -0.0999614218
C   C17       1.0  0.68951  0.99949  0.58710  1.0000 -0.1427211532
C   C18       1.0  0.99949  0.68951  0.91290  1.0000 -0.1427211532
C   C19       1.0  0.31049  0.00051  0.41290  1.0000 -0.1427211532
C   C20       1.0  0.00051  0.31049  0.08710  1.0000 -0.1427211532
C   C21       1.0  0.92975  0.34825  0.59160  1.0000 -0.1427211532
C   C22       1.0  0.34825  0.92975  0.90840  1.0000 -0.1427211532
C   C23       1.0  0.07025  0.65175  0.40840  1.0000 -0.1427211532
C   C24       1.0  0.65175  0.07025  0.09160  1.0000 -0.1427211532
C   C25       1.0  0.72879  0.12841  0.56670  1.0000 0.1387657399
C   C26       1.0  0.12841  0.72879  0.93330  1.0000 0.1387657399
C   C27       1.0  0.27121  0.87159  0.43330  1.0000 0.1387657399
C   C28       1.0  0.87159  0.27121  0.06670  1.0000 0.1387657399
C   C29       1.0  0.56853  0.03947  0.51970  1.0000 -0.0999614218
C   C30       1.0  0.03947  0.56853  0.98030  1.0000 -0.0999614218
C   C31       1.0  0.43147  0.96053  0.48030  1.0000 -0.0999614218
C   C32       1.0  0.96053  0.43147  0.01970  1.0000 -0.0999614218
C   C33       1.0  0.77039  0.83041  0.83650  1.0000 0.0990938085
C   C34       1.0  0.83041  0.77039  0.66350  1.0000 0.0990938085
C   C35       1.0  0.22961  0.16959  0.16350  1.0000 0.0990938085
C   C36       1.0  0.16959  0.22961  0.33650  1.0000 0.0990938085
C   C37       1.0  0.62209  0.56951  0.91170  1.0000 0.0856214283
C   C38       1.0  0.56951  0.62209  0.58830  1.0000 0.0856214283
C   C39       1.0  0.37791  0.43049  0.08830  1.0000 0.0856214283
C   C40       1.0  0.43049  0.37791  0.41170  1.0000 0.0856214283
C   C41       1.0  0.76702  0.71018  0.97360  1.0000 -0.1985892368
C   C42       1.0  0.71018  0.76702  0.52640  1.0000 -0.1985892368
C   C43       1.0  0.23298  0.28982  0.02640  1.0000 -0.1985892368
C   C44       1.0  0.28982  0.23298  0.47360  1.0000 -0.1985892368
C   C45       1.0  0.91950  0.97890  0.89470  1.0000 -0.1780896982
C   C46       1.0  0.97890  0.91950  0.60530  1.0000 -0.1780896982
C   C47       1.0  0.08050  0.02110  0.10530  1.0000 -0.1780896982
C   C48       1.0  0.02110  0.08050  0.39470  1.0000 -0.1780896982
C   C49       1.0  0.92111  0.92129  0.96710  1.0000 0.1109360891
C   C50       1.0  0.92129  0.92111  0.53290  1.0000 0.1109360891
C   C51       1.0  0.07889  0.07871  0.03290  1.0000 0.1109360891
C   C52       1.0  0.07871  0.07889  0.46710  1.0000 0.1109360891
N   N1        1.0  0.62068  0.62552  0.84330  1.0000 -0.2379241449
N   N2        1.0  0.62552  0.62068  0.65670  1.0000 -0.2379241449
N   N3        1.0  0.37932  0.37448  0.15670  1.0000 -0.2379241449
N   N4        1.0  0.37448  0.37932  0.34330  1.0000 -0.2379241449
O   O1        1.0  0.16798  0.26902  0.71438  1.0000 -0.5592998577
O   O2        1.0  0.26902  0.16798  0.78562  1.0000 -0.5592998577
O   O3        1.0  0.83202  0.73098  0.28562  1.0000 -0.5592998577
O   O4        1.0  0.73098  0.83202  0.21438  1.0000 -0.5592998577
O   O5        1.0  0.40266  0.59894  0.71659  1.0000 -0.5415908409
O   O6        1.0  0.59894  0.40266  0.78341  1.0000 -0.5415908409
O   O7        1.0  0.59734  0.40106  0.28341  1.0000 -0.5415908409
O   O8        1.0  0.40106  0.59734  0.21659  1.0000 -0.5415908409
