# DDEC6 charges by PACMAN v1.1 (https://github.com/mtap-research/PACMAN-charge/)
data_2008[Co][dia]3[ASR]3
_chemical_formula_sum              "Co12 H24 C24 O48"
_cell_length_a       11.323
_cell_length_b       9.935
_cell_length_c       18.3774
_cell_angle_alpha    90
_cell_angle_beta     126.854
_cell_angle_gamma    90

_symmetry_space_group_name_H-M    "P 1"
_symmetry_Int_Tables_number       1

loop_
  _symmetry_equiv_pos_as_xyz
  'x, y, z'

loop_
  _atom_site_type_symbol
  _atom_site_label
  _atom_site_symmetry_multiplicity
  _atom_site_fract_x
  _atom_site_fract_y
  _atom_site_fract_z
  _atom_site_occupancy
  _atom_site_charge
Co  Co1       1.0  0.37798  0.07396  0.63363  1.0000 0.9452042633
Co  Co2       1.0  0.62202  0.57396  0.86637  1.0000 0.9452042633
Co  Co3       1.0  0.62202  0.92604  0.36637  1.0000 0.9440313631
Co  Co4       1.0  0.37798  0.42604  0.13363  1.0000 0.9440313631
Co  Co5       1.0  0.56569  0.87975  0.80586  1.0000 0.9305937642
Co  Co6       1.0  0.43431  0.37975  0.69414  1.0000 0.9305937642
Co  Co7       1.0  0.43431  0.12025  0.19414  1.0000 0.9305937642
Co  Co8       1.0  0.56569  0.62025  0.30586  1.0000 0.9305937642
Co  Co9       1.0  0.50000  0.00000  0.50000  1.0000 0.9780933016
Co  Co10      1.0  0.50000  0.50000  0.00000  1.0000 0.9780933016
Co  Co11      1.0  0.00000  0.00000  0.50000  1.0000 0.9780933016
Co  Co12      1.0  0.00000  0.50000  0.00000  1.0000 0.9780933016
H   H1        1.0  0.51800  0.22770  0.86930  1.0000 0.1086539498
H   H2        1.0  0.48200  0.72770  0.63070  1.0000 0.1086539498
H   H3        1.0  0.48200  0.77230  0.13070  1.0000 0.1086539498
H   H4        1.0  0.51800  0.27230  0.36930  1.0000 0.1086539498
H   H5        1.0  0.49680  0.37360  0.55260  1.0000 0.1041145105
H   H6        1.0  0.50320  0.87360  0.94740  1.0000 0.1041145105
H   H7        1.0  0.50320  0.62640  0.44740  1.0000 0.1041145105
H   H8        1.0  0.49680  0.12640  0.05260  1.0000 0.1041145105
H   H9        1.0  0.77900  0.94300  0.75720  1.0000 0.1086539498
H   H10       1.0  0.22100  0.44300  0.74280  1.0000 0.1086539498
H   H11       1.0  0.22100  0.05700  0.24280  1.0000 0.1086539498
H   H12       1.0  0.77900  0.55700  0.25720  1.0000 0.1086539498
H   H13       1.0  0.24600  0.79540  0.72120  1.0000 0.1086539498
H   H14       1.0  0.75400  0.29540  0.77880  1.0000 0.1086539498
H   H15       1.0  0.75400  0.20460  0.27880  1.0000 0.1086539498
H   H16       1.0  0.24600  0.70460  0.22120  1.0000 0.1086539498
H   H17       1.0  0.97310  0.78770  0.97730  1.0000 0.1086539498
H   H18       1.0  0.02690  0.28770  0.52270  1.0000 0.1086539498
H   H19       1.0  0.02690  0.21230  0.02270  1.0000 0.1086539498
H   H20       1.0  0.97310  0.71230  0.47730  1.0000 0.1086539498
H   H21       1.0  0.22920  0.84950  0.42690  1.0000 0.1041145105
H   H22       1.0  0.77080  0.34950  0.07310  1.0000 0.1041145105
H   H23       1.0  0.77080  0.15050  0.57310  1.0000 0.1086539498
H   H24       1.0  0.22920  0.65050  0.92690  1.0000 0.1086539498
C   C1        1.0  0.50720  0.15960  0.83100  1.0000 0.4686847333
C   C2        1.0  0.49280  0.65960  0.66900  1.0000 0.4686847333
C   C3        1.0  0.49280  0.84040  0.16900  1.0000 0.4686847333
C   C4        1.0  0.50720  0.34040  0.33100  1.0000 0.4686847333
C   C5        1.0  0.48350  0.28240  0.55700  1.0000 0.4620816642
C   C6        1.0  0.51650  0.78240  0.94300  1.0000 0.4620816642
C   C7        1.0  0.51650  0.71760  0.44300  1.0000 0.4620816642
C   C8        1.0  0.48350  0.21760  0.05700  1.0000 0.4620816642
C   C9        1.0  0.68730  0.97030  0.70600  1.0000 0.4686847333
C   C10       1.0  0.31270  0.47030  0.79400  1.0000 0.4620816642
C   C11       1.0  0.31270  0.02970  0.29400  1.0000 0.4620816642
C   C12       1.0  0.68730  0.52970  0.20600  1.0000 0.4686847333
C   C13       1.0  0.22980  0.85950  0.67920  1.0000 0.4620816642
C   C14       1.0  0.77020  0.35950  0.82080  1.0000 0.4620816642
C   C15       1.0  0.77020  0.14050  0.32080  1.0000 0.4620816642
C   C16       1.0  0.22980  0.64050  0.17920  1.0000 0.4620816642
C   C17       1.0  0.87230  0.76980  0.93910  1.0000 0.4882256144
C   C18       1.0  0.12770  0.26980  0.56090  1.0000 0.4882256144
C   C19       1.0  0.12770  0.23020  0.06090  1.0000 0.4882256144
C   C20       1.0  0.87230  0.73020  0.43910  1.0000 0.4882256144
C   C21       1.0  0.22470  0.90240  0.46700  1.0000 0.4882256144
C   C22       1.0  0.77530  0.40240  0.03300  1.0000 0.4882256144
C   C23       1.0  0.77530  0.09760  0.53300  1.0000 0.4882256144
C   C24       1.0  0.22470  0.59760  0.96700  1.0000 0.4882256144
O   O1        1.0  0.55700  0.04850  0.86560  1.0000 -0.4924436721
O   O2        1.0  0.44300  0.54850  0.63440  1.0000 -0.4924436721
O   O3        1.0  0.44300  0.95150  0.13440  1.0000 -0.4924436721
O   O4        1.0  0.55700  0.45150  0.36560  1.0000 -0.4924436721
O   O5        1.0  0.44240  0.19060  0.74810  1.0000 -0.560928548
O   O6        1.0  0.55760  0.69060  0.75190  1.0000 -0.560928548
O   O7        1.0  0.55760  0.80940  0.25190  1.0000 -0.560928548
O   O8        1.0  0.44240  0.30940  0.24810  1.0000 -0.560928548
O   O9        1.0  0.45800  0.25020  0.61230  1.0000 -0.5530521667
O   O10       1.0  0.54200  0.75020  0.88770  1.0000 -0.5530521667
O   O11       1.0  0.54200  0.74980  0.38770  1.0000 -0.5530521667
O   O12       1.0  0.45800  0.24980  0.11230  1.0000 -0.5530521667
O   O13       1.0  0.49280  0.20540  0.50760  1.0000 -0.5096563718
O   O14       1.0  0.50720  0.70540  0.99240  1.0000 -0.5096563718
O   O15       1.0  0.50720  0.79460  0.49240  1.0000 -0.5096563718
O   O16       1.0  0.49280  0.29460  0.00760  1.0000 -0.5096563718
O   O17       1.0  0.58570  0.98380  0.71510  1.0000 -0.5653741306
O   O18       1.0  0.41430  0.48380  0.78490  1.0000 -0.5653741306
O   O19       1.0  0.41430  0.01620  0.28490  1.0000 -0.560928548
O   O20       1.0  0.58570  0.51620  0.21510  1.0000 -0.560928548
O   O21       1.0  0.67710  0.98940  0.63670  1.0000 -0.4924436721
O   O22       1.0  0.32290  0.48940  0.86330  1.0000 -0.4924436721
O   O23       1.0  0.32290  0.01060  0.36330  1.0000 -0.4924436721
O   O24       1.0  0.67710  0.51060  0.13670  1.0000 -0.4924436721
O   O25       1.0  0.34310  0.91160  0.69310  1.0000 -0.560928548
O   O26       1.0  0.65690  0.41160  0.80690  1.0000 -0.560928548
O   O27       1.0  0.65690  0.08840  0.30690  1.0000 -0.560928548
O   O28       1.0  0.34310  0.58840  0.19310  1.0000 -0.560928548
O   O29       1.0  0.10110  0.88390  0.61680  1.0000 -0.4924436721
O   O30       1.0  0.89890  0.38390  0.88320  1.0000 -0.4845058268
O   O31       1.0  0.89890  0.11610  0.38320  1.0000 -0.4845058268
O   O32       1.0  0.10110  0.61610  0.11680  1.0000 -0.4845058268
O   O33       1.0  0.78950  0.86670  0.89770  1.0000 -0.5000132939
O   O34       1.0  0.21050  0.36670  0.60230  1.0000 -0.5000132939
O   O35       1.0  0.21050  0.13330  0.10230  1.0000 -0.5000132939
O   O36       1.0  0.78950  0.63330  0.39770  1.0000 -0.5000132939
O   O37       1.0  0.83390  0.64940  0.93470  1.0000 -0.5530521667
O   O38       1.0  0.16610  0.14940  0.56530  1.0000 -0.5530521667
O   O39       1.0  0.16610  0.35060  0.06530  1.0000 -0.5530521667
O   O40       1.0  0.83390  0.85060  0.43470  1.0000 -0.5530521667
O   O41       1.0  0.11100  0.89550  0.46050  1.0000 -0.5000132939
O   O42       1.0  0.88900  0.39550  0.03950  1.0000 -0.5000132939
O   O43       1.0  0.88900  0.10450  0.53950  1.0000 -0.5000132939
O   O44       1.0  0.11100  0.60450  0.96050  1.0000 -0.5000132939
O   O45       1.0  0.33730  0.97380  0.52230  1.0000 -0.560928548
O   O46       1.0  0.66270  0.47380  0.97770  1.0000 -0.560928548
O   O47       1.0  0.66270  0.02620  0.47770  1.0000 -0.560928548
O   O48       1.0  0.33730  0.52620  0.02230  1.0000 -0.560928548
