# DDEC6 charges by PACMAN v1.1 (https://github.com/mtap-research/PACMAN-charge/)
data_2008[Nd][nan]3[ASR]1
_chemical_formula_sum              "Nd2 H24 C42 O12"
_cell_length_a       15.0312
_cell_length_b       15.0312
_cell_length_c       14.179
_cell_angle_alpha    65.1697
_cell_angle_beta     114.83
_cell_angle_gamma    146.265

_symmetry_space_group_name_H-M    "P 1"
_symmetry_Int_Tables_number       1

loop_
  _symmetry_equiv_pos_as_xyz
  'x, y, z'

loop_
  _atom_site_type_symbol
  _atom_site_label
  _atom_site_symmetry_multiplicity
  _atom_site_fract_x
  _atom_site_fract_y
  _atom_site_fract_z
  _atom_site_occupancy
  _atom_site_charge
Nd  Nd1       1.0  0.64201  0.09583  0.00504  1.0000 2.1296173071
Nd  Nd2       1.0  0.09583  0.64201  0.99496  1.0000 2.1296173071
H   H1        1.0  0.82030  0.15690  0.79670  1.0000 0.1090507254
H   H2        1.0  0.15690  0.82030  0.20330  1.0000 0.1090507254
H   H3        1.0  0.82950  0.14670  0.64160  1.0000 0.1090507254
H   H4        1.0  0.14670  0.82950  0.35840  1.0000 0.1090507254
H   H5        1.0  0.15780  0.62060  0.55870  1.0000 0.1090507254
H   H6        1.0  0.62060  0.15780  0.44130  1.0000 0.1090507254
H   H7        1.0  0.16140  0.63600  0.71790  1.0000 0.1090507254
H   H8        1.0  0.63600  0.16140  0.28210  1.0000 0.1090507254
H   H9        1.0  0.92530  0.17950  0.52990  1.0000 0.1090507254
H   H10       1.0  0.17950  0.92530  0.47010  1.0000 0.1090507254
H   H11       1.0  0.88120  0.14160  0.36380  1.0000 0.1183110585
H   H12       1.0  0.14160  0.88120  0.63620  1.0000 0.1183110585
H   H13       1.0  0.01830  0.53150  0.23600  1.0000 0.1183110585
H   H14       1.0  0.53150  0.01830  0.76400  1.0000 0.1183110585
H   H15       1.0  0.03720  0.55580  0.39250  1.0000 0.1090507254
H   H16       1.0  0.55580  0.03720  0.60750  1.0000 0.1090507254
H   H17       1.0  0.43240  0.20720  0.71540  1.0000 0.1183110585
H   H18       1.0  0.20720  0.43240  0.28460  1.0000 0.1183110585
H   H19       1.0  0.34800  0.27440  0.56430  1.0000 0.1090507254
H   H20       1.0  0.27440  0.34800  0.43570  1.0000 0.1090507254
H   H21       1.0  0.79440  0.74320  0.58490  1.0000 0.1090507254
H   H22       1.0  0.74320  0.79440  0.41510  1.0000 0.1090507254
H   H23       1.0  0.87920  0.66560  0.71970  1.0000 0.1297532355
H   H24       1.0  0.66560  0.87920  0.28030  1.0000 0.1297532355
C   C1        1.0  0.97710  0.40230  0.86820  1.0000 0.6505933141
C   C2        1.0  0.40230  0.97710  0.13180  1.0000 0.6505933141
C   C3        1.0  0.98610  0.39750  0.76980  1.0000 -0.0428670163
C   C4        1.0  0.39750  0.98610  0.23020  1.0000 -0.0428670163
C   C5        1.0  0.88790  0.25030  0.74920  1.0000 -0.1007982731
C   C6        1.0  0.25030  0.88790  0.25080  1.0000 -0.1007982731
C   C7        1.0  0.89240  0.24460  0.65470  1.0000 -0.1661681498
C   C8        1.0  0.24460  0.89240  0.34530  1.0000 -0.1661681498
C   C9        1.0  0.98780  0.38100  0.58060  1.0000 0.0667563463
C   C10       1.0  0.38100  0.98780  0.41940  1.0000 0.0667563463
C   C11       1.0  0.08910  0.52670  0.60560  1.0000 -0.1597594912
C   C12       1.0  0.52670  0.08910  0.39440  1.0000 -0.1597594912
C   C13       1.0  0.09030  0.53630  0.70130  1.0000 -0.089359334
C   C14       1.0  0.53630  0.09030  0.29870  1.0000 -0.089359334
C   C15       1.0  0.98260  0.37060  0.47860  1.0000 0.075614739
C   C16       1.0  0.37060  0.98260  0.52140  1.0000 0.075614739
C   C17       1.0  0.93810  0.24650  0.47020  1.0000 -0.1597594912
C   C18       1.0  0.24650  0.93810  0.52980  1.0000 -0.1597594912
C   C19       1.0  0.91350  0.22510  0.37040  1.0000 -0.1007982731
C   C20       1.0  0.22510  0.91350  0.62960  1.0000 -0.1007982731
C   C21       1.0  0.93750  0.32790  0.28240  1.0000 -0.0158879294
C   C22       1.0  0.32790  0.93750  0.71760  1.0000 -0.0158879294
C   C23       1.0  0.99220  0.45620  0.29420  1.0000 -0.1007982731
C   C24       1.0  0.45620  0.99220  0.70580  1.0000 -0.1007982731
C   C25       1.0  0.00840  0.47380  0.38810  1.0000 -0.1396609062
C   C26       1.0  0.47380  0.00840  0.61190  1.0000 -0.1396609062
C   C27       1.0  0.89080  0.28840  0.17550  1.0000 0.5920515393
C   C28       1.0  0.28840  0.89080  0.82450  1.0000 0.5920515393
C   C29       1.0  0.71430  0.38350  0.83330  1.0000 0.6396417355
C   C30       1.0  0.38350  0.71430  0.16670  1.0000 0.6396417355
C   C31       1.0  0.66320  0.42720  0.73520  1.0000 -0.0622493292
C   C32       1.0  0.42720  0.66320  0.26480  1.0000 -0.0622493292
C   C33       1.0  0.50750  0.31530  0.68600  1.0000 -0.0849259312
C   C34       1.0  0.31530  0.50750  0.31400  1.0000 -0.0849259312
C   C35       1.0  0.45550  0.35450  0.59450  1.0000 -0.1508465921
C   C36       1.0  0.35450  0.45550  0.40550  1.0000 -0.1597594912
C   C37       1.0  0.56930  0.52070  0.54610  1.0000 0.0644826924
C   C38       1.0  0.52070  0.56930  0.45390  1.0000 0.0667563463
C   C39       1.0  0.72300  0.63380  0.60470  1.0000 -0.1508465921
C   C40       1.0  0.63380  0.72300  0.39530  1.0000 -0.1508465921
C   C41       1.0  0.77080  0.58720  0.69060  1.0000 -0.089359334
C   C42       1.0  0.58720  0.77080  0.30940  1.0000 -0.089359334
O   O1        1.0  0.86170  0.27610  0.91540  1.0000 -0.6666559393
O   O2        1.0  0.27610  0.86170  0.08460  1.0000 -0.6666559393
O   O3        1.0  0.09320  0.54200  0.89850  1.0000 -0.6666559393
O   O4        1.0  0.54200  0.09320  0.10150  1.0000 -0.6666559393
O   O5        1.0  0.89400  0.37240  0.09580  1.0000 -0.729191419
O   O6        1.0  0.37240  0.89400  0.90420  1.0000 -0.729191419
O   O7        1.0  0.83270  0.16730  0.16990  1.0000 -0.5835271443
O   O8        1.0  0.16730  0.83270  0.83010  1.0000 -0.5835271443
O   O9        1.0  0.60910  0.23390  0.87110  1.0000 -0.6562074537
O   O10       1.0  0.23390  0.60910  0.12890  1.0000 -0.6562074537
O   O11       1.0  0.85420  0.49260  0.87630  1.0000 -0.6562074537
O   O12       1.0  0.49260  0.85420  0.12370  1.0000 -0.6562074537
