# DDEC6 charges by PACMAN v1.1 (https://github.com/mtap-research/PACMAN-charge/)
data_2008[Zn][nan]3[ASR]20
_chemical_formula_sum              "Zn6 H6 C24 O18"
_cell_length_a       15.1383
_cell_length_b       15.1383
_cell_length_c       15.1383
_cell_angle_alpha    117.758
_cell_angle_beta     117.758
_cell_angle_gamma    117.758

_symmetry_space_group_name_H-M    "P 1"
_symmetry_Int_Tables_number       1

loop_
  _symmetry_equiv_pos_as_xyz
  'x, y, z'

loop_
  _atom_site_type_symbol
  _atom_site_label
  _atom_site_symmetry_multiplicity
  _atom_site_fract_x
  _atom_site_fract_y
  _atom_site_fract_z
  _atom_site_occupancy
  _atom_site_charge
Zn  Zn1       1.0  0.38853  0.97953  0.71680  1.0000 0.9918431747
Zn  Zn2       1.0  0.97953  0.71680  0.38853  1.0000 0.9918431747
Zn  Zn3       1.0  0.71680  0.38853  0.97953  1.0000 0.9918431747
Zn  Zn4       1.0  0.61147  0.02047  0.28320  1.0000 0.9918431747
Zn  Zn5       1.0  0.02047  0.28320  0.61147  1.0000 0.9918431747
Zn  Zn6       1.0  0.28320  0.61147  0.02047  1.0000 0.9918431747
H   H1        1.0  0.69472  0.14006  0.16919  1.0000 0.1524655405
H   H2        1.0  0.14006  0.16919  0.69472  1.0000 0.1524655405
H   H3        1.0  0.16919  0.69472  0.14006  1.0000 0.1524655405
H   H4        1.0  0.30528  0.85994  0.83081  1.0000 0.1524655405
H   H5        1.0  0.85994  0.83081  0.30528  1.0000 0.1524655405
H   H6        1.0  0.83081  0.30528  0.85994  1.0000 0.1524655405
C   C1        1.0  0.75934  0.32449  0.15471  1.0000 0.6293919393
C   C2        1.0  0.32449  0.15471  0.75934  1.0000 0.6293919393
C   C3        1.0  0.15471  0.75934  0.32449  1.0000 0.6293919393
C   C4        1.0  0.24066  0.67551  0.84529  1.0000 0.6293919393
C   C5        1.0  0.67551  0.84529  0.24066  1.0000 0.6293919393
C   C6        1.0  0.84529  0.24066  0.67551  1.0000 0.6293919393
C   C7        1.0  0.88669  0.41497  0.32901  1.0000 -0.1870043915
C   C8        1.0  0.41497  0.32901  0.88669  1.0000 -0.1870043915
C   C9        1.0  0.32901  0.88669  0.41497  1.0000 -0.1870043915
C   C10       1.0  0.11331  0.58503  0.67099  1.0000 -0.1870043915
C   C11       1.0  0.58503  0.67099  0.11331  1.0000 -0.1870043915
C   C12       1.0  0.67099  0.11331  0.58503  1.0000 -0.1870043915
C   C13       1.0  0.06804  0.62829  0.52543  1.0000 0.3248292911
C   C14       1.0  0.62829  0.52543  0.06804  1.0000 0.3248292911
C   C15       1.0  0.52543  0.06804  0.62829  1.0000 0.3258252251
C   C16       1.0  0.93196  0.37171  0.47457  1.0000 0.3258252251
C   C17       1.0  0.37171  0.47457  0.93196  1.0000 0.3258252251
C   C18       1.0  0.47457  0.93196  0.37171  1.0000 0.3248292911
C   C19       1.0  0.82077  0.28644  0.30458  1.0000 -0.2154163909
C   C20       1.0  0.28644  0.30458  0.82077  1.0000 -0.2138707828
C   C21       1.0  0.30458  0.82077  0.28644  1.0000 -0.2138707828
C   C22       1.0  0.17923  0.71356  0.69542  1.0000 -0.2138707828
C   C23       1.0  0.71356  0.69542  0.17923  1.0000 -0.2138707828
C   C24       1.0  0.69542  0.17923  0.71356  1.0000 -0.2138707828
O   O1        1.0  0.60470  0.13528  0.98097  1.0000 -0.4983944189
O   O2        1.0  0.13528  0.98097  0.60470  1.0000 -0.4983944189
O   O3        1.0  0.98097  0.60470  0.13528  1.0000 -0.4983944189
O   O4        1.0  0.39530  0.86472  0.01903  1.0000 -0.4983944189
O   O5        1.0  0.86472  0.01903  0.39530  1.0000 -0.4983944189
O   O6        1.0  0.01903  0.39530  0.86472  1.0000 -0.4983944189
O   O7        1.0  0.82088  0.43621  0.17513  1.0000 -0.5561128548
O   O8        1.0  0.43621  0.17513  0.82088  1.0000 -0.5561128548
O   O9        1.0  0.17513  0.82088  0.43621  1.0000 -0.5561128548
O   O10       1.0  0.17912  0.56379  0.82487  1.0000 -0.5561128548
O   O11       1.0  0.56379  0.82487  0.17912  1.0000 -0.5561128548
O   O12       1.0  0.82487  0.17912  0.56379  1.0000 -0.5561128548
O   O13       1.0  0.11214  0.74656  0.54516  1.0000 -0.6433878632
O   O14       1.0  0.74656  0.54516  0.11214  1.0000 -0.6433878632
O   O15       1.0  0.54516  0.11214  0.74656  1.0000 -0.6433878632
O   O16       1.0  0.88786  0.25344  0.45484  1.0000 -0.6433878632
O   O17       1.0  0.25344  0.45484  0.88786  1.0000 -0.6433878632
O   O18       1.0  0.45484  0.88786  0.25344  1.0000 -0.6433878632
