# DDEC6 charges by PACMAN v1.1 (https://github.com/mtap-research/PACMAN-charge/)
data_2008[Ni][nan]3[ASR]4
_chemical_formula_sum              "Ni6 H72 C108 N24 O24"
_cell_length_a       14.4962
_cell_length_b       14.4962
_cell_length_c       16.114
_cell_angle_alpha    88.9302
_cell_angle_beta     91.0698
_cell_angle_gamma    85.2363

_symmetry_space_group_name_H-M    "P 1"
_symmetry_Int_Tables_number       1

loop_
  _symmetry_equiv_pos_as_xyz
  'x, y, z'

loop_
  _atom_site_type_symbol
  _atom_site_label
  _atom_site_symmetry_multiplicity
  _atom_site_fract_x
  _atom_site_fract_y
  _atom_site_fract_z
  _atom_site_occupancy
  _atom_site_charge
Ni  Ni1       1.0  0.18683  0.52031  0.38572  1.0000 0.7075889968
Ni  Ni2       1.0  0.52031  0.18683  0.11428  1.0000 0.7075889968
Ni  Ni3       1.0  0.81317  0.47969  0.61428  1.0000 0.7075889968
Ni  Ni4       1.0  0.47969  0.81317  0.88572  1.0000 0.7075889968
Ni  Ni5       1.0  0.11660  0.11660  0.25000  1.0000 0.7188340091
Ni  Ni6       1.0  0.88340  0.88340  0.75000  1.0000 0.7188340091
H   H1        1.0  0.03920  0.63060  0.28470  1.0000 0.1195996635
H   H2        1.0  0.63060  0.03920  0.21530  1.0000 0.1195996635
H   H3        1.0  0.96080  0.36940  0.71530  1.0000 0.1195996635
H   H4        1.0  0.36940  0.96080  0.78470  1.0000 0.1195996635
H   H5        1.0  0.99560  0.28020  0.14370  1.0000 0.1195996635
H   H6        1.0  0.28020  0.99560  0.35630  1.0000 0.1195996635
H   H7        1.0  0.00440  0.71980  0.85630  1.0000 0.1195996635
H   H8        1.0  0.71980  0.00440  0.64370  1.0000 0.1195996635
H   H9        1.0  0.26200  0.92780  0.06790  1.0000 0.1195996635
H   H10       1.0  0.92780  0.26200  0.43210  1.0000 0.1195996635
H   H11       1.0  0.73800  0.07220  0.93210  1.0000 0.1195996635
H   H12       1.0  0.07220  0.73800  0.56790  1.0000 0.1195996635
H   H13       1.0  0.26460  0.23880  0.16850  1.0000 0.1305589533
H   H14       1.0  0.23880  0.26460  0.33150  1.0000 0.1305589533
H   H15       1.0  0.73540  0.76120  0.83150  1.0000 0.1305589533
H   H16       1.0  0.76120  0.73540  0.66850  1.0000 0.1305589533
H   H17       1.0  0.16960  0.78520  0.25950  1.0000 0.1195996635
H   H18       1.0  0.78520  0.16960  0.24050  1.0000 0.1195996635
H   H19       1.0  0.83040  0.21480  0.74050  1.0000 0.1195996635
H   H20       1.0  0.21480  0.83040  0.75950  1.0000 0.1195996635
H   H21       1.0  0.33030  0.65470  0.09080  1.0000 0.1305589533
H   H22       1.0  0.65470  0.33030  0.40920  1.0000 0.1305589533
H   H23       1.0  0.66970  0.34530  0.90920  1.0000 0.1305589533
H   H24       1.0  0.34530  0.66970  0.59080  1.0000 0.1305589533
H   H25       1.0  0.61190  0.69830  0.00560  1.0000 0.1195996635
H   H26       1.0  0.69830  0.61190  0.49440  1.0000 0.1195996635
H   H27       1.0  0.38810  0.30170  0.99440  1.0000 0.1195996635
H   H28       1.0  0.30170  0.38810  0.50560  1.0000 0.1195996635
H   H29       1.0  0.59390  0.96750  0.99250  1.0000 0.1305589533
H   H30       1.0  0.96750  0.59390  0.50750  1.0000 0.1305589533
H   H31       1.0  0.40610  0.03250  0.00750  1.0000 0.1305589533
H   H32       1.0  0.03250  0.40610  0.49250  1.0000 0.1305589533
H   H33       1.0  0.71710  0.91930  0.09420  1.0000 0.1305589533
H   H34       1.0  0.91930  0.71710  0.40580  1.0000 0.1305589533
H   H35       1.0  0.28290  0.08070  0.90580  1.0000 0.1305589533
H   H36       1.0  0.08070  0.28290  0.59420  1.0000 0.1305589533
H   H37       1.0  0.03860  0.36420  0.32340  1.0000 0.1305589533
H   H38       1.0  0.36420  0.03860  0.17660  1.0000 0.1305589533
H   H39       1.0  0.96140  0.63580  0.67660  1.0000 0.1305589533
H   H40       1.0  0.63580  0.96140  0.82340  1.0000 0.1305589533
H   H41       1.0  0.94140  0.35680  0.00530  1.0000 0.1409626949
H   H42       1.0  0.35680  0.94140  0.49470  1.0000 0.1409626949
H   H43       1.0  0.05860  0.64320  0.99470  1.0000 0.1409626949
H   H44       1.0  0.64320  0.05860  0.50530  1.0000 0.1409626949
H   H45       1.0  0.89660  0.41400  0.24440  1.0000 0.1305589533
H   H46       1.0  0.41400  0.89660  0.25560  1.0000 0.1305589533
H   H47       1.0  0.10340  0.58600  0.75560  1.0000 0.1305589533
H   H48       1.0  0.58600  0.10340  0.74440  1.0000 0.1305589533
H   H49       1.0  0.13450  0.52390  0.07210  1.0000 0.1409626949
H   H50       1.0  0.52390  0.13450  0.42790  1.0000 0.1409626949
H   H51       1.0  0.86550  0.47610  0.92790  1.0000 0.1409626949
H   H52       1.0  0.47610  0.86550  0.57210  1.0000 0.1409626949
H   H53       1.0  0.23310  0.37470  0.07680  1.0000 0.1305589533
H   H54       1.0  0.37470  0.23310  0.42320  1.0000 0.1305589533
H   H55       1.0  0.76690  0.62530  0.92320  1.0000 0.1305589533
H   H56       1.0  0.62530  0.76690  0.57680  1.0000 0.1305589533
H   H57       1.0  0.96060  0.70440  0.18330  1.0000 0.1409626949
H   H58       1.0  0.70440  0.96060  0.31670  1.0000 0.1409626949
H   H59       1.0  0.03940  0.29560  0.81670  1.0000 0.1409626949
H   H60       1.0  0.29560  0.03940  0.68330  1.0000 0.1409626949
H   H61       1.0  0.66650  0.62830  0.13820  1.0000 0.1409626949
H   H62       1.0  0.62830  0.66650  0.36180  1.0000 0.1409626949
H   H63       1.0  0.33350  0.37170  0.86180  1.0000 0.1409626949
H   H64       1.0  0.37170  0.33350  0.63820  1.0000 0.1409626949
H   H65       1.0  0.77020  0.52940  0.21400  1.0000 0.1501831748
H   H66       1.0  0.52940  0.77020  0.28600  1.0000 0.1501831748
H   H67       1.0  0.22980  0.47060  0.78600  1.0000 0.1501831748
H   H68       1.0  0.47060  0.22980  0.71400  1.0000 0.1501831748
H   H69       1.0  0.85520  0.80440  0.11000  1.0000 0.1409626949
H   H70       1.0  0.80440  0.85520  0.39000  1.0000 0.1409626949
H   H71       1.0  0.14480  0.19560  0.89000  1.0000 0.1409626949
H   H72       1.0  0.19560  0.14480  0.61000  1.0000 0.1409626949
C   C1        1.0  0.02170  0.57030  0.28450  1.0000 0.1108162348
C   C2        1.0  0.57030  0.02170  0.21550  1.0000 0.1108162348
C   C3        1.0  0.97830  0.42970  0.71550  1.0000 0.1108162348
C   C4        1.0  0.42970  0.97830  0.78450  1.0000 0.1108162348
C   C5        1.0  0.16500  0.95900  0.20130  1.0000 0.5335290991
C   C6        1.0  0.95900  0.16500  0.29870  1.0000 0.5335290991
C   C7        1.0  0.83500  0.04100  0.79870  1.0000 0.5335290991
C   C8        1.0  0.04100  0.83500  0.70130  1.0000 0.5335290991
C   C9        1.0  0.36770  0.79730  0.99540  1.0000 0.5378800594
C   C10       1.0  0.79730  0.36770  0.50460  1.0000 0.5378800594
C   C11       1.0  0.63230  0.20270  0.00460  1.0000 0.5378800594
C   C12       1.0  0.20270  0.63230  0.49540  1.0000 0.5378800594
C   C13       1.0  0.05870  0.28710  0.13950  1.0000 0.1108162348
C   C14       1.0  0.28710  0.05870  0.36050  1.0000 0.1108162348
C   C15       1.0  0.94130  0.71290  0.86050  1.0000 0.1108162348
C   C16       1.0  0.71290  0.94130  0.63950  1.0000 0.1108162348
C   C17       1.0  0.87600  0.60700  0.20420  1.0000 0.1409626949
C   C18       1.0  0.60700  0.87600  0.29580  1.0000 0.1409626949
C   C19       1.0  0.12400  0.39300  0.79580  1.0000 0.1409626949
C   C20       1.0  0.39300  0.12400  0.70420  1.0000 0.1409626949
C   C21       1.0  0.25950  0.87230  0.09730  1.0000 -0.1221437901
C   C22       1.0  0.87230  0.25950  0.40270  1.0000 -0.1221437901
C   C23       1.0  0.74050  0.12770  0.90270  1.0000 -0.1221437901
C   C24       1.0  0.12770  0.74050  0.59730  1.0000 -0.1221437901
C   C25       1.0  0.20860  0.87040  0.16860  1.0000 -0.0295696528
C   C26       1.0  0.87040  0.20860  0.33140  1.0000 -0.0295696528
C   C27       1.0  0.79140  0.12960  0.83140  1.0000 -0.0295696528
C   C28       1.0  0.12960  0.79140  0.66860  1.0000 -0.0295696528
C   C29       1.0  0.20620  0.26500  0.15240  1.0000 -0.0352070592
C   C30       1.0  0.26500  0.20620  0.34760  1.0000 -0.0352070592
C   C31       1.0  0.79380  0.73500  0.84760  1.0000 -0.0352070592
C   C32       1.0  0.73500  0.79380  0.65240  1.0000 -0.0352070592
C   C33       1.0  0.75120  0.72520  0.11640  1.0000 0.1409626949
C   C34       1.0  0.72520  0.75120  0.38360  1.0000 0.1409626949
C   C35       1.0  0.24880  0.27480  0.88360  1.0000 0.1409626949
C   C36       1.0  0.27480  0.24880  0.61640  1.0000 0.1409626949
C   C37       1.0  0.30710  0.79230  0.06860  1.0000 -0.0295696528
C   C38       1.0  0.79230  0.30710  0.43140  1.0000 -0.0295696528
C   C39       1.0  0.69290  0.20770  0.93140  1.0000 -0.0295696528
C   C40       1.0  0.20770  0.69290  0.56860  1.0000 -0.0295696528
C   C41       1.0  0.20360  0.78700  0.21120  1.0000 -0.110712594
C   C42       1.0  0.78700  0.20360  0.28880  1.0000 -0.110712594
C   C43       1.0  0.79640  0.21300  0.78880  1.0000 -0.110712594
C   C44       1.0  0.21300  0.79640  0.71120  1.0000 -0.110712594
C   C45       1.0  0.24870  0.70690  0.18260  1.0000 -0.020623673
C   C46       1.0  0.70690  0.24870  0.31740  1.0000 -0.020623673
C   C47       1.0  0.75130  0.29310  0.81740  1.0000 -0.020623673
C   C48       1.0  0.29310  0.75130  0.68260  1.0000 -0.020623673
C   C49       1.0  0.30050  0.70890  0.11060  1.0000 -0.110712594
C   C50       1.0  0.70890  0.30050  0.38940  1.0000 -0.110712594
C   C51       1.0  0.69950  0.29110  0.88940  1.0000 -0.110712594
C   C52       1.0  0.29110  0.69950  0.61060  1.0000 -0.110712594
C   C53       1.0  0.62270  0.75970  0.01480  1.0000 0.0973679479
C   C54       1.0  0.75970  0.62270  0.48520  1.0000 0.0973679479
C   C55       1.0  0.37730  0.24030  0.98520  1.0000 0.0973679479
C   C56       1.0  0.24030  0.37730  0.51480  1.0000 0.0973679479
C   C57       1.0  0.61310  0.90670  0.00770  1.0000 -0.020623673
C   C58       1.0  0.90670  0.61310  0.49230  1.0000 -0.020623673
C   C59       1.0  0.38690  0.09330  0.99230  1.0000 -0.020623673
C   C60       1.0  0.09330  0.38690  0.50770  1.0000 -0.020623673
C   C61       1.0  0.68130  0.88070  0.06430  1.0000 -0.0951848738
C   C62       1.0  0.88070  0.68130  0.43570  1.0000 -0.0951848738
C   C63       1.0  0.31870  0.11930  0.93570  1.0000 -0.0951848738
C   C64       1.0  0.11930  0.31870  0.56430  1.0000 -0.0951848738
C   C65       1.0  0.04580  0.42860  0.04680  1.0000 0.1501831748
C   C66       1.0  0.42860  0.04580  0.45320  1.0000 0.1501831748
C   C67       1.0  0.95420  0.57140  0.95320  1.0000 0.1501831748
C   C68       1.0  0.57140  0.95420  0.54680  1.0000 0.1501831748
C   C69       1.0  0.24670  0.61730  0.23170  1.0000 0.5460069143
C   C70       1.0  0.61730  0.24670  0.26830  1.0000 0.5460069143
C   C71       1.0  0.75330  0.38270  0.76830  1.0000 0.5460069143
C   C72       1.0  0.38270  0.75330  0.73170  1.0000 0.5460069143
C   C73       1.0  0.02090  0.42450  0.30540  1.0000 -0.020623673
C   C74       1.0  0.42450  0.02090  0.19460  1.0000 -0.020623673
C   C75       1.0  0.97910  0.57550  0.69460  1.0000 -0.020623673
C   C76       1.0  0.57550  0.97910  0.80540  1.0000 -0.020623673
C   C77       1.0  0.96510  0.41450  0.00330  1.0000 -0.1672434086
C   C78       1.0  0.41450  0.96510  0.49670  1.0000 -0.1672434086
C   C79       1.0  0.03490  0.58550  0.99670  1.0000 -0.1672434086
C   C80       1.0  0.58550  0.03490  0.50330  1.0000 -0.1672434086
C   C81       1.0  0.94210  0.45130  0.26190  1.0000 -0.110712594
C   C82       1.0  0.45130  0.94210  0.23810  1.0000 -0.110712594
C   C83       1.0  0.05790  0.54870  0.73810  1.0000 -0.110712594
C   C84       1.0  0.54870  0.05790  0.76190  1.0000 -0.110712594
C   C85       1.0  0.08030  0.51410  0.04310  1.0000 -0.1581622324
C   C86       1.0  0.51410  0.08030  0.45690  1.0000 -0.1581622324
C   C87       1.0  0.91970  0.48590  0.95690  1.0000 -0.1581622324
C   C88       1.0  0.48590  0.91970  0.54310  1.0000 -0.1581622324
C   C89       1.0  0.18930  0.34010  0.10140  1.0000 -0.0951848738
C   C90       1.0  0.34010  0.18930  0.39860  1.0000 -0.0951848738
C   C91       1.0  0.81070  0.65990  0.89860  1.0000 -0.0947464741
C   C92       1.0  0.65990  0.81070  0.60140  1.0000 -0.0951848738
C   C93       1.0  0.90060  0.68820  0.17430  1.0000 -0.1672434086
C   C94       1.0  0.68820  0.90060  0.32570  1.0000 -0.1672434086
C   C95       1.0  0.09940  0.31180  0.82570  1.0000 -0.1672434086
C   C96       1.0  0.31180  0.09940  0.67430  1.0000 -0.1672434086
C   C97       1.0  0.72660  0.64440  0.14730  1.0000 -0.1821987219
C   C98       1.0  0.64440  0.72660  0.35270  1.0000 -0.1821987219
C   C99       1.0  0.27340  0.35560  0.85270  1.0000 -0.1821987219
C   C100      1.0  0.35560  0.27340  0.64730  1.0000 -0.1821987219
C   C101      1.0  0.78870  0.58470  0.19220  1.0000 -0.1581622324
C   C102      1.0  0.58470  0.78870  0.30780  1.0000 -0.1581622324
C   C103      1.0  0.21130  0.41530  0.80780  1.0000 -0.1546609439
C   C104      1.0  0.41530  0.21130  0.69220  1.0000 -0.1546609439
C   C105      1.0  0.83740  0.74820  0.13010  1.0000 -0.1672434086
C   C106      1.0  0.74820  0.83740  0.36990  1.0000 -0.1672434086
C   C107      1.0  0.16260  0.25180  0.86990  1.0000 -0.1672434086
C   C108      1.0  0.25180  0.16260  0.63010  1.0000 -0.1672434086
N   N1        1.0  0.12370  0.23310  0.17690  1.0000 -0.2695971801
N   N2        1.0  0.23310  0.12370  0.32310  1.0000 -0.2695971801
N   N3        1.0  0.87630  0.76690  0.82310  1.0000 -0.2695971801
N   N4        1.0  0.76690  0.87630  0.67690  1.0000 -0.2695971801
N   N5        1.0  0.09470  0.35470  0.09340  1.0000 -0.0002837672
N   N6        1.0  0.35470  0.09470  0.40660  1.0000 -0.0002837672
N   N7        1.0  0.90530  0.64530  0.90660  1.0000 -0.0002837672
N   N8        1.0  0.64530  0.90530  0.59340  1.0000 -0.0002837672
N   N9        1.0  0.57730  0.83030  0.97650  1.0000 -0.2695971801
N   N10       1.0  0.83030  0.57730  0.52350  1.0000 -0.2695971801
N   N11       1.0  0.42270  0.16970  0.02350  1.0000 -0.2695971801
N   N12       1.0  0.16970  0.42270  0.47650  1.0000 -0.2695971801
N   N13       1.0  0.68660  0.78580  0.06860  1.0000 0.0032291634
N   N14       1.0  0.78580  0.68660  0.43140  1.0000 0.0032291634
N   N15       1.0  0.31340  0.21420  0.93140  1.0000 0.0032291634
N   N16       1.0  0.21420  0.31340  0.56860  1.0000 0.0032291634
N   N17       1.0  0.07030  0.49850  0.31870  1.0000 -0.2630692757
N   N18       1.0  0.49850  0.07030  0.18130  1.0000 -0.2630692757
N   N19       1.0  0.92970  0.50150  0.68130  1.0000 -0.2630692757
N   N20       1.0  0.50150  0.92970  0.81870  1.0000 -0.2630692757
N   N21       1.0  0.94300  0.54500  0.24910  1.0000 0.0032291634
N   N22       1.0  0.54500  0.94300  0.25090  1.0000 0.0032291634
N   N23       1.0  0.05700  0.45500  0.75090  1.0000 0.0032291634
N   N24       1.0  0.45500  0.05700  0.74910  1.0000 0.0032291634
O   O1        1.0  0.17203  0.03327  0.16020  1.0000 -0.5305937891
O   O2        1.0  0.03327  0.17203  0.33980  1.0000 -0.5305937891
O   O3        1.0  0.82797  0.96673  0.83980  1.0000 -0.5305937891
O   O4        1.0  0.96673  0.82797  0.66020  1.0000 -0.5305937891
O   O5        1.0  0.12590  0.96196  0.27040  1.0000 -0.5305937891
O   O6        1.0  0.96196  0.12590  0.22960  1.0000 -0.5305937891
O   O7        1.0  0.87410  0.03804  0.72960  1.0000 -0.5183054577
O   O8        1.0  0.03804  0.87410  0.77040  1.0000 -0.5305937891
O   O9        1.0  0.37432  0.87336  0.95940  1.0000 -0.5183054577
O   O10       1.0  0.87336  0.37432  0.54060  1.0000 -0.5183054577
O   O11       1.0  0.62568  0.12664  0.04060  1.0000 -0.5183054577
O   O12       1.0  0.12664  0.62568  0.45940  1.0000 -0.5183054577
O   O13       1.0  0.41578  0.72524  0.97220  1.0000 -0.5183054577
O   O14       1.0  0.72524  0.41578  0.52780  1.0000 -0.5183054577
O   O15       1.0  0.58422  0.27476  0.02780  1.0000 -0.5183054577
O   O16       1.0  0.27476  0.58422  0.47220  1.0000 -0.5183054577
O   O17       1.0  0.27610  0.54290  0.19870  1.0000 -0.5817675479
O   O18       1.0  0.54290  0.27610  0.30130  1.0000 -0.5817675479
O   O19       1.0  0.72390  0.45710  0.80130  1.0000 -0.5817675479
O   O20       1.0  0.45710  0.72390  0.69870  1.0000 -0.5817675479
O   O21       1.0  0.21399  0.62269  0.30230  1.0000 -0.5305937891
O   O22       1.0  0.62269  0.21399  0.19770  1.0000 -0.5305937891
O   O23       1.0  0.78601  0.37731  0.69770  1.0000 -0.5305937891
O   O24       1.0  0.37731  0.78601  0.80230  1.0000 -0.5305937891
