# DDEC6 charges by PACMAN v1.1 (https://github.com/mtap-research/PACMAN-charge/)
data_2008[ZnSm][nan]3[ASR]1
_chemical_formula_sum              "Sm8 Zn8 H60 C160 Br20 O80"
_cell_length_a       12.2069
_cell_length_b       14.4811
_cell_length_c       28.55
_cell_angle_alpha    90
_cell_angle_beta     90
_cell_angle_gamma    90

_symmetry_space_group_name_H-M    "P 1"
_symmetry_Int_Tables_number       1

loop_
  _symmetry_equiv_pos_as_xyz
  'x, y, z'

loop_
  _atom_site_type_symbol
  _atom_site_label
  _atom_site_symmetry_multiplicity
  _atom_site_fract_x
  _atom_site_fract_y
  _atom_site_fract_z
  _atom_site_occupancy
  _atom_site_charge
Sm  Sm1       1.0  0.61218  0.52570  0.29225  1.0000 2.1760873265
Sm  Sm2       1.0  0.38782  0.47430  0.79225  1.0000 2.1760873265
Sm  Sm3       1.0  0.11218  0.97430  0.79225  1.0000 2.1760873265
Sm  Sm4       1.0  0.88782  0.02570  0.29225  1.0000 2.1760873265
Sm  Sm5       1.0  0.38426  0.50700  0.39492  1.0000 2.1704083151
Sm  Sm6       1.0  0.61574  0.49300  0.89492  1.0000 2.1704083151
Sm  Sm7       1.0  0.88426  0.99300  0.89492  1.0000 2.1704083151
Sm  Sm8       1.0  0.11574  0.00700  0.39492  1.0000 2.1704083151
Zn  Zn1       1.0  0.82531  0.72301  0.23395  1.0000 0.9430973
Zn  Zn2       1.0  0.17469  0.27699  0.73395  1.0000 0.9430973
Zn  Zn3       1.0  0.32531  0.77699  0.73395  1.0000 0.9430973
Zn  Zn4       1.0  0.67469  0.22301  0.23395  1.0000 0.9430973
Zn  Zn5       1.0  0.33154  0.81074  0.45094  1.0000 0.9498755402
Zn  Zn6       1.0  0.66846  0.18926  0.95094  1.0000 0.9498755402
Zn  Zn7       1.0  0.83154  0.68926  0.95094  1.0000 0.9498755402
Zn  Zn8       1.0  0.16846  0.31074  0.45094  1.0000 0.9498755402
H   H1        1.0  0.05830  0.69830  0.35260  1.0000 0.1324106353
H   H2        1.0  0.94170  0.30170  0.85260  1.0000 0.1324106353
H   H3        1.0  0.55830  0.80170  0.85260  1.0000 0.1324106353
H   H4        1.0  0.44170  0.19830  0.35260  1.0000 0.1324106353
H   H5        1.0  0.07090  0.54410  0.47060  1.0000 0.1486418507
H   H6        1.0  0.92910  0.45590  0.97060  1.0000 0.1486418507
H   H7        1.0  0.57090  0.95590  0.97060  1.0000 0.1486418507
H   H8        1.0  0.42910  0.04410  0.47060  1.0000 0.1486418507
H   H9        1.0  0.80800  0.52250  0.38420  1.0000 0.1389116295
H   H10       1.0  0.19200  0.47750  0.88420  1.0000 0.1389116295
H   H11       1.0  0.30800  0.97750  0.88420  1.0000 0.1389116295
H   H12       1.0  0.69200  0.02250  0.38420  1.0000 0.1389116295
H   H13       1.0  0.79300  0.26050  0.36130  1.0000 0.1389116295
H   H14       1.0  0.20700  0.73950  0.86130  1.0000 0.1389116295
H   H15       1.0  0.29300  0.23950  0.86130  1.0000 0.1389116295
H   H16       1.0  0.70700  0.76050  0.36130  1.0000 0.1389116295
H   H17       1.0  0.82340  0.13650  0.48930  1.0000 0.1389116295
H   H18       1.0  0.17660  0.86350  0.98930  1.0000 0.1389116295
H   H19       1.0  0.32340  0.36350  0.98930  1.0000 0.1389116295
H   H20       1.0  0.67660  0.63650  0.48930  1.0000 0.1389116295
H   H21       1.0  0.57930  0.31960  0.46730  1.0000 0.1486418507
H   H22       1.0  0.42070  0.68040  0.96730  1.0000 0.1486418507
H   H23       1.0  0.07930  0.18040  0.96730  1.0000 0.1486418507
H   H24       1.0  0.92070  0.81960  0.46730  1.0000 0.1486418507
H   H25       1.0  0.29640  0.27060  0.32280  1.0000 0.1389116295
H   H26       1.0  0.70360  0.72940  0.82280  1.0000 0.1389116295
H   H27       1.0  0.79640  0.22940  0.82280  1.0000 0.1389116295
H   H28       1.0  0.20360  0.77060  0.32280  1.0000 0.1389116295
H   H29       1.0  0.06140  0.22440  0.22440  1.0000 0.1486418507
H   H30       1.0  0.93860  0.77560  0.72440  1.0000 0.1486418507
H   H31       1.0  0.56140  0.27560  0.72440  1.0000 0.1486418507
H   H32       1.0  0.43860  0.72440  0.22440  1.0000 0.1486418507
H   H33       1.0  0.30080  0.41490  0.20210  1.0000 0.1324106353
H   H34       1.0  0.69920  0.58510  0.70210  1.0000 0.1324106353
H   H35       1.0  0.80080  0.08510  0.70210  1.0000 0.1324106353
H   H36       1.0  0.19920  0.91490  0.20210  1.0000 0.1324106353
H   H37       1.0  0.75730  0.61550  0.09330  1.0000 0.1324106353
H   H38       1.0  0.24270  0.38450  0.59330  1.0000 0.1324106353
H   H39       1.0  0.25730  0.88450  0.59330  1.0000 0.1324106353
H   H40       1.0  0.74270  0.11550  0.09330  1.0000 0.1324106353
H   H41       1.0  0.48700  0.53700  0.16670  1.0000 0.1486418507
H   H42       1.0  0.51300  0.46300  0.66667  1.0000 0.1486418507
H   H43       1.0  0.98700  0.96300  0.66667  1.0000 0.1486418507
H   H44       1.0  0.01300  0.03700  0.16670  1.0000 0.1486418507
H   H45       1.0  0.49060  0.51740  0.02460  1.0000 0.1486418507
H   H46       1.0  0.50940  0.48260  0.52460  1.0000 0.1486418507
H   H47       1.0  0.99060  0.98260  0.52460  1.0000 0.1486418507
H   H48       1.0  0.00940  0.01740  0.02460  1.0000 0.1486418507
H   H49       1.0  0.94480  0.33550  0.33180  1.0000 0.1324106353
H   H50       1.0  0.05520  0.66450  0.83180  1.0000 0.1324106353
H   H51       1.0  0.44480  0.16450  0.83180  1.0000 0.1324106353
H   H52       1.0  0.55520  0.83550  0.33180  1.0000 0.1324106353
H   H53       1.0  0.92010  0.50550  0.21830  1.0000 0.1389116295
H   H54       1.0  0.07990  0.49450  0.71830  1.0000 0.1389116295
H   H55       1.0  0.42010  0.99450  0.71830  1.0000 0.1389116295
H   H56       1.0  0.57990  0.00550  0.21830  1.0000 0.1389116295
H   H57       1.0  0.18280  0.52290  0.30570  1.0000 0.1389116295
H   H58       1.0  0.81720  0.47710  0.80570  1.0000 0.1389116295
H   H59       1.0  0.68280  0.97710  0.80570  1.0000 0.1389116295
H   H60       1.0  0.31720  0.02290  0.30570  1.0000 0.1389116295
C   C1        1.0  0.92410  0.61300  0.36160  1.0000 -0.0091841305
C   C2        1.0  0.07590  0.38700  0.86160  1.0000 -0.0091841305
C   C3        1.0  0.42410  0.88700  0.86160  1.0000 -0.0091841305
C   C4        1.0  0.57590  0.11300  0.36160  1.0000 -0.0091841305
C   C5        1.0  0.02700  0.65340  0.37290  1.0000 -0.1235063792
C   C6        1.0  0.97300  0.34660  0.87290  1.0000 -0.1235063792
C   C7        1.0  0.52700  0.84660  0.87290  1.0000 -0.1235063792
C   C8        1.0  0.47300  0.15340  0.37290  1.0000 -0.1235063792
C   C9        1.0  0.08190  0.62740  0.41350  1.0000 0.0023588798
C   C10       1.0  0.91810  0.37260  0.91350  1.0000 0.0023588798
C   C11       1.0  0.58190  0.87260  0.91350  1.0000 0.0023588798
C   C12       1.0  0.41810  0.12740  0.41350  1.0000 0.0023588798
C   C13       1.0  0.03360  0.56270  0.44300  1.0000 -0.1591849402
C   C14       1.0  0.96640  0.43730  0.94300  1.0000 -0.1591849402
C   C15       1.0  0.53360  0.93730  0.94300  1.0000 -0.1591849402
C   C16       1.0  0.46640  0.06270  0.44300  1.0000 -0.1591849402
C   C17       1.0  0.93240  0.52500  0.43290  1.0000 0.1108154702
C   C18       1.0  0.06760  0.47500  0.93290  1.0000 0.1108154702
C   C19       1.0  0.43240  0.97500  0.93290  1.0000 0.1108154702
C   C20       1.0  0.56760  0.02500  0.43290  1.0000 0.1108154702
C   C21       1.0  0.87690  0.54940  0.39150  1.0000 -0.1591849402
C   C22       1.0  0.12310  0.45060  0.89150  1.0000 -0.1591849402
C   C23       1.0  0.37690  0.95060  0.89150  1.0000 -0.1591849402
C   C24       1.0  0.62310  0.04940  0.39150  1.0000 -0.1591849402
C   C25       1.0  0.86630  0.63760  0.31660  1.0000 0.6128861672
C   C26       1.0  0.13370  0.36240  0.81660  1.0000 0.6128861672
C   C27       1.0  0.36630  0.86240  0.81660  1.0000 0.6128861672
C   C28       1.0  0.63370  0.13760  0.31660  1.0000 0.6128861672
C   C29       1.0  0.19250  0.66630  0.42500  1.0000 0.6248599953
C   C30       1.0  0.80750  0.33370  0.92500  1.0000 0.6248599953
C   C31       1.0  0.69250  0.83370  0.92500  1.0000 0.6248599953
C   C32       1.0  0.30750  0.16630  0.42500  1.0000 0.6248599953
C   C33       1.0  0.67920  0.30500  0.41140  1.0000 -0.0008718562
C   C34       1.0  0.32080  0.69500  0.91140  1.0000 -0.0008718562
C   C35       1.0  0.17920  0.19500  0.91140  1.0000 -0.0008718562
C   C36       1.0  0.82080  0.80500  0.41140  1.0000 -0.0008718562
C   C37       1.0  0.76930  0.25310  0.39270  1.0000 -0.1398602658
C   C38       1.0  0.23070  0.74690  0.89270  1.0000 -0.1398602658
C   C39       1.0  0.26930  0.24690  0.89270  1.0000 -0.1398602658
C   C40       1.0  0.73070  0.75310  0.39270  1.0000 -0.1398602658
C   C41       1.0  0.82030  0.19100  0.42320  1.0000 0.0128737836
C   C42       1.0  0.17970  0.80900  0.92320  1.0000 0.0128737836
C   C43       1.0  0.32030  0.30900  0.92320  1.0000 0.0128737836
C   C44       1.0  0.67970  0.69100  0.42320  1.0000 0.0128737836
C   C45       1.0  0.78590  0.17770  0.46900  1.0000 -0.168184095
C   C46       1.0  0.21410  0.82230  0.96900  1.0000 -0.168184095
C   C47       1.0  0.28590  0.32230  0.96900  1.0000 -0.168184095
C   C48       1.0  0.71410  0.67770  0.46900  1.0000 -0.168184095
C   C49       1.0  0.69630  0.22590  0.48380  1.0000 0.1020431212
C   C50       1.0  0.30370  0.77410  0.98380  1.0000 0.1020431212
C   C51       1.0  0.19630  0.27410  0.98380  1.0000 0.1020431212
C   C52       1.0  0.80370  0.72590  0.48380  1.0000 0.1020431212
C   C53       1.0  0.64220  0.28830  0.45580  1.0000 -0.1591849402
C   C54       1.0  0.35780  0.71170  0.95580  1.0000 -0.1591849402
C   C55       1.0  0.14220  0.21170  0.95580  1.0000 -0.1591849402
C   C56       1.0  0.85780  0.78830  0.45580  1.0000 -0.1591849402
C   C57       1.0  0.91570  0.12960  0.40710  1.0000 0.630663628
C   C58       1.0  0.08430  0.87040  0.90710  1.0000 0.630663628
C   C59       1.0  0.41570  0.37040  0.90710  1.0000 0.630663628
C   C60       1.0  0.58430  0.62960  0.40710  1.0000 0.630663628
C   C61       1.0  0.62400  0.38180  0.38390  1.0000 0.630663628
C   C62       1.0  0.37600  0.61820  0.88390  1.0000 0.630663628
C   C63       1.0  0.12400  0.11820  0.88390  1.0000 0.630663628
C   C64       1.0  0.87600  0.88180  0.38390  1.0000 0.630663628
C   C65       1.0  0.31250  0.35310  0.26580  1.0000 -0.0091841305
C   C66       1.0  0.68750  0.64690  0.76580  1.0000 -0.0091841305
C   C67       1.0  0.81250  0.14690  0.76580  1.0000 -0.0091841305
C   C68       1.0  0.18750  0.85310  0.26580  1.0000 -0.0091841305
C   C69       1.0  0.26540  0.28430  0.29300  1.0000 -0.1235063792
C   C70       1.0  0.73460  0.71570  0.79300  1.0000 -0.1235063792
C   C71       1.0  0.76540  0.21570  0.79300  1.0000 -0.1235063792
C   C72       1.0  0.23460  0.78430  0.29300  1.0000 -0.1235063792
C   C73       1.0  0.17540  0.23540  0.27840  1.0000 -0.0192226492
C   C74       1.0  0.82460  0.76460  0.77840  1.0000 -0.0192226492
C   C75       1.0  0.67540  0.26460  0.77840  1.0000 -0.0192226492
C   C76       1.0  0.32460  0.73540  0.27840  1.0000 -0.0192226492
C   C77       1.0  0.12370  0.25760  0.23500  1.0000 -0.1591849402
C   C78       1.0  0.87630  0.74240  0.73500  1.0000 -0.1591849402
C   C79       1.0  0.62370  0.24240  0.73500  1.0000 -0.1591849402
C   C80       1.0  0.37630  0.75760  0.23500  1.0000 -0.1591849402
C   C81       1.0  0.16810  0.32980  0.20890  1.0000 0.1108154702
C   C82       1.0  0.83190  0.67020  0.70890  1.0000 0.1108154702
C   C83       1.0  0.66810  0.17020  0.70890  1.0000 0.1108154702
C   C84       1.0  0.33190  0.82980  0.20890  1.0000 0.1108154702
C   C85       1.0  0.26600  0.37240  0.22260  1.0000 -0.1591849402
C   C86       1.0  0.73400  0.62760  0.72260  1.0000 -0.1591849402
C   C87       1.0  0.76600  0.12760  0.72260  1.0000 -0.1591849402
C   C88       1.0  0.23400  0.87240  0.22260  1.0000 -0.1591849402
C   C89       1.0  0.41090  0.40520  0.27980  1.0000 0.6248599953
C   C90       1.0  0.58910  0.59480  0.77980  1.0000 0.6248599953
C   C91       1.0  0.91090  0.09480  0.77980  1.0000 0.6248599953
C   C92       1.0  0.08910  0.90520  0.27980  1.0000 0.6248599953
C   C93       1.0  0.12700  0.15460  0.30410  1.0000 0.6528990931
C   C94       1.0  0.87300  0.84540  0.80410  1.0000 0.6528990931
C   C95       1.0  0.62700  0.34540  0.80410  1.0000 0.6528990931
C   C96       1.0  0.37300  0.65460  0.30410  1.0000 0.6528990931
C   C97       1.0  0.63130  0.56810  0.05150  1.0000 -0.0091841305
C   C98       1.0  0.36870  0.43190  0.55150  1.0000 -0.0091841305
C   C99       1.0  0.13130  0.93190  0.55150  1.0000 -0.0091841305
C   C100      1.0  0.86870  0.06810  0.05150  1.0000 -0.0091841305
C   C101      1.0  0.68450  0.59230  0.09390  1.0000 -0.1085482645
C   C102      1.0  0.31550  0.40770  0.59390  1.0000 -0.1085482645
C   C103      1.0  0.18450  0.90770  0.59390  1.0000 -0.1085482645
C   C104      1.0  0.81550  0.09230  0.09390  1.0000 -0.1085482645
C   C105      1.0  0.63070  0.58230  0.13620  1.0000 -0.0091841305
C   C106      1.0  0.36930  0.41770  0.63620  1.0000 -0.0091841305
C   C107      1.0  0.13070  0.91770  0.63620  1.0000 -0.0091841305
C   C108      1.0  0.86930  0.08230  0.13620  1.0000 -0.0091841305
C   C109      1.0  0.52470  0.54480  0.13790  1.0000 -0.1398602658
C   C110      1.0  0.47530  0.45520  0.63790  1.0000 -0.1398602658
C   C111      1.0  0.02470  0.95520  0.63790  1.0000 -0.1398602658
C   C112      1.0  0.97530  0.04480  0.13790  1.0000 -0.1398602658
C   C113      1.0  0.47700  0.51940  0.09520  1.0000 0.0924293968
C   C114      1.0  0.52300  0.48060  0.59520  1.0000 0.0924293968
C   C115      1.0  0.97700  0.98060  0.59520  1.0000 0.0924293968
C   C116      1.0  0.02300  0.01940  0.09520  1.0000 0.0924293968
C   C117      1.0  0.52750  0.53270  0.05280  1.0000 -0.1398602658
C   C118      1.0  0.47250  0.46730  0.55280  1.0000 -0.1398602658
C   C119      1.0  0.02750  0.96730  0.55280  1.0000 -0.1398602658
C   C120      1.0  0.97250  0.03270  0.05280  1.0000 -0.1398602658
C   C121      1.0  0.68530  0.58060  0.00430  1.0000 0.630663628
C   C122      1.0  0.31470  0.41940  0.50430  1.0000 0.630663628
C   C123      1.0  0.18530  0.91940  0.50430  1.0000 0.630663628
C   C124      1.0  0.81470  0.08060  0.00430  1.0000 0.630663628
C   C125      1.0  0.68250  0.60850  0.18280  1.0000 0.630663628
C   C126      1.0  0.31750  0.39150  0.68280  1.0000 0.630663628
C   C127      1.0  0.18250  0.89150  0.68280  1.0000 0.630663628
C   C128      1.0  0.81750  0.10850  0.18280  1.0000 0.630663628
C   C129      1.0  0.06710  0.42880  0.32580  1.0000 -0.0192226492
C   C130      1.0  0.93290  0.57120  0.82580  1.0000 -0.0192226492
C   C131      1.0  0.56710  0.07120  0.82580  1.0000 -0.0192226492
C   C132      1.0  0.43290  0.92880  0.32580  1.0000 -0.0192226492
C   C133      1.0  0.97220  0.38530  0.31360  1.0000 -0.1085482645
C   C134      1.0  0.02780  0.61470  0.81360  1.0000 -0.1085482645
C   C135      1.0  0.47220  0.11470  0.81360  1.0000 -0.1085482645
C   C136      1.0  0.52780  0.88530  0.31360  1.0000 -0.1085482645
C   C137      1.0  0.91540  0.41580  0.27350  1.0000 0.0177584692
C   C138      1.0  0.08460  0.58420  0.77350  1.0000 0.0177584692
C   C139      1.0  0.41540  0.08420  0.77350  1.0000 0.0177584692
C   C140      1.0  0.58460  0.91580  0.27350  1.0000 0.0177584692
C   C141      1.0  0.95860  0.48410  0.24510  1.0000 -0.1765797668
C   C142      1.0  0.04140  0.51590  0.74510  1.0000 -0.1765797668
C   C143      1.0  0.45860  0.01590  0.74510  1.0000 -0.1765797668
C   C144      1.0  0.54140  0.98410  0.24510  1.0000 -0.1765797668
C   C145      1.0  0.05890  0.51990  0.25700  1.0000 0.1020431212
C   C146      1.0  0.94110  0.48010  0.75700  1.0000 0.1020431212
C   C147      1.0  0.55890  0.98010  0.75700  1.0000 0.1020431212
C   C148      1.0  0.44110  0.01990  0.25700  1.0000 0.1020431212
C   C149      1.0  0.11480  0.49520  0.29770  1.0000 -0.1478651994
C   C150      1.0  0.88520  0.50480  0.79770  1.0000 -0.1478651994
C   C151      1.0  0.61480  0.00480  0.79770  1.0000 -0.1478651994
C   C152      1.0  0.38520  0.99520  0.29770  1.0000 -0.1478651994
C   C153      1.0  0.12370  0.40230  0.36990  1.0000 0.630663628
C   C154      1.0  0.87630  0.59770  0.86990  1.0000 0.630663628
C   C155      1.0  0.62370  0.09770  0.86990  1.0000 0.630663628
C   C156      1.0  0.37630  0.90230  0.36990  1.0000 0.630663628
C   C157      1.0  0.80820  0.37120  0.25850  1.0000 0.6128861672
C   C158      1.0  0.19180  0.62880  0.75850  1.0000 0.6128861672
C   C159      1.0  0.30820  0.12880  0.75850  1.0000 0.6128861672
C   C160      1.0  0.69180  0.87120  0.25850  1.0000 0.6128861672
Br  Br1       1.0  0.86732  0.44253  0.47529  1.0000 -0.0398260131
Br  Br2       1.0  0.13268  0.55747  0.97529  1.0000 -0.0398260131
Br  Br3       1.0  0.36732  0.05747  0.97529  1.0000 -0.0398260131
Br  Br4       1.0  0.63268  0.94253  0.47529  1.0000 -0.0398260131
Br  Br5       1.0  0.64600  0.20988  0.54659  1.0000 -0.0811510653
Br  Br6       1.0  0.35400  0.79012  0.04659  1.0000 -0.0811510653
Br  Br7       1.0  0.14600  0.29012  0.04659  1.0000 -0.0811510653
Br  Br8       1.0  0.85400  0.70988  0.54659  1.0000 -0.0811510653
Br  Br9       1.0  0.09343  0.36670  0.15405  1.0000 -0.069919967
Br  Br10      1.0  0.90657  0.63330  0.65405  1.0000 -0.069919967
Br  Br11      1.0  0.59343  0.13330  0.65405  1.0000 -0.069919967
Br  Br12      1.0  0.40657  0.86670  0.15405  1.0000 -0.069919967
Br  Br13      1.0  0.33050  0.47358  0.09724  1.0000 -0.1085482645
Br  Br14      1.0  0.66950  0.52642  0.59724  1.0000 -0.1085482645
Br  Br15      1.0  0.83050  0.02642  0.59724  1.0000 -0.1085482645
Br  Br16      1.0  0.16950  0.97358  0.09724  1.0000 -0.1085482645
Br  Br17      1.0  0.12382  0.60881  0.21612  1.0000 -0.0398260131
Br  Br18      1.0  0.87618  0.39119  0.71612  1.0000 -0.0398260131
Br  Br19      1.0  0.62382  0.89119  0.71612  1.0000 -0.0398260131
Br  Br20      1.0  0.37618  0.10881  0.21612  1.0000 -0.0398260131
O   O1        1.0  0.77840  0.59840  0.30740  1.0000 -0.6755198771
O   O2        1.0  0.22160  0.40160  0.80740  1.0000 -0.6755198771
O   O3        1.0  0.27840  0.90160  0.80740  1.0000 -0.6755198771
O   O4        1.0  0.72160  0.09840  0.30740  1.0000 -0.6755198771
O   O5        1.0  0.91380  0.69420  0.28960  1.0000 -0.5394156211
O   O6        1.0  0.08620  0.30580  0.78960  1.0000 -0.5394156211
O   O7        1.0  0.41380  0.80580  0.78960  1.0000 -0.5394156211
O   O8        1.0  0.58620  0.19420  0.28960  1.0000 -0.5394156211
O   O9        1.0  0.19730  0.75440  0.42640  1.0000 -0.5486584165
O   O10       1.0  0.80270  0.24560  0.92640  1.0000 -0.5486584165
O   O11       1.0  0.69730  0.74560  0.92640  1.0000 -0.5486584165
O   O12       1.0  0.30270  0.25440  0.42640  1.0000 -0.5486584165
O   O13       1.0  0.26830  0.61240  0.43660  1.0000 -0.669618282
O   O14       1.0  0.73170  0.38760  0.93660  1.0000 -0.669618282
O   O15       1.0  0.76830  0.88760  0.93660  1.0000 -0.669618282
O   O16       1.0  0.23170  0.11240  0.43660  1.0000 -0.669618282
O   O17       1.0  0.66600  0.40490  0.34490  1.0000 -0.669618282
O   O18       1.0  0.33400  0.59510  0.84490  1.0000 -0.669618282
O   O19       1.0  0.16600  0.09510  0.84490  1.0000 -0.669618282
O   O20       1.0  0.83400  0.90490  0.34490  1.0000 -0.669618282
O   O21       1.0  0.54270  0.41410  0.40160  1.0000 -0.6206753486
O   O22       1.0  0.45730  0.58590  0.90160  1.0000 -0.6206753486
O   O23       1.0  0.04270  0.08590  0.90160  1.0000 -0.6206753486
O   O24       1.0  0.95730  0.91410  0.40160  1.0000 -0.6206753486
O   O25       1.0  0.92000  0.10190  0.36470  1.0000 -0.7536009484
O   O26       1.0  0.08000  0.89810  0.86470  1.0000 -0.7536009484
O   O27       1.0  0.42000  0.39810  0.86470  1.0000 -0.7536009484
O   O28       1.0  0.58000  0.60190  0.36470  1.0000 -0.7536009484
O   O29       1.0  0.98720  0.10840  0.43670  1.0000 -0.6087745213
O   O30       1.0  0.01280  0.89160  0.93670  1.0000 -0.6087745213
O   O31       1.0  0.48720  0.39160  0.93670  1.0000 -0.6087745213
O   O32       1.0  0.51280  0.60840  0.43670  1.0000 -0.6087745213
O   O33       1.0  0.48040  0.42710  0.24890  1.0000 -0.6029691034
O   O34       1.0  0.51960  0.57290  0.74890  1.0000 -0.6029691034
O   O35       1.0  0.98040  0.07290  0.74890  1.0000 -0.6029691034
O   O36       1.0  0.01960  0.92710  0.24890  1.0000 -0.6029691034
O   O37       1.0  0.42260  0.43100  0.32180  1.0000 -0.7274094158
O   O38       1.0  0.57740  0.56900  0.82180  1.0000 -0.7274094158
O   O39       1.0  0.92260  0.06900  0.82180  1.0000 -0.7274094158
O   O40       1.0  0.07740  0.93100  0.32180  1.0000 -0.7274094158
O   O41       1.0  0.17030  0.12780  0.34190  1.0000 -0.669618282
O   O42       1.0  0.82970  0.87220  0.84190  1.0000 -0.669618282
O   O43       1.0  0.67030  0.37220  0.84190  1.0000 -0.669618282
O   O44       1.0  0.32970  0.62780  0.34190  1.0000 -0.669618282
O   O45       1.0  0.04240  0.11680  0.28470  1.0000 -0.7175734573
O   O46       1.0  0.95760  0.88320  0.78470  1.0000 -0.7175734573
O   O47       1.0  0.54240  0.38320  0.78470  1.0000 -0.7175734573
O   O48       1.0  0.45760  0.61680  0.28470  1.0000 -0.7175734573
O   O49       1.0  0.63300  0.55970  0.96940  1.0000 -0.6255274349
O   O50       1.0  0.36700  0.44030  0.46940  1.0000 -0.6255274349
O   O51       1.0  0.13300  0.94030  0.46940  1.0000 -0.6255274349
O   O52       1.0  0.86700  0.05970  0.96940  1.0000 -0.6255274349
O   O53       1.0  0.78140  0.61640  0.00470  1.0000 -0.5586302959
O   O54       1.0  0.21860  0.38360  0.50470  1.0000 -0.5586302959
O   O55       1.0  0.28140  0.88360  0.50470  1.0000 -0.5586302959
O   O56       1.0  0.71860  0.11640  0.00470  1.0000 -0.5586302959
O   O57       1.0  0.77880  0.64650  0.18060  1.0000 -0.5586302959
O   O58       1.0  0.22120  0.35350  0.68060  1.0000 -0.5586302959
O   O59       1.0  0.27880  0.85350  0.68060  1.0000 -0.5586302959
O   O60       1.0  0.72120  0.14650  0.18060  1.0000 -0.5586302959
O   O61       1.0  0.63140  0.59500  0.21840  1.0000 -0.6087745213
O   O62       1.0  0.36860  0.40500  0.71840  1.0000 -0.6087745213
O   O63       1.0  0.13140  0.90500  0.71840  1.0000 -0.6087745213
O   O64       1.0  0.86860  0.09500  0.21840  1.0000 -0.6087745213
O   O65       1.0  0.21620  0.43800  0.37930  1.0000 -0.71218782
O   O66       1.0  0.78380  0.56200  0.87930  1.0000 -0.71218782
O   O67       1.0  0.71620  0.06200  0.87930  1.0000 -0.71218782
O   O68       1.0  0.28380  0.93800  0.37930  1.0000 -0.71218782
O   O69       1.0  0.07700  0.34280  0.39700  1.0000 -0.5486584165
O   O70       1.0  0.92300  0.65720  0.89700  1.0000 -0.5486584165
O   O71       1.0  0.57700  0.15720  0.89700  1.0000 -0.5486584165
O   O72       1.0  0.42300  0.84280  0.39700  1.0000 -0.5486584165
O   O73       1.0  0.80590  0.28590  0.25810  1.0000 -0.511318081
O   O74       1.0  0.19410  0.71410  0.75810  1.0000 -0.511318081
O   O75       1.0  0.30590  0.21410  0.75810  1.0000 -0.511318081
O   O76       1.0  0.69410  0.78590  0.25810  1.0000 -0.511318081
O   O77       1.0  0.72800  0.42130  0.24840  1.0000 -0.6638900571
O   O78       1.0  0.27200  0.57870  0.74840  1.0000 -0.6638900571
O   O79       1.0  0.22800  0.07870  0.74840  1.0000 -0.6638900571
O   O80       1.0  0.77200  0.92130  0.24840  1.0000 -0.6638900571
