# DDEC6 charges by PACMAN v1.1 (https://github.com/mtap-research/PACMAN-charge/)
data_2008[Eu][nan]3[ASR]2
_chemical_formula_sum              "Eu8 H36 C84 N12 O48"
_cell_length_a       8.0154
_cell_length_b       15.322
_cell_length_c       30.175
_cell_angle_alpha    90
_cell_angle_beta     90
_cell_angle_gamma    90

_symmetry_space_group_name_H-M    "P 1"
_symmetry_Int_Tables_number       1

loop_
  _symmetry_equiv_pos_as_xyz
  'x, y, z'

loop_
  _atom_site_type_symbol
  _atom_site_label
  _atom_site_symmetry_multiplicity
  _atom_site_fract_x
  _atom_site_fract_y
  _atom_site_fract_z
  _atom_site_occupancy
  _atom_site_charge
Eu  Eu1       1.0  0.43541  0.70442  0.90717  1.0000 2.0785227048
Eu  Eu2       1.0  0.06459  0.20442  0.09283  1.0000 2.0785227048
Eu  Eu3       1.0  0.93541  0.79558  0.59283  1.0000 2.0785227048
Eu  Eu4       1.0  0.56459  0.29558  0.40717  1.0000 2.0785227048
Eu  Eu5       1.0  0.56459  0.29558  0.09283  1.0000 2.0785227048
Eu  Eu6       1.0  0.93541  0.79558  0.90717  1.0000 2.0785227048
Eu  Eu7       1.0  0.06459  0.20442  0.40717  1.0000 2.0785227048
Eu  Eu8       1.0  0.43541  0.70442  0.59283  1.0000 2.0785227048
H   H1        1.0  0.88540  0.65900  0.04320  1.0000 0.119141795
H   H2        1.0  0.61460  0.15900  0.95680  1.0000 0.119141795
H   H3        1.0  0.38540  0.84100  0.45680  1.0000 0.119141795
H   H4        1.0  0.11460  0.34100  0.54320  1.0000 0.119141795
H   H5        1.0  0.11460  0.34100  0.95680  1.0000 0.119141795
H   H6        1.0  0.38540  0.84100  0.04320  1.0000 0.119141795
H   H7        1.0  0.61460  0.15900  0.54320  1.0000 0.119141795
H   H8        1.0  0.88540  0.65900  0.45680  1.0000 0.119141795
H   H9        1.0  0.00000  0.45110  0.11060  1.0000 0.1133038172
H   H10       1.0  0.50000  0.95110  0.88940  1.0000 0.1133038172
H   H11       1.0  0.50000  0.04890  0.38940  1.0000 0.1133038172
H   H12       1.0  0.00000  0.54890  0.61060  1.0000 0.1133038172
H   H13       1.0  0.00000  0.54890  0.88940  1.0000 0.1133038172
H   H14       1.0  0.50000  0.04890  0.11060  1.0000 0.1133038172
H   H15       1.0  0.50000  0.95110  0.61060  1.0000 0.1133038172
H   H16       1.0  0.00000  0.45110  0.38940  1.0000 0.1133038172
H   H17       1.0  0.29290  0.52110  0.00860  1.0000 0.141505168
H   H18       1.0  0.20710  0.02110  0.99140  1.0000 0.141505168
H   H19       1.0  0.79290  0.97890  0.49140  1.0000 0.141505168
H   H20       1.0  0.70710  0.47890  0.50860  1.0000 0.141505168
H   H21       1.0  0.70710  0.47890  0.99140  1.0000 0.141505168
H   H22       1.0  0.79290  0.97890  0.00860  1.0000 0.141505168
H   H23       1.0  0.20710  0.02110  0.50860  1.0000 0.141505168
H   H24       1.0  0.29290  0.52110  0.49140  1.0000 0.141505168
H   H25       1.0  0.27300  0.56500  0.81490  1.0000 0.1133038172
H   H26       1.0  0.22700  0.06500  0.18510  1.0000 0.1133038172
H   H27       1.0  0.77300  0.93500  0.68510  1.0000 0.1133038172
H   H28       1.0  0.72700  0.43500  0.31490  1.0000 0.1133038172
H   H29       1.0  0.72700  0.43500  0.18510  1.0000 0.1133038172
H   H30       1.0  0.77300  0.93500  0.81490  1.0000 0.1133038172
H   H31       1.0  0.22700  0.06500  0.31490  1.0000 0.1133038172
H   H32       1.0  0.27300  0.56500  0.68510  1.0000 0.1133038172
H   H33       1.0  0.03180  0.75540  0.75000  1.0000 0.134824835
H   H34       1.0  0.46820  0.25540  0.25000  1.0000 0.134824835
H   H35       1.0  0.53180  0.74460  0.75000  1.0000 0.141505168
H   H36       1.0  0.96820  0.24460  0.25000  1.0000 0.134824835
C   C1        1.0  0.11710  0.65820  0.98000  1.0000 0.6454312432
C   C2        1.0  0.38290  0.15820  0.02000  1.0000 0.6454312432
C   C3        1.0  0.61710  0.84180  0.52000  1.0000 0.6454312432
C   C4        1.0  0.88290  0.34180  0.48000  1.0000 0.6454312432
C   C5        1.0  0.88290  0.34180  0.02000  1.0000 0.6454312432
C   C6        1.0  0.61710  0.84180  0.98000  1.0000 0.6454312432
C   C7        1.0  0.38290  0.15820  0.48000  1.0000 0.6454312432
C   C8        1.0  0.11710  0.65820  0.52000  1.0000 0.6454312432
C   C9        1.0  0.09260  0.60020  0.01950  1.0000 -0.0903130543
C   C10       1.0  0.40740  0.10020  0.98050  1.0000 -0.0903130543
C   C11       1.0  0.59260  0.89980  0.48050  1.0000 -0.0903130543
C   C12       1.0  0.90740  0.39980  0.51950  1.0000 -0.0903130543
C   C13       1.0  0.90740  0.39980  0.98050  1.0000 -0.0903130543
C   C14       1.0  0.59260  0.89980  0.01950  1.0000 -0.0903130543
C   C15       1.0  0.40740  0.10020  0.51950  1.0000 -0.0903130543
C   C16       1.0  0.09260  0.60020  0.48050  1.0000 -0.0903130543
C   C17       1.0  0.95860  0.61140  0.04840  1.0000 0.0795674112
C   C18       1.0  0.54140  0.11140  0.95160  1.0000 0.0795674112
C   C19       1.0  0.45860  0.88860  0.45160  1.0000 0.0795674112
C   C20       1.0  0.04140  0.38860  0.54840  1.0000 0.0795674112
C   C21       1.0  0.04140  0.38860  0.95160  1.0000 0.0795674112
C   C22       1.0  0.45860  0.88860  0.04840  1.0000 0.0795674112
C   C23       1.0  0.54140  0.11140  0.54840  1.0000 0.0795674112
C   C24       1.0  0.95860  0.61140  0.45160  1.0000 0.0795674112
C   C25       1.0  0.02520  0.49080  0.08740  1.0000 0.072641861
C   C26       1.0  0.47480  0.99080  0.91260  1.0000 0.072641861
C   C27       1.0  0.52520  0.00920  0.41260  1.0000 0.072641861
C   C28       1.0  0.97480  0.50920  0.58740  1.0000 0.072641861
C   C29       1.0  0.97480  0.50920  0.91260  1.0000 0.072641861
C   C30       1.0  0.52520  0.00920  0.08740  1.0000 0.072641861
C   C31       1.0  0.47480  0.99080  0.58740  1.0000 0.072641861
C   C32       1.0  0.02520  0.49080  0.41260  1.0000 0.072641861
C   C33       1.0  0.16220  0.47270  0.06060  1.0000 -0.0797153374
C   C34       1.0  0.33780  0.97270  0.93940  1.0000 -0.0797153374
C   C35       1.0  0.66220  0.02730  0.43940  1.0000 -0.0797153374
C   C36       1.0  0.83780  0.52730  0.56060  1.0000 -0.0797153374
C   C37       1.0  0.83780  0.52730  0.93940  1.0000 -0.0797153374
C   C38       1.0  0.66220  0.02730  0.06060  1.0000 -0.0797153374
C   C39       1.0  0.33780  0.97270  0.56060  1.0000 -0.0797153374
C   C40       1.0  0.16220  0.47270  0.43940  1.0000 -0.0797153374
C   C41       1.0  0.19750  0.52980  0.02680  1.0000 -0.0625615261
C   C42       1.0  0.30250  0.02980  0.97320  1.0000 -0.0625615261
C   C43       1.0  0.69750  0.97020  0.47320  1.0000 -0.0625615261
C   C44       1.0  0.80250  0.47020  0.52680  1.0000 -0.0625615261
C   C45       1.0  0.80250  0.47020  0.97320  1.0000 -0.0625615261
C   C46       1.0  0.69750  0.97020  0.02680  1.0000 -0.0625615261
C   C47       1.0  0.30250  0.02980  0.52680  1.0000 -0.0625615261
C   C48       1.0  0.19750  0.52980  0.47320  1.0000 -0.0625615261
C   C49       1.0  0.26820  0.39410  0.06620  1.0000 0.6013115572
C   C50       1.0  0.23180  0.89410  0.93380  1.0000 0.6013115572
C   C51       1.0  0.76820  0.10590  0.43380  1.0000 0.6013115572
C   C52       1.0  0.73180  0.60590  0.56620  1.0000 0.6013115572
C   C53       1.0  0.73180  0.60590  0.93380  1.0000 0.6013115572
C   C54       1.0  0.76820  0.10590  0.06620  1.0000 0.6013115572
C   C55       1.0  0.23180  0.89410  0.56620  1.0000 0.6013115572
C   C56       1.0  0.26820  0.39410  0.43380  1.0000 0.6013115572
C   C57       1.0  0.09430  0.71000  0.83200  1.0000 0.6216819513
C   C58       1.0  0.40570  0.21000  0.16800  1.0000 0.6216819513
C   C59       1.0  0.59430  0.79000  0.66800  1.0000 0.6216819513
C   C60       1.0  0.90570  0.29000  0.33200  1.0000 0.6216819513
C   C61       1.0  0.90570  0.29000  0.16800  1.0000 0.6216819513
C   C62       1.0  0.59430  0.79000  0.83200  1.0000 0.6216819513
C   C63       1.0  0.40570  0.21000  0.33200  1.0000 0.6216819513
C   C64       1.0  0.09430  0.71000  0.66800  1.0000 0.6216819513
C   C65       1.0  0.14800  0.66860  0.78960  1.0000 -0.0666983572
C   C66       1.0  0.35200  0.16860  0.21040  1.0000 -0.0625615261
C   C67       1.0  0.64800  0.83140  0.71040  1.0000 -0.0625615261
C   C68       1.0  0.85200  0.33140  0.28960  1.0000 -0.0625615261
C   C69       1.0  0.85200  0.33140  0.21040  1.0000 -0.0625615261
C   C70       1.0  0.64800  0.83140  0.78960  1.0000 -0.0625615261
C   C71       1.0  0.35200  0.16860  0.28960  1.0000 -0.0625615261
C   C72       1.0  0.14800  0.66860  0.71040  1.0000 -0.0666983572
C   C73       1.0  0.24200  0.59170  0.78770  1.0000 0.0795674112
C   C74       1.0  0.25800  0.09170  0.21230  1.0000 0.0795674112
C   C75       1.0  0.74200  0.90830  0.71230  1.0000 0.0795674112
C   C76       1.0  0.75800  0.40830  0.28770  1.0000 0.0795674112
C   C77       1.0  0.75800  0.40830  0.21230  1.0000 0.0795674112
C   C78       1.0  0.74200  0.90830  0.78770  1.0000 0.0795674112
C   C79       1.0  0.25800  0.09170  0.28770  1.0000 0.0795674112
C   C80       1.0  0.24200  0.59170  0.71230  1.0000 0.0795674112
C   C81       1.0  0.09970  0.70460  0.75000  1.0000 -0.0666983572
C   C82       1.0  0.40030  0.20460  0.25000  1.0000 -0.0666983572
C   C83       1.0  0.59970  0.79540  0.75000  1.0000 -0.0666983572
C   C84       1.0  0.90030  0.29540  0.25000  1.0000 -0.0666983572
N   N1        1.0  0.92700  0.56030  0.08240  1.0000 -0.2680791363
N   N2        1.0  0.57300  0.06030  0.91760  1.0000 -0.2680791363
N   N3        1.0  0.42700  0.93970  0.41760  1.0000 -0.2680791363
N   N4        1.0  0.07300  0.43970  0.58240  1.0000 -0.2680791363
N   N5        1.0  0.07300  0.43970  0.91760  1.0000 -0.2680791363
N   N6        1.0  0.42700  0.93970  0.08240  1.0000 -0.2680791363
N   N7        1.0  0.57300  0.06030  0.58240  1.0000 -0.2680791363
N   N8        1.0  0.92700  0.56030  0.41760  1.0000 -0.2680791363
N   N9        1.0  0.29150  0.55310  0.75000  1.0000 -0.2680791363
N   N10       1.0  0.20850  0.05310  0.25000  1.0000 -0.2680791363
N   N11       1.0  0.79150  0.94690  0.75000  1.0000 -0.2680791363
N   N12       1.0  0.70850  0.44690  0.25000  1.0000 -0.2646487129
O   O1        1.0  0.25420  0.65000  0.95990  1.0000 -0.6741525901
O   O2        1.0  0.24580  0.15000  0.04010  1.0000 -0.6741525901
O   O3        1.0  0.75420  0.85000  0.54010  1.0000 -0.6741525901
O   O4        1.0  0.74580  0.35000  0.45990  1.0000 -0.6741525901
O   O5        1.0  0.74580  0.35000  0.04010  1.0000 -0.6741525901
O   O6        1.0  0.75420  0.85000  0.95990  1.0000 -0.6741525901
O   O7        1.0  0.24580  0.15000  0.45990  1.0000 -0.6741525901
O   O8        1.0  0.25420  0.65000  0.54010  1.0000 -0.6741525901
O   O9        1.0  0.00120  0.70880  0.96990  1.0000 -0.6377793324
O   O10       1.0  0.49880  0.20880  0.03010  1.0000 -0.6377793324
O   O11       1.0  0.50120  0.79120  0.53010  1.0000 -0.6377793324
O   O12       1.0  0.99880  0.29120  0.46990  1.0000 -0.6377793324
O   O13       1.0  0.99880  0.29120  0.03010  1.0000 -0.6377793324
O   O14       1.0  0.50120  0.79120  0.96990  1.0000 -0.6377793324
O   O15       1.0  0.49880  0.20880  0.46990  1.0000 -0.6377793324
O   O16       1.0  0.00120  0.70880  0.53010  1.0000 -0.6377793324
O   O17       1.0  0.39190  0.38500  0.04200  1.0000 -0.569786973
O   O18       1.0  0.10810  0.88500  0.95800  1.0000 -0.569786973
O   O19       1.0  0.89190  0.11500  0.45800  1.0000 -0.569786973
O   O20       1.0  0.60810  0.61500  0.54200  1.0000 -0.569786973
O   O21       1.0  0.60810  0.61500  0.95800  1.0000 -0.569786973
O   O22       1.0  0.89190  0.11500  0.04200  1.0000 -0.569786973
O   O23       1.0  0.10810  0.88500  0.54200  1.0000 -0.569786973
O   O24       1.0  0.39190  0.38500  0.45800  1.0000 -0.569786973
O   O25       1.0  0.23600  0.33720  0.09690  1.0000 -0.7578942252
O   O26       1.0  0.26400  0.83720  0.90310  1.0000 -0.7578942252
O   O27       1.0  0.73600  0.16280  0.40310  1.0000 -0.7578942252
O   O28       1.0  0.76400  0.66280  0.59690  1.0000 -0.7578942252
O   O29       1.0  0.76400  0.66280  0.90310  1.0000 -0.7578942252
O   O30       1.0  0.73600  0.16280  0.09690  1.0000 -0.7578942252
O   O31       1.0  0.26400  0.83720  0.59690  1.0000 -0.7578942252
O   O32       1.0  0.23600  0.33720  0.40310  1.0000 -0.7578942252
O   O33       1.0  0.15680  0.68310  0.86920  1.0000 -0.7536079658
O   O34       1.0  0.34320  0.18310  0.13080  1.0000 -0.7536079658
O   O35       1.0  0.65680  0.81690  0.63080  1.0000 -0.7536079658
O   O36       1.0  0.84320  0.31690  0.36920  1.0000 -0.7536079658
O   O37       1.0  0.84320  0.31690  0.13080  1.0000 -0.7536079658
O   O38       1.0  0.65680  0.81690  0.86920  1.0000 -0.7536079658
O   O39       1.0  0.34320  0.18310  0.36920  1.0000 -0.7536079658
O   O40       1.0  0.15680  0.68310  0.63080  1.0000 -0.7536079658
O   O41       1.0  0.98770  0.76950  0.83050  1.0000 -0.6097803784
O   O42       1.0  0.51230  0.26950  0.16950  1.0000 -0.6097803784
O   O43       1.0  0.48770  0.73050  0.66950  1.0000 -0.6097803784
O   O44       1.0  0.01230  0.23050  0.33050  1.0000 -0.6097803784
O   O45       1.0  0.01230  0.23050  0.16950  1.0000 -0.6097803784
O   O46       1.0  0.48770  0.73050  0.83050  1.0000 -0.6097803784
O   O47       1.0  0.51230  0.26950  0.33050  1.0000 -0.6097803784
O   O48       1.0  0.98770  0.76950  0.66950  1.0000 -0.6097803784
