# DDEC6 charges by PACMAN v1.1 (https://github.com/mtap-research/PACMAN-charge/)
data_2008[Ni][tfz]3[ASR]1
_chemical_formula_sum              "Ni6 H144 C180 N12 O36"
_cell_length_a       18.7929
_cell_length_b       18.7929
_cell_length_c       18.7929
_cell_angle_alpha    111.419
_cell_angle_beta     111.419
_cell_angle_gamma    111.419

_symmetry_space_group_name_H-M    "P 1"
_symmetry_Int_Tables_number       1

loop_
  _symmetry_equiv_pos_as_xyz
  'x, y, z'

loop_
  _atom_site_type_symbol
  _atom_site_label
  _atom_site_symmetry_multiplicity
  _atom_site_fract_x
  _atom_site_fract_y
  _atom_site_fract_z
  _atom_site_occupancy
  _atom_site_charge
Ni  Ni1       1.0  0.13112  0.36888  0.75000  1.0000 0.7323815966
Ni  Ni2       1.0  0.36888  0.75000  0.13112  1.0000 0.7323815966
Ni  Ni3       1.0  0.75000  0.13112  0.36888  1.0000 0.7323815966
Ni  Ni4       1.0  0.86888  0.63112  0.25000  1.0000 0.7323815966
Ni  Ni5       1.0  0.63112  0.25000  0.86888  1.0000 0.7323815966
Ni  Ni6       1.0  0.25000  0.86888  0.63112  1.0000 0.7323815966
H   H1        1.0  0.03454  0.18378  0.12340  1.0000 0.1165653424
H   H2        1.0  0.18378  0.12340  0.03454  1.0000 0.1165653424
H   H3        1.0  0.12340  0.03454  0.18378  1.0000 0.1165653424
H   H4        1.0  0.46546  0.37660  0.31622  1.0000 0.1165653424
H   H5        1.0  0.31622  0.46546  0.37660  1.0000 0.1165653424
H   H6        1.0  0.37660  0.31622  0.46546  1.0000 0.1165653424
H   H7        1.0  0.96546  0.81622  0.87660  1.0000 0.1165653424
H   H8        1.0  0.81622  0.87660  0.96546  1.0000 0.1165653424
H   H9        1.0  0.87660  0.96546  0.81622  1.0000 0.1165653424
H   H10       1.0  0.53454  0.62340  0.68378  1.0000 0.1165653424
H   H11       1.0  0.68378  0.53454  0.62340  1.0000 0.1165653424
H   H12       1.0  0.62340  0.68378  0.53454  1.0000 0.1165653424
H   H13       1.0  0.22794  0.27348  0.05540  1.0000 0.1165653424
H   H14       1.0  0.27348  0.05540  0.22794  1.0000 0.1165653424
H   H15       1.0  0.05540  0.22794  0.27348  1.0000 0.1165653424
H   H16       1.0  0.27206  0.44460  0.22652  1.0000 0.1165653424
H   H17       1.0  0.22652  0.27206  0.44460  1.0000 0.1165653424
H   H18       1.0  0.44460  0.22652  0.27206  1.0000 0.1165653424
H   H19       1.0  0.77206  0.72652  0.94460  1.0000 0.1165653424
H   H20       1.0  0.72652  0.94460  0.77206  1.0000 0.1165653424
H   H21       1.0  0.94460  0.77206  0.72652  1.0000 0.1165653424
H   H22       1.0  0.72794  0.55540  0.77348  1.0000 0.1165653424
H   H23       1.0  0.77348  0.72794  0.55540  1.0000 0.1165653424
H   H24       1.0  0.55540  0.77348  0.72794  1.0000 0.1165653424
H   H25       1.0  0.93134  0.19888  0.86830  1.0000 0.1165653424
H   H26       1.0  0.19888  0.86830  0.93134  1.0000 0.1165653424
H   H27       1.0  0.86830  0.93134  0.19888  1.0000 0.1165653424
H   H28       1.0  0.56866  0.63170  0.30112  1.0000 0.1165653424
H   H29       1.0  0.30112  0.56866  0.63170  1.0000 0.1165653424
H   H30       1.0  0.63170  0.30112  0.56866  1.0000 0.1165653424
H   H31       1.0  0.06866  0.80112  0.13170  1.0000 0.1165653424
H   H32       1.0  0.80112  0.13170  0.06866  1.0000 0.1165653424
H   H33       1.0  0.13170  0.06866  0.80112  1.0000 0.1165653424
H   H34       1.0  0.43134  0.36830  0.69888  1.0000 0.1165653424
H   H35       1.0  0.69888  0.43134  0.36830  1.0000 0.1165653424
H   H36       1.0  0.36830  0.69888  0.43134  1.0000 0.1165653424
H   H37       1.0  0.95724  0.14958  0.96580  1.0000 0.1116983995
H   H38       1.0  0.14958  0.96580  0.95724  1.0000 0.1116983995
H   H39       1.0  0.96580  0.95724  0.14958  1.0000 0.1116983995
H   H40       1.0  0.54276  0.53420  0.35042  1.0000 0.1116983995
H   H41       1.0  0.35042  0.54276  0.53420  1.0000 0.1116983995
H   H42       1.0  0.53420  0.35042  0.54276  1.0000 0.1116983995
H   H43       1.0  0.04276  0.85042  0.03420  1.0000 0.1116983995
H   H44       1.0  0.85042  0.03420  0.04276  1.0000 0.1116983995
H   H45       1.0  0.03420  0.04276  0.85042  1.0000 0.1116983995
H   H46       1.0  0.45724  0.46580  0.64958  1.0000 0.1116983995
H   H47       1.0  0.64958  0.45724  0.46580  1.0000 0.1116983995
H   H48       1.0  0.46580  0.64958  0.45724  1.0000 0.1116983995
H   H49       1.0  0.20274  0.32668  0.96050  1.0000 0.1116983995
H   H50       1.0  0.32668  0.96050  0.20274  1.0000 0.1116983995
H   H51       1.0  0.96050  0.20274  0.32668  1.0000 0.1116983995
H   H52       1.0  0.29726  0.53950  0.17332  1.0000 0.1116983995
H   H53       1.0  0.17332  0.29726  0.53950  1.0000 0.1116983995
H   H54       1.0  0.53950  0.17332  0.29726  1.0000 0.1116983995
H   H55       1.0  0.79726  0.67332  0.03950  1.0000 0.1116983995
H   H56       1.0  0.67332  0.03950  0.79726  1.0000 0.1116983995
H   H57       1.0  0.03950  0.79726  0.67332  1.0000 0.1116983995
H   H58       1.0  0.70274  0.46050  0.82668  1.0000 0.1116983995
H   H59       1.0  0.82668  0.70274  0.46050  1.0000 0.1116983995
H   H60       1.0  0.46050  0.82668  0.70274  1.0000 0.1116983995
H   H61       1.0  0.08904  0.55508  0.81670  1.0000 0.1116983995
H   H62       1.0  0.55508  0.81670  0.08904  1.0000 0.1116983995
H   H63       1.0  0.81670  0.08904  0.55508  1.0000 0.1116983995
H   H64       1.0  0.41096  0.68330  0.94492  1.0000 0.1116983995
H   H65       1.0  0.94492  0.41096  0.68330  1.0000 0.1116983995
H   H66       1.0  0.68330  0.94492  0.41096  1.0000 0.1116983995
H   H67       1.0  0.91096  0.44492  0.18330  1.0000 0.1116983995
H   H68       1.0  0.44492  0.18330  0.91096  1.0000 0.1116983995
H   H69       1.0  0.18330  0.91096  0.44492  1.0000 0.1116983995
H   H70       1.0  0.58904  0.31670  0.05508  1.0000 0.1116983995
H   H71       1.0  0.05508  0.58904  0.31670  1.0000 0.1116983995
H   H72       1.0  0.31670  0.05508  0.58904  1.0000 0.1116983995
H   H73       1.0  0.07954  0.51088  0.72040  1.0000 0.0990491336
H   H74       1.0  0.51088  0.72040  0.07954  1.0000 0.0990491336
H   H75       1.0  0.72040  0.07954  0.51088  1.0000 0.0990491336
H   H76       1.0  0.42046  0.77960  0.98912  1.0000 0.0990491336
H   H77       1.0  0.98912  0.42046  0.77960  1.0000 0.0990491336
H   H78       1.0  0.77960  0.98912  0.42046  1.0000 0.0990491336
H   H79       1.0  0.92046  0.48912  0.27960  1.0000 0.0990491336
H   H80       1.0  0.48912  0.27960  0.92046  1.0000 0.0990491336
H   H81       1.0  0.27960  0.92046  0.48912  1.0000 0.0990491336
H   H82       1.0  0.57954  0.22040  0.01088  1.0000 0.0990491336
H   H83       1.0  0.01088  0.57954  0.22040  1.0000 0.0990491336
H   H84       1.0  0.22040  0.01088  0.57954  1.0000 0.0990491336
H   H85       1.0  0.10034  0.06418  0.65190  1.0000 0.1289424884
H   H86       1.0  0.06418  0.65190  0.10034  1.0000 0.1289424884
H   H87       1.0  0.65190  0.10034  0.06418  1.0000 0.1289424884
H   H88       1.0  0.39966  0.84810  0.43582  1.0000 0.1289424884
H   H89       1.0  0.43582  0.39966  0.84810  1.0000 0.1289424884
H   H90       1.0  0.84810  0.43582  0.39966  1.0000 0.1289424884
H   H91       1.0  0.89966  0.93582  0.34810  1.0000 0.1289424884
H   H92       1.0  0.93582  0.34810  0.89966  1.0000 0.1289424884
H   H93       1.0  0.34810  0.89966  0.93582  1.0000 0.1289424884
H   H94       1.0  0.60034  0.15190  0.56418  1.0000 0.1289424884
H   H95       1.0  0.56418  0.60034  0.15190  1.0000 0.1289424884
H   H96       1.0  0.15190  0.56418  0.60034  1.0000 0.1289424884
H   H97       1.0  0.14894  0.21348  0.75520  1.0000 0.1116983995
H   H98       1.0  0.21348  0.75520  0.14894  1.0000 0.1116983995
H   H99       1.0  0.75520  0.14894  0.21348  1.0000 0.1116983995
H   H100      1.0  0.35106  0.74480  0.28652  1.0000 0.1116983995
H   H101      1.0  0.28652  0.35106  0.74480  1.0000 0.1116983995
H   H102      1.0  0.74480  0.28652  0.35106  1.0000 0.1116983995
H   H103      1.0  0.85106  0.78652  0.24480  1.0000 0.1116983995
H   H104      1.0  0.78652  0.24480  0.85106  1.0000 0.1116983995
H   H105      1.0  0.24480  0.85106  0.78652  1.0000 0.1116983995
H   H106      1.0  0.64894  0.25520  0.71348  1.0000 0.1116983995
H   H107      1.0  0.71348  0.64894  0.25520  1.0000 0.1116983995
H   H108      1.0  0.25520  0.71348  0.64894  1.0000 0.1116983995
H   H109      1.0  0.00284  0.21808  0.55020  1.0000 0.1116983995
H   H110      1.0  0.21808  0.55020  0.00284  1.0000 0.1116983995
H   H111      1.0  0.55020  0.00284  0.21808  1.0000 0.1116983995
H   H112      1.0  0.49716  0.94980  0.28192  1.0000 0.1116983995
H   H113      1.0  0.28192  0.49716  0.94980  1.0000 0.1116983995
H   H114      1.0  0.94980  0.28192  0.49716  1.0000 0.1116983995
H   H115      1.0  0.99716  0.78192  0.44980  1.0000 0.1116983995
H   H116      1.0  0.78192  0.44980  0.99716  1.0000 0.1116983995
H   H117      1.0  0.44980  0.99716  0.78192  1.0000 0.1116983995
H   H118      1.0  0.50284  0.05020  0.71808  1.0000 0.1116983995
H   H119      1.0  0.71808  0.50284  0.05020  1.0000 0.1116983995
H   H120      1.0  0.05020  0.71808  0.50284  1.0000 0.1116983995
H   H121      1.0  0.94594  0.06708  0.44280  1.0000 0.1289424884
H   H122      1.0  0.06708  0.44280  0.94594  1.0000 0.1289424884
H   H123      1.0  0.44280  0.94594  0.06708  1.0000 0.1289424884
H   H124      1.0  0.55406  0.05720  0.43292  1.0000 0.1289424884
H   H125      1.0  0.43292  0.55406  0.05720  1.0000 0.1289424884
H   H126      1.0  0.05720  0.43292  0.55406  1.0000 0.1289424884
H   H127      1.0  0.05406  0.93292  0.55720  1.0000 0.1289424884
H   H128      1.0  0.93292  0.55720  0.05406  1.0000 0.1289424884
H   H129      1.0  0.55720  0.05406  0.93292  1.0000 0.1289424884
H   H130      1.0  0.44594  0.94280  0.56708  1.0000 0.1289424884
H   H131      1.0  0.56708  0.44594  0.94280  1.0000 0.1289424884
H   H132      1.0  0.94280  0.56708  0.44594  1.0000 0.1289424884
H   H133      1.0  0.19844  0.53058  0.79150  1.0000 0.3280249977
H   H134      1.0  0.53058  0.79150  0.19844  1.0000 0.3280249977
H   H135      1.0  0.79150  0.19844  0.53058  1.0000 0.3280249977
H   H136      1.0  0.30156  0.70850  0.96942  1.0000 0.3280249977
H   H137      1.0  0.96942  0.30156  0.70850  1.0000 0.3280249977
H   H138      1.0  0.70850  0.96942  0.30156  1.0000 0.3280249977
H   H139      1.0  0.80156  0.46942  0.20850  1.0000 0.3280249977
H   H140      1.0  0.46942  0.20850  0.80156  1.0000 0.3280249977
H   H141      1.0  0.20850  0.80156  0.46942  1.0000 0.3280249977
H   H142      1.0  0.69844  0.29150  0.03058  1.0000 0.3280249977
H   H143      1.0  0.03058  0.69844  0.29150  1.0000 0.3280249977
H   H144      1.0  0.29150  0.03058  0.69844  1.0000 0.3280249977
C   C1        1.0  0.04622  0.29284  0.83496  1.0000 0.5407190416
C   C2        1.0  0.29284  0.83496  0.04622  1.0000 0.5407190416
C   C3        1.0  0.83496  0.04622  0.29284  1.0000 0.5407190416
C   C4        1.0  0.45378  0.66504  0.20716  1.0000 0.5407190416
C   C5        1.0  0.20716  0.45378  0.66504  1.0000 0.5407190416
C   C6        1.0  0.66504  0.20716  0.45378  1.0000 0.5407190416
C   C7        1.0  0.95378  0.70716  0.16504  1.0000 0.5407190416
C   C8        1.0  0.70716  0.16504  0.95378  1.0000 0.5407190416
C   C9        1.0  0.16504  0.95378  0.70716  1.0000 0.5407190416
C   C10       1.0  0.54622  0.33496  0.79284  1.0000 0.5407190416
C   C11       1.0  0.79284  0.54622  0.33496  1.0000 0.5407190416
C   C12       1.0  0.33496  0.79284  0.54622  1.0000 0.5407190416
C   C13       1.0  0.06281  0.26471  0.90170  1.0000 -0.0392087182
C   C14       1.0  0.26471  0.90170  0.06281  1.0000 -0.0392087182
C   C15       1.0  0.90170  0.06281  0.26471  1.0000 -0.0392087182
C   C16       1.0  0.43719  0.59830  0.23529  1.0000 -0.0392087182
C   C17       1.0  0.23529  0.43719  0.59830  1.0000 -0.0392087182
C   C18       1.0  0.59830  0.23529  0.43719  1.0000 -0.0392087182
C   C19       1.0  0.93719  0.73529  0.09830  1.0000 -0.0392087182
C   C20       1.0  0.73529  0.09830  0.93719  1.0000 -0.0392087182
C   C21       1.0  0.09830  0.93719  0.73529  1.0000 -0.0392087182
C   C22       1.0  0.56281  0.40170  0.76471  1.0000 -0.0392087182
C   C23       1.0  0.76471  0.56281  0.40170  1.0000 -0.0392087182
C   C24       1.0  0.40170  0.76471  0.56281  1.0000 -0.0392087182
C   C25       1.0  0.06641  0.15489  0.11922  1.0000 -0.1889775358
C   C26       1.0  0.15489  0.11922  0.06641  1.0000 -0.1889775358
C   C27       1.0  0.11922  0.06641  0.15489  1.0000 -0.1889775358
C   C28       1.0  0.43359  0.38078  0.34511  1.0000 -0.1889775358
C   C29       1.0  0.34511  0.43359  0.38078  1.0000 -0.1889775358
C   C30       1.0  0.38078  0.34511  0.43359  1.0000 -0.1889775358
C   C31       1.0  0.93359  0.84511  0.88078  1.0000 -0.1889775358
C   C32       1.0  0.84511  0.88078  0.93359  1.0000 -0.1889775358
C   C33       1.0  0.88078  0.93359  0.84511  1.0000 -0.1889775358
C   C34       1.0  0.56641  0.61922  0.65489  1.0000 -0.1889775358
C   C35       1.0  0.65489  0.56641  0.61922  1.0000 -0.1889775358
C   C36       1.0  0.61922  0.65489  0.56641  1.0000 -0.1889775358
C   C37       1.0  0.16728  0.25745  0.01689  1.0000 -0.1610114704
C   C38       1.0  0.25745  0.01689  0.16728  1.0000 -0.1610114704
C   C39       1.0  0.01689  0.16728  0.25745  1.0000 -0.1610114704
C   C40       1.0  0.33272  0.48311  0.24255  1.0000 -0.1610114704
C   C41       1.0  0.24255  0.33272  0.48311  1.0000 -0.1610114704
C   C42       1.0  0.48311  0.24255  0.33272  1.0000 -0.1610114704
C   C43       1.0  0.83272  0.74255  0.98311  1.0000 -0.1610114704
C   C44       1.0  0.74255  0.98311  0.83272  1.0000 -0.1610114704
C   C45       1.0  0.98311  0.83272  0.74255  1.0000 -0.1610114704
C   C46       1.0  0.66728  0.51689  0.75745  1.0000 -0.1610114704
C   C47       1.0  0.75745  0.66728  0.51689  1.0000 -0.1610114704
C   C48       1.0  0.51689  0.75745  0.66728  1.0000 -0.1610114704
C   C49       1.0  0.99169  0.21369  0.90564  1.0000 -0.1081521126
C   C50       1.0  0.21369  0.90564  0.99169  1.0000 -0.1081521126
C   C51       1.0  0.90564  0.99169  0.21369  1.0000 -0.1081521126
C   C52       1.0  0.50831  0.59436  0.28631  1.0000 -0.1081521126
C   C53       1.0  0.28631  0.50831  0.59436  1.0000 -0.1081521126
C   C54       1.0  0.59436  0.28631  0.50831  1.0000 -0.1081521126
C   C55       1.0  0.00831  0.78631  0.09436  1.0000 -0.1081521126
C   C56       1.0  0.78631  0.09436  0.00831  1.0000 -0.1081521126
C   C57       1.0  0.09436  0.00831  0.78631  1.0000 -0.1081521126
C   C58       1.0  0.49169  0.40564  0.71369  1.0000 -0.1081521126
C   C59       1.0  0.71369  0.49169  0.40564  1.0000 -0.1081521126
C   C60       1.0  0.40564  0.71369  0.49169  1.0000 -0.1081521126
C   C61       1.0  0.10793  0.16078  0.07121  1.0000 0.0789929448
C   C62       1.0  0.16078  0.07121  0.10793  1.0000 0.0789929448
C   C63       1.0  0.07121  0.10793  0.16078  1.0000 0.0789929448
C   C64       1.0  0.39207  0.42879  0.33922  1.0000 0.0789929448
C   C65       1.0  0.33922  0.39207  0.42879  1.0000 0.0789929448
C   C66       1.0  0.42879  0.33922  0.39207  1.0000 0.0789929448
C   C67       1.0  0.89207  0.83922  0.92879  1.0000 0.0789929448
C   C68       1.0  0.83922  0.92879  0.89207  1.0000 0.0789929448
C   C69       1.0  0.92879  0.89207  0.83922  1.0000 0.0789929448
C   C70       1.0  0.60793  0.57121  0.66078  1.0000 0.0789929448
C   C71       1.0  0.66078  0.60793  0.57121  1.0000 0.0789929448
C   C72       1.0  0.57121  0.66078  0.60793  1.0000 0.0789929448
C   C73       1.0  0.01621  0.04767  0.53414  1.0000 0.1116983995
C   C74       1.0  0.04767  0.53414  0.01621  1.0000 0.1116983995
C   C75       1.0  0.53414  0.01621  0.04767  1.0000 0.1116983995
C   C76       1.0  0.48379  0.96586  0.45233  1.0000 0.1116983995
C   C77       1.0  0.45233  0.48379  0.96586  1.0000 0.1116983995
C   C78       1.0  0.96586  0.45233  0.48379  1.0000 0.1116983995
C   C79       1.0  0.98379  0.95233  0.46586  1.0000 0.1116983995
C   C80       1.0  0.95233  0.46586  0.98379  1.0000 0.1116983995
C   C81       1.0  0.46586  0.98379  0.95233  1.0000 0.1116983995
C   C82       1.0  0.51621  0.03414  0.54767  1.0000 0.1116983995
C   C83       1.0  0.54767  0.51621  0.03414  1.0000 0.1116983995
C   C84       1.0  0.03414  0.54767  0.51621  1.0000 0.1116983995
C   C85       1.0  0.09417  0.20263  0.01822  1.0000 0.0733831593
C   C86       1.0  0.20263  0.01822  0.09417  1.0000 0.0733831593
C   C87       1.0  0.01822  0.09417  0.20263  1.0000 0.0733831593
C   C88       1.0  0.40583  0.48178  0.29737  1.0000 0.0733831593
C   C89       1.0  0.29737  0.40583  0.48178  1.0000 0.0733831593
C   C90       1.0  0.48178  0.29737  0.40583  1.0000 0.0733831593
C   C91       1.0  0.90583  0.79737  0.98178  1.0000 0.0733831593
C   C92       1.0  0.79737  0.98178  0.90583  1.0000 0.0733831593
C   C93       1.0  0.98178  0.90583  0.79737  1.0000 0.0733831593
C   C94       1.0  0.59417  0.51822  0.70263  1.0000 0.0733831593
C   C95       1.0  0.70263  0.59417  0.51822  1.0000 0.0733831593
C   C96       1.0  0.51822  0.70263  0.59417  1.0000 0.0733831593
C   C97       1.0  0.00710  0.18371  0.96341  1.0000 -0.1531026071
C   C98       1.0  0.18371  0.96341  0.00710  1.0000 -0.1531026071
C   C99       1.0  0.96341  0.00710  0.18371  1.0000 -0.1531026071
C   C100      1.0  0.49290  0.53659  0.31629  1.0000 -0.1531026071
C   C101      1.0  0.31629  0.49290  0.53659  1.0000 -0.1531026071
C   C102      1.0  0.53659  0.31629  0.49290  1.0000 -0.1531026071
C   C103      1.0  0.99290  0.81629  0.03659  1.0000 -0.1531026071
C   C104      1.0  0.81629  0.03659  0.99290  1.0000 -0.1531026071
C   C105      1.0  0.03659  0.99290  0.81629  1.0000 -0.1531026071
C   C106      1.0  0.50710  0.46341  0.68371  1.0000 -0.1531026071
C   C107      1.0  0.68371  0.50710  0.46341  1.0000 -0.1531026071
C   C108      1.0  0.46341  0.68371  0.50710  1.0000 -0.1531026071
C   C109      1.0  0.15215  0.28873  0.95994  1.0000 -0.1081521126
C   C110      1.0  0.28873  0.95994  0.15215  1.0000 -0.1081521126
C   C111      1.0  0.95994  0.15215  0.28873  1.0000 -0.1081521126
C   C112      1.0  0.34785  0.54006  0.21127  1.0000 -0.1081521126
C   C113      1.0  0.21127  0.34785  0.54006  1.0000 -0.1081521126
C   C114      1.0  0.54006  0.21127  0.34785  1.0000 -0.1081521126
C   C115      1.0  0.84785  0.71127  0.04006  1.0000 -0.1081521126
C   C116      1.0  0.71127  0.04006  0.84785  1.0000 -0.1081521126
C   C117      1.0  0.04006  0.84785  0.71127  1.0000 -0.1081521126
C   C118      1.0  0.65215  0.45994  0.78873  1.0000 -0.1081521126
C   C119      1.0  0.78873  0.65215  0.45994  1.0000 -0.1081521126
C   C120      1.0  0.45994  0.78873  0.65215  1.0000 -0.1081521126
C   C121      1.0  0.08291  0.50201  0.77000  1.0000 -0.0318011663
C   C122      1.0  0.50201  0.77000  0.08291  1.0000 -0.0318011663
C   C123      1.0  0.77000  0.08291  0.50201  1.0000 -0.0318011663
C   C124      1.0  0.41709  0.73000  0.99799  1.0000 -0.0318011663
C   C125      1.0  0.99799  0.41709  0.73000  1.0000 -0.0318011663
C   C126      1.0  0.73000  0.99799  0.41709  1.0000 -0.0318011663
C   C127      1.0  0.91709  0.49799  0.23000  1.0000 -0.0318011663
C   C128      1.0  0.49799  0.23000  0.91709  1.0000 -0.0318011663
C   C129      1.0  0.23000  0.91709  0.49799  1.0000 -0.0318011663
C   C130      1.0  0.58291  0.27000  0.00201  1.0000 -0.0318011663
C   C131      1.0  0.00201  0.58291  0.27000  1.0000 -0.0318011663
C   C132      1.0  0.27000  0.00201  0.58291  1.0000 -0.0318011663
C   C133      1.0  0.07766  0.09396  0.62860  1.0000 -0.1959306629
C   C134      1.0  0.09396  0.62860  0.07766  1.0000 -0.1959306629
C   C135      1.0  0.62860  0.07766  0.09396  1.0000 -0.1959306629
C   C136      1.0  0.42234  0.87140  0.40604  1.0000 -0.1959306629
C   C137      1.0  0.40604  0.42234  0.87140  1.0000 -0.1959306629
C   C138      1.0  0.87140  0.40604  0.42234  1.0000 -0.1959306629
C   C139      1.0  0.92234  0.90604  0.37140  1.0000 -0.1959306629
C   C140      1.0  0.90604  0.37140  0.92234  1.0000 -0.1959306629
C   C141      1.0  0.37140  0.92234  0.90604  1.0000 -0.1959306629
C   C142      1.0  0.57766  0.12860  0.59396  1.0000 -0.1959306629
C   C143      1.0  0.59396  0.57766  0.12860  1.0000 -0.1959306629
C   C144      1.0  0.12860  0.59396  0.57766  1.0000 -0.1959306629
C   C145      1.0  0.10706  0.18381  0.69025  1.0000 0.0789929448
C   C146      1.0  0.18381  0.69025  0.10706  1.0000 0.0789929448
C   C147      1.0  0.69025  0.10706  0.18381  1.0000 0.0789929448
C   C148      1.0  0.39294  0.80975  0.31619  1.0000 0.0789929448
C   C149      1.0  0.31619  0.39294  0.80975  1.0000 0.0789929448
C   C150      1.0  0.80975  0.31619  0.39294  1.0000 0.0789929448
C   C151      1.0  0.89294  0.81619  0.30975  1.0000 0.0789929448
C   C152      1.0  0.81619  0.30975  0.89294  1.0000 0.0789929448
C   C153      1.0  0.30975  0.89294  0.81619  1.0000 0.0789929448
C   C154      1.0  0.60706  0.19025  0.68381  1.0000 0.0789929448
C   C155      1.0  0.68381  0.60706  0.19025  1.0000 0.0789929448
C   C156      1.0  0.19025  0.68381  0.60706  1.0000 0.0789929448
C   C157      1.0  0.02233  0.18591  0.57218  1.0000 0.0990491336
C   C158      1.0  0.18591  0.57218  0.02233  1.0000 0.0990491336
C   C159      1.0  0.57218  0.02233  0.18591  1.0000 0.0990491336
C   C160      1.0  0.47767  0.92782  0.31409  1.0000 0.0990491336
C   C161      1.0  0.31409  0.47767  0.92782  1.0000 0.0990491336
C   C162      1.0  0.92782  0.31409  0.47767  1.0000 0.0990491336
C   C163      1.0  0.97767  0.81409  0.42782  1.0000 0.0990491336
C   C164      1.0  0.81409  0.42782  0.97767  1.0000 0.0990491336
C   C165      1.0  0.42782  0.97767  0.81409  1.0000 0.0990491336
C   C166      1.0  0.52233  0.07218  0.68591  1.0000 0.0990491336
C   C167      1.0  0.68591  0.52233  0.07218  1.0000 0.0990491336
C   C168      1.0  0.07218  0.68591  0.52233  1.0000 0.0990491336
C   C169      1.0  0.98893  0.09572  0.50737  1.0000 -0.1889775358
C   C170      1.0  0.09572  0.50737  0.98893  1.0000 -0.1889775358
C   C171      1.0  0.50737  0.98893  0.09572  1.0000 -0.1889775358
C   C172      1.0  0.51107  0.99263  0.40428  1.0000 -0.1889775358
C   C173      1.0  0.40428  0.51107  0.99263  1.0000 -0.1889775358
C   C174      1.0  0.99263  0.40428  0.51107  1.0000 -0.1889775358
C   C175      1.0  0.01107  0.90428  0.49263  1.0000 -0.1889775358
C   C176      1.0  0.90428  0.49263  0.01107  1.0000 -0.1889775358
C   C177      1.0  0.49263  0.01107  0.90428  1.0000 -0.1889775358
C   C178      1.0  0.48893  0.00737  0.59572  1.0000 -0.1889775358
C   C179      1.0  0.59572  0.48893  0.00737  1.0000 -0.1889775358
C   C180      1.0  0.00737  0.59572  0.48893  1.0000 -0.1889775358
N   N1        1.0  0.07984  0.22974  0.66314  1.0000 -0.2109236971
N   N2        1.0  0.22974  0.66314  0.07984  1.0000 -0.2109236971
N   N3        1.0  0.66314  0.07984  0.22974  1.0000 -0.2109236971
N   N4        1.0  0.42016  0.83686  0.27026  1.0000 -0.2109236971
N   N5        1.0  0.27026  0.42016  0.83686  1.0000 -0.2109236971
N   N6        1.0  0.83686  0.27026  0.42016  1.0000 -0.2109236971
N   N7        1.0  0.92016  0.77026  0.33686  1.0000 -0.2109236971
N   N8        1.0  0.77026  0.33686  0.92016  1.0000 -0.2109236971
N   N9        1.0  0.33686  0.92016  0.77026  1.0000 -0.2109236971
N   N10       1.0  0.57984  0.16314  0.72974  1.0000 -0.2109236971
N   N11       1.0  0.72974  0.57984  0.16314  1.0000 -0.2109236971
N   N12       1.0  0.16314  0.72974  0.57984  1.0000 -0.2109236971
O   O1        1.0  0.11822  0.34918  0.84528  1.0000 -0.5622926012
O   O2        1.0  0.34918  0.84528  0.11822  1.0000 -0.5622926012
O   O3        1.0  0.84528  0.11822  0.34918  1.0000 -0.5622926012
O   O4        1.0  0.38178  0.65472  0.15082  1.0000 -0.5622926012
O   O5        1.0  0.15082  0.38178  0.65472  1.0000 -0.5622926012
O   O6        1.0  0.65472  0.15082  0.38178  1.0000 -0.5622926012
O   O7        1.0  0.88178  0.65082  0.15472  1.0000 -0.5622926012
O   O8        1.0  0.65082  0.15472  0.88178  1.0000 -0.5622926012
O   O9        1.0  0.15472  0.88178  0.65082  1.0000 -0.5622926012
O   O10       1.0  0.61822  0.34528  0.84918  1.0000 -0.5622926012
O   O11       1.0  0.84918  0.61822  0.34528  1.0000 -0.5622926012
O   O12       1.0  0.34528  0.84918  0.61822  1.0000 -0.5622926012
O   O13       1.0  0.16340  0.50378  0.81389  1.0000 -0.4460409339
O   O14       1.0  0.50378  0.81389  0.16340  1.0000 -0.4460409339
O   O15       1.0  0.81389  0.16340  0.50378  1.0000 -0.4460409339
O   O16       1.0  0.33660  0.68611  0.99622  1.0000 -0.4460409339
O   O17       1.0  0.99622  0.33660  0.68611  1.0000 -0.4460409339
O   O18       1.0  0.68611  0.99622  0.33660  1.0000 -0.4460409339
O   O19       1.0  0.83660  0.49622  0.18611  1.0000 -0.4460409339
O   O20       1.0  0.49622  0.18611  0.83660  1.0000 -0.4460409339
O   O21       1.0  0.18611  0.83660  0.49622  1.0000 -0.4460409339
O   O22       1.0  0.66340  0.31389  0.00378  1.0000 -0.4460409339
O   O23       1.0  0.00378  0.66340  0.31389  1.0000 -0.4460409339
O   O24       1.0  0.31389  0.00378  0.66340  1.0000 -0.4460409339
O   O25       1.0  0.96464  0.26014  0.77458  1.0000 -0.5476024008
O   O26       1.0  0.26014  0.77458  0.96464  1.0000 -0.5476024008
O   O27       1.0  0.77458  0.96464  0.26014  1.0000 -0.5476024008
O   O28       1.0  0.53536  0.72542  0.23986  1.0000 -0.5476024008
O   O29       1.0  0.23986  0.53536  0.72542  1.0000 -0.5476024008
O   O30       1.0  0.72542  0.23986  0.53536  1.0000 -0.5476024008
O   O31       1.0  0.03536  0.73986  0.22542  1.0000 -0.5476024008
O   O32       1.0  0.73986  0.22542  0.03536  1.0000 -0.5476024008
O   O33       1.0  0.22542  0.03536  0.73986  1.0000 -0.5476024008
O   O34       1.0  0.46464  0.27458  0.76014  1.0000 -0.5476024008
O   O35       1.0  0.76014  0.46464  0.27458  1.0000 -0.5476024008
O   O36       1.0  0.27458  0.76014  0.46464  1.0000 -0.5476024008
