# DDEC6 charges by PACMAN v1.1 (https://github.com/mtap-research/PACMAN-charge/)
data_2008[Co][nan]3[ASR]2
_chemical_formula_sum              "Co6 H6 C24 O18"
_cell_length_a       15.2674
_cell_length_b       15.2674
_cell_length_c       15.2674
_cell_angle_alpha    117.887
_cell_angle_beta     117.887
_cell_angle_gamma    117.887

_symmetry_space_group_name_H-M    "P 1"
_symmetry_Int_Tables_number       1

loop_
  _symmetry_equiv_pos_as_xyz
  'x, y, z'

loop_
  _atom_site_type_symbol
  _atom_site_label
  _atom_site_symmetry_multiplicity
  _atom_site_fract_x
  _atom_site_fract_y
  _atom_site_fract_z
  _atom_site_occupancy
  _atom_site_charge
Co  Co1       1.0  0.38029  0.96024  0.69582  1.0000 1.0116202889
Co  Co2       1.0  0.96024  0.69582  0.38029  1.0000 1.0116202889
Co  Co3       1.0  0.69582  0.38029  0.96024  1.0000 1.0116202889
Co  Co4       1.0  0.61971  0.03976  0.30418  1.0000 1.0116202889
Co  Co5       1.0  0.03976  0.30418  0.61971  1.0000 1.0116202889
Co  Co6       1.0  0.30418  0.61971  0.03976  1.0000 1.0116202889
H   H1        1.0  0.71530  0.14498  0.16409  1.0000 0.1549097357
H   H2        1.0  0.14498  0.16409  0.71530  1.0000 0.1549097357
H   H3        1.0  0.16409  0.71530  0.14498  1.0000 0.1549097357
H   H4        1.0  0.28470  0.85502  0.83591  1.0000 0.1549097357
H   H5        1.0  0.85502  0.83591  0.28470  1.0000 0.1549097357
H   H6        1.0  0.83591  0.28470  0.85502  1.0000 0.1549097357
C   C1        1.0  0.76496  0.33239  0.15952  1.0000 0.6260028142
C   C2        1.0  0.33239  0.15952  0.76496  1.0000 0.6260028142
C   C3        1.0  0.15952  0.76496  0.33239  1.0000 0.6260028142
C   C4        1.0  0.23504  0.66761  0.84048  1.0000 0.6260028142
C   C5        1.0  0.66761  0.84048  0.23504  1.0000 0.6260028142
C   C6        1.0  0.84048  0.23504  0.66761  1.0000 0.6260028142
C   C7        1.0  0.87765  0.41662  0.32998  1.0000 -0.1912610721
C   C8        1.0  0.41662  0.32998  0.87765  1.0000 -0.1912610721
C   C9        1.0  0.32998  0.87765  0.41662  1.0000 -0.1912610721
C   C10       1.0  0.12235  0.58338  0.67002  1.0000 -0.1912610721
C   C11       1.0  0.58338  0.67002  0.12235  1.0000 -0.1912610721
C   C12       1.0  0.67002  0.12235  0.58338  1.0000 -0.1912610721
C   C13       1.0  0.06499  0.63313  0.53369  1.0000 0.3173700033
C   C14       1.0  0.63313  0.53369  0.06499  1.0000 0.3173700033
C   C15       1.0  0.53369  0.06499  0.63313  1.0000 0.3173700033
C   C16       1.0  0.93501  0.36687  0.46631  1.0000 0.3173700033
C   C17       1.0  0.36687  0.46631  0.93501  1.0000 0.3173700033
C   C18       1.0  0.46631  0.93501  0.36687  1.0000 0.3173700033
C   C19       1.0  0.83091  0.28866  0.30125  1.0000 -0.1972990053
C   C20       1.0  0.28866  0.30125  0.83091  1.0000 -0.1972990053
C   C21       1.0  0.30125  0.83091  0.28866  1.0000 -0.1972990053
C   C22       1.0  0.16909  0.71134  0.69875  1.0000 -0.1972990053
C   C23       1.0  0.71134  0.69875  0.16909  1.0000 -0.1972990053
C   C24       1.0  0.69875  0.16909  0.71134  1.0000 -0.1972990053
O   O1        1.0  0.62998  0.15001  0.98929  1.0000 -0.5054730715
O   O2        1.0  0.15001  0.98929  0.62998  1.0000 -0.5048549117
O   O3        1.0  0.98929  0.62998  0.15001  1.0000 -0.5048549117
O   O4        1.0  0.37002  0.84999  0.01071  1.0000 -0.5054730715
O   O5        1.0  0.84999  0.01071  0.37002  1.0000 -0.5054730715
O   O6        1.0  0.01071  0.37002  0.84999  1.0000 -0.5054730715
O   O7        1.0  0.83131  0.45224  0.19079  1.0000 -0.5769223314
O   O8        1.0  0.45224  0.19079  0.83131  1.0000 -0.5769223314
O   O9        1.0  0.19079  0.83131  0.45224  1.0000 -0.5769223314
O   O10       1.0  0.16869  0.54776  0.80921  1.0000 -0.5769223314
O   O11       1.0  0.54776  0.80921  0.16869  1.0000 -0.5769223314
O   O12       1.0  0.80921  0.16869  0.54776  1.0000 -0.5769223314
O   O13       1.0  0.12837  0.76273  0.56670  1.0000 -0.6391534152
O   O14       1.0  0.76273  0.56670  0.12837  1.0000 -0.6391534152
O   O15       1.0  0.56670  0.12837  0.76273  1.0000 -0.6391534152
O   O16       1.0  0.87163  0.23727  0.43330  1.0000 -0.6391534152
O   O17       1.0  0.23727  0.43330  0.87163  1.0000 -0.6391534152
O   O18       1.0  0.43330  0.87163  0.23727  1.0000 -0.6391534152
