# DDEC6 charges by PACMAN v1.1 (https://github.com/mtap-research/PACMAN-charge/)
data_2008[Zn][nan]3[ASR]7
_chemical_formula_sum              "Zn4 H40 C62 N8 O18"
_cell_length_a       11.771
_cell_length_b       4.789
_cell_length_c       26.329
_cell_angle_alpha    90
_cell_angle_beta     96.822
_cell_angle_gamma    90

_symmetry_space_group_name_H-M    "P 1"
_symmetry_Int_Tables_number       1

loop_
  _symmetry_equiv_pos_as_xyz
  'x, y, z'

loop_
  _atom_site_type_symbol
  _atom_site_label
  _atom_site_symmetry_multiplicity
  _atom_site_fract_x
  _atom_site_fract_y
  _atom_site_fract_z
  _atom_site_occupancy
  _atom_site_charge
Zn  Zn1       1.0  0.09541  0.29553  0.55064  1.0000 0.8748423505
Zn  Zn2       1.0  0.90459  0.79553  0.44936  1.0000 0.8748423505
Zn  Zn3       1.0  0.82415  0.27738  0.97052  1.0000 0.8881794858
Zn  Zn4       1.0  0.17585  0.77738  0.02948  1.0000 0.8881794858
H   H1        1.0  0.25670  0.78980  0.42050  1.0000 0.1286333485
H   H2        1.0  0.74330  0.28980  0.57950  1.0000 0.1286333485
H   H3        1.0  0.28710  0.90020  0.33750  1.0000 0.1106073448
H   H4        1.0  0.71290  0.40020  0.66250  1.0000 0.1106073448
H   H5        1.0  0.04230  0.36110  0.28340  1.0000 0.1106073448
H   H6        1.0  0.95770  0.86110  0.71660  1.0000 0.1106073448
H   H7        1.0  0.95810  0.77120  0.23210  1.0000 0.1221682978
H   H8        1.0  0.04190  0.27120  0.76790  1.0000 0.1221682978
H   H9        1.0  0.83380  0.63040  0.16370  1.0000 0.1106073448
H   H10       1.0  0.16620  0.13040  0.83630  1.0000 0.1106073448
H   H11       1.0  0.21820  0.46540  0.16370  1.0000 0.1221682978
H   H12       1.0  0.78180  0.96540  0.83630  1.0000 0.1221682978
H   H13       1.0  0.23950  0.33190  0.65670  1.0000 0.1221682978
H   H14       1.0  0.76050  0.83190  0.34330  1.0000 0.1221682978
H   H15       1.0  0.29020  0.81860  0.54650  1.0000 0.1361051995
H   H16       1.0  0.70980  0.31860  0.45350  1.0000 0.1361051995
H   H17       1.0  0.44970  0.76420  0.61380  1.0000 0.1286333485
H   H18       1.0  0.55030  0.26420  0.38620  1.0000 0.1286333485
H   H19       1.0  0.52340  0.12040  0.69400  1.0000 0.1286333485
H   H20       1.0  0.47660  0.62040  0.30600  1.0000 0.1286333485
H   H21       1.0  0.42680  0.30190  0.71360  1.0000 0.1221682978
H   H22       1.0  0.57320  0.80190  0.28640  1.0000 0.1221682978
H   H23       1.0  0.25800  0.88820  0.73430  1.0000 0.1286333485
H   H24       1.0  0.74200  0.38820  0.26570  1.0000 0.1286333485
H   H25       1.0  0.24210  0.59070  0.80120  1.0000 0.1221682978
H   H26       1.0  0.75790  0.09070  0.19880  1.0000 0.1221682978
H   H27       1.0  0.58210  0.53830  0.82770  1.0000 0.1221682978
H   H28       1.0  0.41790  0.03830  0.17230  1.0000 0.1221682978
H   H29       1.0  0.59780  0.84060  0.76050  1.0000 0.1221682978
H   H30       1.0  0.40220  0.34060  0.23950  1.0000 0.1221682978
H   H31       1.0  0.40160  0.14410  0.85370  1.0000 0.1286333485
H   H32       1.0  0.59840  0.64410  0.14630  1.0000 0.1286333485
H   H33       1.0  0.32470  0.36290  0.87790  1.0000 0.1361051995
H   H34       1.0  0.67530  0.86290  0.12210  1.0000 0.1361051995
H   H35       1.0  0.60950  0.08730  0.89700  1.0000 0.1106073448
H   H36       1.0  0.39050  0.58730  0.10300  1.0000 0.1106073448
H   H37       1.0  0.62030  0.69020  0.99840  1.0000 0.1286333485
H   H38       1.0  0.37970  0.19020  0.00160  1.0000 0.1286333485
H   H39       1.0  0.43320  0.71330  0.94720  1.0000 0.1286333485
H   H40       1.0  0.56680  0.21330  0.05280  1.0000 0.1286333485
C   C1        1.0  0.11630  0.44500  0.45674  1.0000 0.5755333352
C   C2        1.0  0.88370  0.94500  0.54326  1.0000 0.5755333352
C   C3        1.0  0.13110  0.50590  0.40192  1.0000 -0.0207222408
C   C4        1.0  0.86890  0.00590  0.59808  1.0000 -0.0207222408
C   C5        1.0  0.21350  0.70320  0.39305  1.0000 -0.1200040717
C   C6        1.0  0.78650  0.20320  0.60695  1.0000 -0.1200040717
C   C7        1.0  0.23110  0.77080  0.34332  1.0000 -0.1027215373
C   C8        1.0  0.76890  0.27080  0.65668  1.0000 -0.1027215373
C   C9        1.0  0.16530  0.64540  0.30199  1.0000 -0.0113553624
C   C10       1.0  0.83470  0.14540  0.69801  1.0000 -0.0113553624
C   C11       1.0  0.08500  0.44770  0.31101  1.0000 -0.1200040717
C   C12       1.0  0.91500  0.94770  0.68899  1.0000 -0.1200040717
C   C13       1.0  0.06630  0.37440  0.36086  1.0000 -0.0561941069
C   C14       1.0  0.93370  0.87440  0.63914  1.0000 -0.0561941069
C   C15       1.0  0.97900  0.15730  0.36766  1.0000 0.5668056059
C   C16       1.0  0.02100  0.65730  0.63234  1.0000 0.5668056059
C   C17       1.0  0.18840  0.71450  0.24894  1.0000 0.346447562
C   C18       1.0  0.81160  0.21450  0.75106  1.0000 0.346447562
C   C19       1.0  0.10200  0.62980  0.20527  1.0000 0.005697265
C   C20       1.0  0.89800  0.12980  0.79473  1.0000 0.005697265
C   C21       1.0  0.98540  0.68090  0.20476  1.0000 -0.1306942877
C   C22       1.0  0.01460  0.18090  0.79524  1.0000 -0.1306942877
C   C23       1.0  0.91160  0.59680  0.16358  1.0000 -0.1101436716
C   C24       1.0  0.08840  0.09680  0.83642  1.0000 -0.1101436716
C   C25       1.0  0.94800  0.46400  0.12182  1.0000 -0.0260052726
C   C26       1.0  0.05200  0.96400  0.87818  1.0000 -0.0260052726
C   C27       1.0  0.06570  0.41010  0.12245  1.0000 -0.0260052726
C   C28       1.0  0.93430  0.91010  0.87755  1.0000 -0.0260052726
C   C29       1.0  0.14020  0.49680  0.16372  1.0000 -0.1306942877
C   C30       1.0  0.85980  0.99680  0.83628  1.0000 -0.1306942877
C   C31       1.0  0.11390  0.25470  0.08033  1.0000 0.6080422449
C   C32       1.0  0.88610  0.75470  0.91967  1.0000 0.6080422449
C   C33       1.0  0.86360  0.38690  0.07667  1.0000 0.56380332
C   C34       1.0  0.13640  0.88690  0.92333  1.0000 0.56380332
C   C35       1.0  0.27230  0.19830  0.63738  1.0000 0.0962377164
C   C36       1.0  0.72770  0.69830  0.36262  1.0000 0.0962377164
C   C37       1.0  0.29980  0.91650  0.57720  1.0000 -0.0207222408
C   C38       1.0  0.70020  0.41650  0.42280  1.0000 -0.0207222408
C   C39       1.0  0.38850  0.88650  0.61420  1.0000 -0.1101436716
C   C40       1.0  0.61150  0.38650  0.38580  1.0000 -0.1101436716
C   C41       1.0  0.44410  0.11910  0.70059  1.0000 -0.1694742393
C   C42       1.0  0.55590  0.61910  0.29941  1.0000 -0.1694742393
C   C43       1.0  0.42970  0.90400  0.74101  1.0000 0.0888331096
C   C44       1.0  0.57030  0.40400  0.25899  1.0000 0.0888331096
C   C45       1.0  0.32390  0.82100  0.75337  1.0000 -0.1500206293
C   C46       1.0  0.67610  0.32100  0.24663  1.0000 -0.1500206293
C   C47       1.0  0.31430  0.64100  0.79333  1.0000 -0.1500206293
C   C48       1.0  0.68570  0.14100  0.20667  1.0000 -0.1500206293
C   C49       1.0  0.41060  0.53370  0.82195  1.0000 0.0888331096
C   C50       1.0  0.58940  0.03370  0.17805  1.0000 0.0888331096
C   C51       1.0  0.51630  0.60980  0.80919  1.0000 -0.1500206293
C   C52       1.0  0.48370  0.10980  0.19081  1.0000 -0.1500206293
C   C53       1.0  0.52570  0.79270  0.76885  1.0000 -0.1449888301
C   C54       1.0  0.47430  0.29270  0.23115  1.0000 -0.1449888301
C   C55       1.0  0.39860  0.33480  0.86582  1.0000 -0.1616814237
C   C56       1.0  0.60140  0.83480  0.13418  1.0000 -0.1616814237
C   C57       1.0  0.58980  0.24000  0.91589  1.0000 0.0835874688
C   C58       1.0  0.41020  0.74000  0.08411  1.0000 0.0835874688
C   C59       1.0  0.59470  0.57180  0.97148  1.0000 -0.0415200264
C   C60       1.0  0.40530  0.07180  0.02852  1.0000 -0.0415200264
C   C61       1.0  0.49120  0.58590  0.94336  1.0000 -0.1027215373
C   C62       1.0  0.50880  0.08590  0.05664  1.0000 -0.1027215373
N   N1        1.0  0.22610  0.11300  0.59188  1.0000 -0.3062861514
N   N2        1.0  0.77390  0.61300  0.40812  1.0000 -0.3062861514
N   N3        1.0  0.37130  0.07080  0.65241  1.0000 0.0412788849
N   N4        1.0  0.62870  0.57080  0.34759  1.0000 0.0412788849
N   N5        1.0  0.48860  0.37670  0.90814  1.0000 0.0500831615
N   N6        1.0  0.51140  0.87670  0.09186  1.0000 0.0500831615
N   N7        1.0  0.65640  0.35420  0.95407  1.0000 -0.300508837
N   N8        1.0  0.34360  0.85420  0.04593  1.0000 -0.300508837
O   O1        1.0  0.18690  0.30490  0.48452  1.0000 -0.4968330812
O   O2        1.0  0.81310  0.80490  0.51548  1.0000 -0.4968330812
O   O3        1.0  0.03540  0.55670  0.47638  1.0000 -0.5102760148
O   O4        1.0  0.96460  0.05670  0.52362  1.0000 -0.5102760148
O   O5        1.0  0.97480  0.08460  0.41411  1.0000 -0.5603522014
O   O6        1.0  0.02520  0.58460  0.58589  1.0000 -0.5603522014
O   O7        1.0  0.91750  0.06400  0.33056  1.0000 -0.5525210153
O   O8        1.0  0.08250  0.56400  0.66944  1.0000 -0.5525210153
O   O9        1.0  0.27670  0.83000  0.24151  1.0000 -0.4167777252
O   O10       1.0  0.72330  0.33000  0.75849  1.0000 -0.4167777252
O   O11       1.0  0.10400  0.99190  0.08094  1.0000 -0.5180848192
O   O12       1.0  0.89600  0.49190  0.91906  1.0000 -0.5180848192
O   O13       1.0  0.17000  0.38070  0.04997  1.0000 -0.5603522014
O   O14       1.0  0.83000  0.88070  0.95003  1.0000 -0.5603522014
O   O15       1.0  0.76140  0.38160  0.08066  1.0000 -0.5525210153
O   O16       1.0  0.23860  0.88160  0.91934  1.0000 -0.5525210153
O   O17       1.0  0.90840  0.33880  0.03598  1.0000 -0.5180848192
O   O18       1.0  0.09160  0.83880  0.96402  1.0000 -0.5180848192
