# DDEC6 charges by PACMAN v1.1 (https://github.com/mtap-research/PACMAN-charge/)
data_2008[Cu][mab]3[ASR]1
_chemical_formula_sum              "Cu4 H64 C52 N8 O16"
_cell_length_a       8.713
_cell_length_b       13.568
_cell_length_c       13.054
_cell_angle_alpha    90
_cell_angle_beta     90.184
_cell_angle_gamma    90

_symmetry_space_group_name_H-M    "P 1"
_symmetry_Int_Tables_number       1

loop_
  _symmetry_equiv_pos_as_xyz
  'x, y, z'

loop_
  _atom_site_type_symbol
  _atom_site_label
  _atom_site_symmetry_multiplicity
  _atom_site_fract_x
  _atom_site_fract_y
  _atom_site_fract_z
  _atom_site_occupancy
  _atom_site_charge
Cu  Cu1       1.0  0.95483  0.95983  0.41238  1.0000 0.7524287818
Cu  Cu2       1.0  0.54517  0.45983  0.58762  1.0000 0.7524287818
Cu  Cu3       1.0  0.04517  0.04017  0.58762  1.0000 0.7524287818
Cu  Cu4       1.0  0.45483  0.54017  0.41238  1.0000 0.7524287818
H   H1        1.0  0.78570  0.77210  0.37810  1.0000 0.1183907941
H   H2        1.0  0.71430  0.27210  0.62190  1.0000 0.1183907941
H   H3        1.0  0.21430  0.22790  0.62190  1.0000 0.1183907941
H   H4        1.0  0.28570  0.72790  0.37810  1.0000 0.1183907941
H   H5        1.0  0.73710  0.65020  0.26200  1.0000 0.1429086693
H   H6        1.0  0.76290  0.15020  0.73800  1.0000 0.1429086693
H   H7        1.0  0.26290  0.34980  0.73800  1.0000 0.1429086693
H   H8        1.0  0.23710  0.84980  0.26200  1.0000 0.1429086693
H   H9        1.0  0.91400  0.82290  0.04370  1.0000 0.1329563154
H   H10       1.0  0.58600  0.32290  0.95630  1.0000 0.1329563154
H   H11       1.0  0.08600  0.17710  0.95630  1.0000 0.1329563154
H   H12       1.0  0.41400  0.67710  0.04370  1.0000 0.1329563154
H   H13       1.0  0.95980  0.93980  0.16630  1.0000 0.0999592591
H   H14       1.0  0.54020  0.43980  0.83370  1.0000 0.0999592591
H   H15       1.0  0.04020  0.06020  0.83370  1.0000 0.0999592591
H   H16       1.0  0.45980  0.56020  0.16630  1.0000 0.0999592591
H   H17       1.0  0.71670  0.59420  0.09130  1.0000 0.0999592591
H   H18       1.0  0.78330  0.09420  0.90870  1.0000 0.0999592591
H   H19       1.0  0.28330  0.40580  0.90870  1.0000 0.0999592591
H   H20       1.0  0.21670  0.90580  0.09130  1.0000 0.0999592591
H   H21       1.0  0.72700  0.67280  0.00370  1.0000 0.1183907941
H   H22       1.0  0.77300  0.17280  0.99630  1.0000 0.1183907941
H   H23       1.0  0.27300  0.32720  0.99630  1.0000 0.1183907941
H   H24       1.0  0.22700  0.82720  0.00370  1.0000 0.1183907941
H   H25       1.0  0.81300  0.55290  0.88730  1.0000 0.1116247667
H   H26       1.0  0.68700  0.05290  0.11270  1.0000 0.1116247667
H   H27       1.0  0.18700  0.44710  0.11270  1.0000 0.1116247667
H   H28       1.0  0.31300  0.94710  0.88730  1.0000 0.1116247667
H   H29       1.0  0.79340  0.47490  0.97510  1.0000 0.0891822172
H   H30       1.0  0.70660  0.97490  0.02490  1.0000 0.0891822172
H   H31       1.0  0.20660  0.52510  0.02490  1.0000 0.0891822172
H   H32       1.0  0.29340  0.02510  0.97510  1.0000 0.0891822172
H   H33       1.0  0.93230  0.49550  0.13520  1.0000 0.0999592591
H   H34       1.0  0.56770  0.99550  0.86480  1.0000 0.0999592591
H   H35       1.0  0.06770  0.50450  0.86480  1.0000 0.0999592591
H   H36       1.0  0.43230  0.00450  0.13520  1.0000 0.0999592591
H   H37       1.0  0.04140  0.58650  0.14990  1.0000 0.1116247667
H   H38       1.0  0.45860  0.08650  0.85010  1.0000 0.1116247667
H   H39       1.0  0.95860  0.41350  0.85010  1.0000 0.1116247667
H   H40       1.0  0.54140  0.91350  0.14990  1.0000 0.1116247667
H   H41       1.0  0.40970  0.05370  0.30340  1.0000 0.1183907941
H   H42       1.0  0.09030  0.55370  0.69660  1.0000 0.1183907941
H   H43       1.0  0.59030  0.94630  0.69660  1.0000 0.1183907941
H   H44       1.0  0.90970  0.44630  0.30340  1.0000 0.1183907941
H   H45       1.0  0.49050  0.00150  0.39620  1.0000 0.1429086693
H   H46       1.0  0.00950  0.50150  0.60380  1.0000 0.1429086693
H   H47       1.0  0.50950  0.99850  0.60380  1.0000 0.1429086693
H   H48       1.0  0.99050  0.49850  0.39620  1.0000 0.1429086693
H   H49       1.0  0.57900  0.16360  0.38250  1.0000 0.0999592591
H   H50       1.0  0.92100  0.66360  0.61750  1.0000 0.0999592591
H   H51       1.0  0.42100  0.83640  0.61750  1.0000 0.0999592591
H   H52       1.0  0.07900  0.33640  0.38250  1.0000 0.0999592591
H   H53       1.0  0.49440  0.14990  0.48750  1.0000 0.0999592591
H   H54       1.0  0.00560  0.64990  0.51250  1.0000 0.0999592591
H   H55       1.0  0.50560  0.85010  0.51250  1.0000 0.0999592591
H   H56       1.0  0.99440  0.35010  0.48750  1.0000 0.0999592591
H   H57       1.0  0.36030  0.23800  0.31200  1.0000 0.1329563154
H   H58       1.0  0.13970  0.73800  0.68800  1.0000 0.1329563154
H   H59       1.0  0.63970  0.76200  0.68800  1.0000 0.1329563154
H   H60       1.0  0.86030  0.26200  0.31200  1.0000 0.1329563154
H   H61       1.0  0.26980  0.22000  0.41370  1.0000 0.1429086693
H   H62       1.0  0.23020  0.72000  0.58630  1.0000 0.1429086693
H   H63       1.0  0.73020  0.78000  0.58630  1.0000 0.1429086693
H   H64       1.0  0.76980  0.28000  0.41370  1.0000 0.1429086693
C   C1        1.0  0.81300  0.78230  0.31000  1.0000 0.0999592591
C   C2        1.0  0.68700  0.28230  0.69000  1.0000 0.0999592591
C   C3        1.0  0.18700  0.21770  0.69000  1.0000 0.0999592591
C   C4        1.0  0.31300  0.71770  0.31000  1.0000 0.0999592591
C   C5        1.0  0.78270  0.70860  0.24050  1.0000 -0.2141530844
C   C6        1.0  0.71730  0.20860  0.75950  1.0000 -0.2141530844
C   C7        1.0  0.21730  0.29140  0.75950  1.0000 -0.2141530844
C   C8        1.0  0.28270  0.79140  0.24050  1.0000 -0.2141530844
C   C9        1.0  0.82020  0.72167  0.13820  1.0000 0.1482869765
C   C10       1.0  0.67980  0.22167  0.86180  1.0000 0.1482869765
C   C11       1.0  0.17980  0.27833  0.86180  1.0000 0.1482869765
C   C12       1.0  0.32020  0.77833  0.13820  1.0000 0.1482869765
C   C13       1.0  0.88750  0.81059  0.11140  1.0000 -0.2301301392
C   C14       1.0  0.61250  0.31059  0.88860  1.0000 -0.2301301392
C   C15       1.0  0.11250  0.18941  0.88860  1.0000 -0.2301301392
C   C16       1.0  0.38750  0.68941  0.11140  1.0000 -0.2301301392
C   C17       1.0  0.91480  0.88061  0.18580  1.0000 0.0568775205
C   C18       1.0  0.58520  0.38061  0.81420  1.0000 0.0568775205
C   C19       1.0  0.08520  0.11939  0.81420  1.0000 0.0568775205
C   C20       1.0  0.41480  0.61939  0.18580  1.0000 0.0568775205
C   C21       1.0  0.78320  0.64290  0.06000  1.0000 -0.2028816449
C   C22       1.0  0.71680  0.14290  0.94000  1.0000 -0.2028816449
C   C23       1.0  0.21680  0.35710  0.94000  1.0000 -0.2028816449
C   C24       1.0  0.28320  0.85710  0.06000  1.0000 -0.2028816449
C   C25       1.0  0.86580  0.51920  0.94270  1.0000 -0.1413205932
C   C26       1.0  0.63420  0.01920  0.05730  1.0000 -0.1413205932
C   C27       1.0  0.13420  0.48080  0.05730  1.0000 -0.1413205932
C   C28       1.0  0.36580  0.98080  0.94270  1.0000 -0.1413205932
C   C29       1.0  0.00260  0.53950  0.10028  1.0000 -0.1310590687
C   C30       1.0  0.49740  0.03950  0.89972  1.0000 -0.1310590687
C   C31       1.0  0.99740  0.46050  0.89972  1.0000 -0.1310590687
C   C32       1.0  0.50260  0.96050  0.10028  1.0000 -0.1310590687
C   C33       1.0  0.26280  0.02817  0.42260  1.0000 0.6189010484
C   C34       1.0  0.23720  0.52817  0.57740  1.0000 0.6189010484
C   C35       1.0  0.73720  0.97183  0.57740  1.0000 0.6189010484
C   C36       1.0  0.76280  0.47183  0.42260  1.0000 0.6189010484
C   C37       1.0  0.41810  0.05281  0.37760  1.0000 -0.3362885001
C   C38       1.0  0.08190  0.55281  0.62240  1.0000 -0.3362885001
C   C39       1.0  0.58190  0.94719  0.62240  1.0000 -0.3362885001
C   C40       1.0  0.91810  0.44719  0.37760  1.0000 -0.3362885001
C   C41       1.0  0.48000  0.15162  0.41380  1.0000 -0.0927332955
C   C42       1.0  0.02000  0.65162  0.58620  1.0000 -0.0955088841
C   C43       1.0  0.52000  0.84838  0.58620  1.0000 -0.0955088841
C   C44       1.0  0.98000  0.34838  0.41380  1.0000 -0.0955088841
C   C45       1.0  0.37020  0.23520  0.38600  1.0000 -0.3362885001
C   C46       1.0  0.12980  0.73520  0.61400  1.0000 -0.3362885001
C   C47       1.0  0.62980  0.76480  0.61400  1.0000 -0.3362885001
C   C48       1.0  0.87020  0.26480  0.38600  1.0000 -0.3362885001
C   C49       1.0  0.41860  0.33539  0.42430  1.0000 0.6189010484
C   C50       1.0  0.08140  0.83539  0.57570  1.0000 0.6189010484
C   C51       1.0  0.58140  0.66461  0.57570  1.0000 0.6189010484
C   C52       1.0  0.91860  0.16461  0.42430  1.0000 0.6189010484
N   N1        1.0  0.87970  0.86774  0.28494  1.0000 -0.2526325169
N   N2        1.0  0.62030  0.36774  0.71506  1.0000 -0.2526325169
N   N3        1.0  0.12030  0.13226  0.71506  1.0000 -0.2526325169
N   N4        1.0  0.37970  0.63226  0.28494  1.0000 -0.2526325169
N   N5        1.0  0.91990  0.59237  0.01846  1.0000 -0.0927332955
N   N6        1.0  0.58010  0.09237  0.98154  1.0000 -0.0927332955
N   N7        1.0  0.08010  0.40763  0.98154  1.0000 -0.0927332955
N   N8        1.0  0.41990  0.90763  0.01846  1.0000 -0.0927332955
O   O1        1.0  0.16430  0.98947  0.36451  1.0000 -0.5381011697
O   O2        1.0  0.33570  0.48947  0.63549  1.0000 -0.5381011697
O   O3        1.0  0.83570  0.01053  0.63549  1.0000 -0.5381011697
O   O4        1.0  0.66430  0.51053  0.36451  1.0000 -0.5381011697
O   O5        1.0  0.24210  0.04939  0.51502  1.0000 -0.5228774877
O   O6        1.0  0.25790  0.54939  0.48498  1.0000 -0.5228774877
O   O7        1.0  0.75790  0.95061  0.48498  1.0000 -0.5228774877
O   O8        1.0  0.74210  0.45061  0.51502  1.0000 -0.5228774877
O   O9        1.0  0.40000  0.40791  0.36478  1.0000 -0.5260115447
O   O10       1.0  0.10000  0.90791  0.63522  1.0000 -0.5260115447
O   O11       1.0  0.60000  0.59209  0.63522  1.0000 -0.5260115447
O   O12       1.0  0.90000  0.09209  0.36478  1.0000 -0.5260115447
O   O13       1.0  0.47160  0.34126  0.51367  1.0000 -0.5381011697
O   O14       1.0  0.02840  0.84126  0.48633  1.0000 -0.5381011697
O   O15       1.0  0.52840  0.65874  0.48633  1.0000 -0.5381011697
O   O16       1.0  0.97160  0.15874  0.51367  1.0000 -0.5381011697
