# DDEC6 charges by PACMAN v1.1 (https://github.com/mtap-research/PACMAN-charge/)
data_2008[Zn][nan]3[ASR]15
_chemical_formula_sum              "Zn6 H6 C24 O18"
_cell_length_a       15.3228
_cell_length_b       15.3228
_cell_length_c       15.3228
_cell_angle_alpha    117.932
_cell_angle_beta     117.932
_cell_angle_gamma    117.932

_symmetry_space_group_name_H-M    "P 1"
_symmetry_Int_Tables_number       1

loop_
  _symmetry_equiv_pos_as_xyz
  'x, y, z'

loop_
  _atom_site_type_symbol
  _atom_site_label
  _atom_site_symmetry_multiplicity
  _atom_site_fract_x
  _atom_site_fract_y
  _atom_site_fract_z
  _atom_site_occupancy
  _atom_site_charge
Zn  Zn1       1.0  0.61662  0.30562  0.04296  1.0000 0.9810850278
Zn  Zn2       1.0  0.30562  0.04296  0.61662  1.0000 0.9810850278
Zn  Zn3       1.0  0.04296  0.61662  0.30562  1.0000 0.9810850278
Zn  Zn4       1.0  0.38338  0.69438  0.95704  1.0000 0.9810850278
Zn  Zn5       1.0  0.69438  0.95704  0.38338  1.0000 0.9810850278
Zn  Zn6       1.0  0.95704  0.38338  0.69438  1.0000 0.9810850278
H   H1        1.0  0.31710  0.84790  0.86700  1.0000 0.1446437643
H   H2        1.0  0.84790  0.86700  0.31710  1.0000 0.1446437643
H   H3        1.0  0.86700  0.31710  0.84790  1.0000 0.1446437643
H   H4        1.0  0.68290  0.15210  0.13300  1.0000 0.1446437643
H   H5        1.0  0.15210  0.13300  0.68290  1.0000 0.1446437643
H   H6        1.0  0.13300  0.68290  0.15210  1.0000 0.1446437643
C   C1        1.0  0.24409  0.85785  0.68256  1.0000 0.6384161369
C   C2        1.0  0.85785  0.68256  0.24409  1.0000 0.6384161369
C   C3        1.0  0.68256  0.24409  0.85785  1.0000 0.6384161369
C   C4        1.0  0.75591  0.14215  0.31744  1.0000 0.6384161369
C   C5        1.0  0.14215  0.31744  0.75591  1.0000 0.6384161369
C   C6        1.0  0.31744  0.75591  0.14215  1.0000 0.6384161369
C   C7        1.0  0.11461  0.66827  0.58072  1.0000 -0.1331411843
C   C8        1.0  0.66827  0.58072  0.11461  1.0000 -0.1331411843
C   C9        1.0  0.58072  0.11461  0.66827  1.0000 -0.1331411843
C   C10       1.0  0.88539  0.33173  0.41928  1.0000 -0.1331411843
C   C11       1.0  0.33173  0.41928  0.88539  1.0000 -0.1331411843
C   C12       1.0  0.41928  0.88539  0.33173  1.0000 -0.1331411843
C   C13       1.0  0.17981  0.69910  0.70999  1.0000 -0.2100361481
C   C14       1.0  0.69910  0.70999  0.17981  1.0000 -0.2100361481
C   C15       1.0  0.70999  0.17981  0.69910  1.0000 -0.2100361481
C   C16       1.0  0.82019  0.30090  0.29001  1.0000 -0.2100361481
C   C17       1.0  0.30090  0.29001  0.82019  1.0000 -0.2100361481
C   C18       1.0  0.29001  0.82019  0.30090  1.0000 -0.2100361481
C   C19       1.0  0.92891  0.46121  0.36328  1.0000 0.2880584156
C   C20       1.0  0.46121  0.36328  0.92891  1.0000 0.2880584156
C   C21       1.0  0.36328  0.92891  0.46121  1.0000 0.2880584156
C   C22       1.0  0.07109  0.53879  0.63672  1.0000 0.2880584156
C   C23       1.0  0.53879  0.63672  0.07109  1.0000 0.2880584156
C   C24       1.0  0.63672  0.07109  0.53879  1.0000 0.2880584156
O   O1        1.0  0.39644  0.03009  0.87397  1.0000 -0.5201171383
O   O2        1.0  0.03009  0.87397  0.39644  1.0000 -0.5201171383
O   O3        1.0  0.87397  0.39644  0.03009  1.0000 -0.5201171383
O   O4        1.0  0.60356  0.96991  0.12603  1.0000 -0.5201171383
O   O5        1.0  0.96991  0.12603  0.60356  1.0000 -0.5201171383
O   O6        1.0  0.12603  0.60356  0.96991  1.0000 -0.5201171383
O   O7        1.0  0.19510  0.83876  0.57394  1.0000 -0.5708942458
O   O8        1.0  0.83876  0.57394  0.19510  1.0000 -0.5708942458
O   O9        1.0  0.57394  0.19510  0.83876  1.0000 -0.5708942458
O   O10       1.0  0.80490  0.16124  0.42606  1.0000 -0.5708942458
O   O11       1.0  0.16124  0.42606  0.80490  1.0000 -0.5708942458
O   O12       1.0  0.42606  0.80490  0.16124  1.0000 -0.5708942458
O   O13       1.0  0.85236  0.41219  0.22245  1.0000 -0.6180146282
O   O14       1.0  0.41219  0.22245  0.85236  1.0000 -0.6180146282
O   O15       1.0  0.22245  0.85236  0.41219  1.0000 -0.6180146282
O   O16       1.0  0.14764  0.58781  0.77755  1.0000 -0.6180146282
O   O17       1.0  0.58781  0.77755  0.14764  1.0000 -0.6180146282
O   O18       1.0  0.77755  0.14764  0.58781  1.0000 -0.6180146282
