# DDEC6 charges by PACMAN v1.1 (https://github.com/mtap-research/PACMAN-charge/)
data_2008[Gd][pcu]3[ASR]1
_chemical_formula_sum              "Gd2 H15 C24 N3 O12"
_cell_length_a       10.5226
_cell_length_b       11.2071
_cell_length_c       12.8682
_cell_angle_alpha    100.129
_cell_angle_beta     110.717
_cell_angle_gamma    100.768

_symmetry_space_group_name_H-M    "P 1"
_symmetry_Int_Tables_number       1

loop_
  _symmetry_equiv_pos_as_xyz
  'x, y, z'

loop_
  _atom_site_type_symbol
  _atom_site_label
  _atom_site_symmetry_multiplicity
  _atom_site_fract_x
  _atom_site_fract_y
  _atom_site_fract_z
  _atom_site_occupancy
  _atom_site_charge
Gd  Gd1       1.0  0.40153  0.44242  0.33867  1.0000 2.0190592796
Gd  Gd2       1.0  0.59846  0.56183  0.66177  1.0000 2.0251070053
H   H1        1.0  0.75171  0.94088  0.98442  1.0000 0.1178149373
H   H2        1.0  0.34769  0.14112  0.06722  1.0000 0.3201368466
H   H3        1.0  0.30458  0.00020  0.96012  1.0000 0.3027322978
H   H4        1.0  0.07320  0.86068  0.86915  1.0000 0.1111381646
H   H5        1.0  0.92775  0.13884  0.12893  1.0000 0.1111381646
H   H6        1.0  0.52500  0.92293  0.67506  1.0000 0.1178149373
H   H7        1.0  0.46231  0.16477  0.29195  1.0000 0.3095666061
H   H8        1.0  0.48030  0.01822  0.23349  1.0000 0.2901246637
H   H9        1.0  0.50398  0.85748  0.32732  1.0000 0.1178149373
H   H10       1.0  0.49585  0.14108  0.66976  1.0000 0.1111381646
H   H11       1.0  0.83118  0.39611  0.29333  1.0000 0.1111381646
H   H12       1.0  0.28704  0.63023  0.75835  1.0000 0.3201368466
H   H13       1.0  0.13893  0.65380  0.78533  1.0000 0.3095666061
H   H14       1.0  0.90751  0.58606  0.64337  1.0000 0.125603506
H   H15       1.0  0.08894  0.41304  0.35455  1.0000 0.1178149373
C   C1        1.0  0.19688  0.23539  0.16279  1.0000 0.5791432649
C   C2        1.0  0.80290  0.76391  0.83782  1.0000 0.5791432649
C   C3        1.0  0.09954  0.11268  0.08171  1.0000 -0.1500866175
C   C4        1.0  0.90236  0.88783  0.91835  1.0000 0.0119641448
C   C5        1.0  0.14231  0.03161  0.00862  1.0000 0.3095666061
C   C6        1.0  0.86044  0.96729  0.99150  1.0000 -0.1303982794
C   C7        1.0  0.04119  0.92171  0.92669  1.0000 -0.2183138837
C   C8        1.0  0.95845  0.07651  0.07117  1.0000 -0.0760580063
C   C9        1.0  0.47882  0.25406  0.50760  1.0000 0.6604752034
C   C10       1.0  0.52207  0.74687  0.49305  1.0000 0.6604752034
C   C11       1.0  0.48721  0.12276  0.50009  1.0000 -0.1671108886
C   C12       1.0  0.51280  0.87836  0.49776  1.0000 -0.0053167249
C   C13       1.0  0.48765  0.04409  0.39881  1.0000 0.3201368466
C   C14       1.0  0.51391  0.95616  0.59844  1.0000 -0.1221370458
C   C15       1.0  0.50127  0.92167  0.40117  1.0000 -0.2183138837
C   C16       1.0  0.49929  0.07621  0.59665  1.0000 -0.0643247351
C   C17       1.0  0.29362  0.52056  0.56631  1.0000 0.6365119309
C   C18       1.0  0.70392  0.47889  0.43136  1.0000 0.6365119309
C   C19       1.0  0.14339  0.51048  0.53276  1.0000 -0.1671108886
C   C20       1.0  0.85612  0.48870  0.46558  1.0000 -0.0033969231
C   C21       1.0  0.09384  0.56011  0.61710  1.0000 0.3201368466
C   C22       1.0  0.90563  0.44110  0.38220  1.0000 -0.1361171514
C   C23       1.0  0.94724  0.54658  0.58048  1.0000 -0.2183138837
C   C24       1.0  0.04824  0.45223  0.41675  1.0000 -0.0685181975
N   N1        1.0  0.27992  0.05495  0.01836  1.0000 -0.6209522495
N   N2        1.0  0.48044  0.08058  0.30133  1.0000 -0.5906781763
N   N3        1.0  0.18086  0.62175  0.72901  1.0000 -0.6143636316
O   O1        1.0  0.32158  0.27721  0.16200  1.0000 -0.6507435053
O   O2        1.0  0.68252  0.72278  0.84220  1.0000 -0.6393051952
O   O3        1.0  0.16174  0.30383  0.23427  1.0000 -0.6393051952
O   O4        1.0  0.83862  0.69711  0.76504  1.0000 -0.6719187706
O   O5        1.0  0.51595  0.33614  0.60449  1.0000 -0.6779047459
O   O6        1.0  0.48380  0.66484  0.39645  1.0000 -0.6779047459
O   O7        1.0  0.43300  0.27965  0.40886  1.0000 -0.6852826089
O   O8        1.0  0.56932  0.72494  0.59222  1.0000 -0.6719187706
O   O9        1.0  0.38057  0.55660  0.67341  1.0000 -0.6209522495
O   O10       1.0  0.61943  0.44490  0.32551  1.0000 -0.6209522495
O   O11       1.0  0.34264  0.49456  0.48771  1.0000 -0.762106052
O   O12       1.0  0.65679  0.50470  0.51110  1.0000 -0.762106052
