# DDEC6 charges by PACMAN v1.1 (https://github.com/mtap-research/PACMAN-charge/)
data_2008[La][nan]3[ASR]1
_chemical_formula_sum              "La4 H8 C20 O24"
_cell_length_a       16.1333
_cell_length_b       14.969
_cell_length_c       9.16638
_cell_angle_alpha    79.9664
_cell_angle_beta     66.014
_cell_angle_gamma    34.0196

_symmetry_space_group_name_H-M    "P 1"
_symmetry_Int_Tables_number       1

loop_
  _symmetry_equiv_pos_as_xyz
  'x, y, z'

loop_
  _atom_site_type_symbol
  _atom_site_label
  _atom_site_symmetry_multiplicity
  _atom_site_fract_x
  _atom_site_fract_y
  _atom_site_fract_z
  _atom_site_occupancy
  _atom_site_charge
La  La1       1.0  0.36584  0.36584  0.13416  1.0000 1.8355318864
La  La2       1.0  0.13416  0.13416  0.36584  1.0000 1.8310688694
La  La3       1.0  0.88416  0.88416  0.11584  1.0000 1.8310688694
La  La4       1.0  0.11584  0.11584  0.88416  1.0000 1.8355318864
H   H1        1.0  0.31700  0.50300  0.49300  1.0000 0.135986041
H   H2        1.0  0.68700  0.49300  0.50300  1.0000 0.135986041
H   H3        1.0  0.49300  0.68700  0.31700  1.0000 0.135986041
H   H4        1.0  0.50300  0.31700  0.68700  1.0000 0.135986041
H   H5        1.0  0.93300  0.74700  0.75700  1.0000 0.135986041
H   H6        1.0  0.56300  0.75700  0.74700  1.0000 0.135986041
H   H7        1.0  0.75700  0.56300  0.93300  1.0000 0.135986041
H   H8        1.0  0.74700  0.93300  0.56300  1.0000 0.135986041
C   C1        1.0  0.30040  0.19960  0.30040  1.0000 0.4982835014
C   C2        1.0  0.19960  0.30040  0.19960  1.0000 0.4982835014
C   C3        1.0  0.94960  0.05040  0.94960  1.0000 0.4982835014
C   C4        1.0  0.05040  0.94960  0.05040  1.0000 0.4982835014
C   C5        1.0  0.56583  0.24243  0.37637  1.0000 0.642106842
C   C6        1.0  0.81537  0.37637  0.24243  1.0000 0.642106842
C   C7        1.0  0.37637  0.81537  0.56583  1.0000 0.642106842
C   C8        1.0  0.24243  0.56583  0.81537  1.0000 0.642106842
C   C9        1.0  0.68417  0.00757  0.87363  1.0000 0.642106842
C   C10       1.0  0.43463  0.87363  0.00757  1.0000 0.642106842
C   C11       1.0  0.87363  0.43463  0.68417  1.0000 0.642106842
C   C12       1.0  0.00757  0.68417  0.43463  1.0000 0.642106842
C   C13       1.0  0.41216  0.40216  0.51944  1.0000 -0.1690301432
C   C14       1.0  0.66624  0.51944  0.40216  1.0000 -0.1690301432
C   C15       1.0  0.51944  0.66624  0.41216  1.0000 -0.1690301432
C   C16       1.0  0.40216  0.41216  0.66624  1.0000 -0.1690301432
C   C17       1.0  0.83784  0.84784  0.73056  1.0000 -0.1690301432
C   C18       1.0  0.58376  0.73056  0.84784  1.0000 -0.1690301432
C   C19       1.0  0.73056  0.58376  0.83784  1.0000 -0.1690301432
C   C20       1.0  0.84784  0.83784  0.58376  1.0000 -0.1690301432
O   O1        1.0  0.38659  0.19181  0.28619  1.0000 -0.5336264859
O   O2        1.0  0.13541  0.28619  0.19181  1.0000 -0.5336264859
O   O3        1.0  0.28619  0.13541  0.38659  1.0000 -0.5336264859
O   O4        1.0  0.19181  0.38659  0.13541  1.0000 -0.5336264859
O   O5        1.0  0.86341  0.05819  0.96381  1.0000 -0.5336264859
O   O6        1.0  0.11459  0.96381  0.05819  1.0000 -0.5336264859
O   O7        1.0  0.96381  0.11459  0.86341  1.0000 -0.5336264859
O   O8        1.0  0.05819  0.86341  0.11459  1.0000 -0.5336264859
O   O9        1.0  0.54871  0.23389  0.25951  1.0000 -0.6533258597
O   O10       1.0  0.95789  0.25951  0.23389  1.0000 -0.6533258597
O   O11       1.0  0.25951  0.95789  0.54871  1.0000 -0.6533258597
O   O12       1.0  0.23389  0.54871  0.95789  1.0000 -0.6533258597
O   O13       1.0  0.70129  0.01611  0.99049  1.0000 -0.6533258597
O   O14       1.0  0.29211  0.99049  0.01611  1.0000 -0.6533258597
O   O15       1.0  0.99049  0.29211  0.70129  1.0000 -0.6533258597
O   O16       1.0  0.01611  0.70129  0.29211  1.0000 -0.6533258597
O   O17       1.0  0.70720  0.11838  0.37302  1.0000 -0.5879023338
O   O18       1.0  0.80140  0.37302  0.11838  1.0000 -0.5879023338
O   O19       1.0  0.37302  0.80140  0.70720  1.0000 -0.5879023338
O   O20       1.0  0.11838  0.70720  0.80140  1.0000 -0.5879023338
O   O21       1.0  0.54280  0.13162  0.87698  1.0000 -0.5879023338
O   O22       1.0  0.44860  0.87698  0.13162  1.0000 -0.5879023338
O   O23       1.0  0.87698  0.44860  0.54280  1.0000 -0.5879023338
O   O24       1.0  0.13162  0.54280  0.44860  1.0000 -0.5879023338
