# DDEC6 charges by PACMAN v1.1 (https://github.com/mtap-research/PACMAN-charge/)
data_2008[Tm][rtl]3[ASR]1
_chemical_formula_sum              "Tm4 H36 C36 O24"
_cell_length_a       9.543
_cell_length_b       13.8215
_cell_length_c       17.5465
_cell_angle_alpha    90
_cell_angle_beta     119.494
_cell_angle_gamma    90

_symmetry_space_group_name_H-M    "P 1"
_symmetry_Int_Tables_number       1

loop_
  _symmetry_equiv_pos_as_xyz
  'x, y, z'

loop_
  _atom_site_type_symbol
  _atom_site_label
  _atom_site_symmetry_multiplicity
  _atom_site_fract_x
  _atom_site_fract_y
  _atom_site_fract_z
  _atom_site_occupancy
  _atom_site_charge
Tm  Tm1       1.0  0.62879  0.88863  0.08556  1.0000 1.9986404987
Tm  Tm2       1.0  0.37121  0.38863  0.41444  1.0000 1.9986404987
Tm  Tm3       1.0  0.37121  0.11137  0.91444  1.0000 1.9986404987
Tm  Tm4       1.0  0.62879  0.61137  0.58556  1.0000 1.9986404987
H   H1        1.0  0.15230  0.09160  0.25990  1.0000 0.0988998132
H   H2        1.0  0.84770  0.59160  0.24010  1.0000 0.0988998132
H   H3        1.0  0.84770  0.90840  0.74010  1.0000 0.0988998132
H   H4        1.0  0.15230  0.40840  0.75990  1.0000 0.0988998132
H   H5        1.0  0.01060  0.16350  0.20370  1.0000 0.1165732505
H   H6        1.0  0.98940  0.66350  0.29630  1.0000 0.1165732505
H   H7        1.0  0.98940  0.83650  0.79630  1.0000 0.1165732505
H   H8        1.0  0.01060  0.33650  0.70370  1.0000 0.1165732505
H   H9        1.0  0.98200  0.09700  0.07510  1.0000 0.0988998132
H   H10       1.0  0.01800  0.59700  0.42490  1.0000 0.0988998132
H   H11       1.0  0.01800  0.90300  0.92490  1.0000 0.0988998132
H   H12       1.0  0.98200  0.40300  0.57510  1.0000 0.0988998132
H   H13       1.0  0.12320  0.96250  0.07110  1.0000 0.0942278193
H   H14       1.0  0.87680  0.46250  0.42890  1.0000 0.0942278193
H   H15       1.0  0.87680  0.03750  0.92890  1.0000 0.0942278193
H   H16       1.0  0.12320  0.53750  0.57110  1.0000 0.0942278193
H   H17       1.0  0.22680  0.96350  0.17360  1.0000 0.1165732505
H   H18       1.0  0.77320  0.46350  0.32640  1.0000 0.1165732505
H   H19       1.0  0.77320  0.03650  0.82640  1.0000 0.1165732505
H   H20       1.0  0.22680  0.53650  0.67360  1.0000 0.1165732505
H   H21       1.0  0.22590  0.11190  0.06330  1.0000 0.0988998132
H   H22       1.0  0.77410  0.61190  0.43670  1.0000 0.0988998132
H   H23       1.0  0.77410  0.88810  0.93670  1.0000 0.0988998132
H   H24       1.0  0.22590  0.38810  0.56330  1.0000 0.0988998132
H   H25       1.0  0.41700  0.10620  0.24780  1.0000 0.1055141983
H   H26       1.0  0.58300  0.60620  0.25220  1.0000 0.1055141983
H   H27       1.0  0.58300  0.89380  0.75220  1.0000 0.0988998132
H   H28       1.0  0.41700  0.39380  0.74780  1.0000 0.1055141983
H   H29       1.0  0.42530  0.18820  0.18830  1.0000 0.1055141983
H   H30       1.0  0.57470  0.68820  0.31170  1.0000 0.1055141983
H   H31       1.0  0.57470  0.81180  0.81170  1.0000 0.1055141983
H   H32       1.0  0.42530  0.31180  0.68830  1.0000 0.1055141983
H   H33       1.0  0.16050  0.23510  0.14540  1.0000 0.0988998132
H   H34       1.0  0.83950  0.73510  0.35460  1.0000 0.0988998132
H   H35       1.0  0.83950  0.76490  0.85460  1.0000 0.0988998132
H   H36       1.0  0.16050  0.26490  0.64540  1.0000 0.0988998132
C   C1        1.0  0.09900  0.12720  0.20520  1.0000 -0.1961747719
C   C2        1.0  0.90100  0.62720  0.29480  1.0000 -0.1916314392
C   C3        1.0  0.90100  0.87280  0.79480  1.0000 -0.1916314392
C   C4        1.0  0.09900  0.37280  0.70520  1.0000 -0.1961747719
C   C5        1.0  0.03410  0.05650  0.12770  1.0000 -0.1083004711
C   C6        1.0  0.96590  0.55650  0.37230  1.0000 -0.1083004711
C   C7        1.0  0.96590  0.94350  0.87230  1.0000 -0.1083004711
C   C8        1.0  0.03410  0.44350  0.62770  1.0000 -0.1083004711
C   C9        1.0  0.16910  0.00410  0.12230  1.0000 -0.1916314392
C   C10       1.0  0.83090  0.50410  0.37770  1.0000 -0.1916314392
C   C11       1.0  0.83090  0.99590  0.87770  1.0000 -0.1916314392
C   C12       1.0  0.16910  0.49590  0.62230  1.0000 -0.1916314392
C   C13       1.0  0.28540  0.07350  0.11680  1.0000 -0.1268017976
C   C14       1.0  0.71460  0.57350  0.38320  1.0000 -0.1268017976
C   C15       1.0  0.71460  0.92650  0.88320  1.0000 -0.1268017976
C   C16       1.0  0.28540  0.42650  0.61680  1.0000 -0.1268017976
C   C17       1.0  0.35420  0.14240  0.19410  1.0000 -0.1916314392
C   C18       1.0  0.64580  0.64240  0.30590  1.0000 -0.1916314392
C   C19       1.0  0.64580  0.85760  0.80590  1.0000 -0.1916314392
C   C20       1.0  0.35420  0.35760  0.69410  1.0000 -0.1916314392
C   C21       1.0  0.21950  0.19720  0.19930  1.0000 -0.1083004711
C   C22       1.0  0.78050  0.69720  0.30070  1.0000 -0.1083004711
C   C23       1.0  0.78050  0.80280  0.80070  1.0000 -0.1083004711
C   C24       1.0  0.21950  0.30280  0.69930  1.0000 -0.1083004711
C   C25       1.0  0.90390  0.99150  0.12280  1.0000 0.5692615943
C   C26       1.0  0.09610  0.49150  0.37720  1.0000 0.5692615943
C   C27       1.0  0.09610  0.00850  0.87720  1.0000 0.5692615943
C   C28       1.0  0.90390  0.50850  0.62280  1.0000 0.5692615943
C   C29       1.0  0.41870  0.02030  0.11110  1.0000 0.6256730171
C   C30       1.0  0.58130  0.52030  0.38890  1.0000 0.6256730171
C   C31       1.0  0.58130  0.97970  0.88890  1.0000 0.6256730171
C   C32       1.0  0.41870  0.47970  0.61110  1.0000 0.6256730171
C   C33       1.0  0.27960  0.26660  0.27630  1.0000 0.5692615943
C   C34       1.0  0.72040  0.76660  0.22370  1.0000 0.5692615943
C   C35       1.0  0.72040  0.73340  0.72370  1.0000 0.5692615943
C   C36       1.0  0.27960  0.23340  0.77630  1.0000 0.5692615943
O   O1        1.0  0.79410  0.02840  0.13470  1.0000 -0.6171920239
O   O2        1.0  0.20590  0.52840  0.36530  1.0000 -0.6171920239
O   O3        1.0  0.20590  0.97160  0.86530  1.0000 -0.6171920239
O   O4        1.0  0.79410  0.47160  0.63470  1.0000 -0.6171920239
O   O5        1.0  0.89500  0.90470  0.10140  1.0000 -0.6171920239
O   O6        1.0  0.10500  0.40470  0.39860  1.0000 -0.6171920239
O   O7        1.0  0.10500  0.09530  0.89860  1.0000 -0.6171920239
O   O8        1.0  0.89500  0.59530  0.60140  1.0000 -0.6131447567
O   O9        1.0  0.19050  0.33690  0.26990  1.0000 -0.6131447567
O   O10       1.0  0.80950  0.83690  0.23010  1.0000 -0.6131447567
O   O11       1.0  0.80950  0.66310  0.73010  1.0000 -0.6131447567
O   O12       1.0  0.19050  0.16310  0.76990  1.0000 -0.6131447567
O   O13       1.0  0.41060  0.25280  0.34370  1.0000 -0.6131447567
O   O14       1.0  0.58940  0.75280  0.15630  1.0000 -0.6131447567
O   O15       1.0  0.58940  0.74720  0.65630  1.0000 -0.6171920239
O   O16       1.0  0.41060  0.24720  0.84370  1.0000 -0.6131447567
O   O17       1.0  0.50150  0.95640  0.16380  1.0000 -0.5681215314
O   O18       1.0  0.49850  0.45640  0.33620  1.0000 -0.5681215314
O   O19       1.0  0.49850  0.04360  0.83620  1.0000 -0.5681215314
O   O20       1.0  0.50150  0.54360  0.66380  1.0000 -0.5681215314
O   O21       1.0  0.44140  0.03850  0.04720  1.0000 -0.7458212612
O   O22       1.0  0.55860  0.53850  0.45280  1.0000 -0.7458212612
O   O23       1.0  0.55860  0.96150  0.95280  1.0000 -0.7458212612
O   O24       1.0  0.44140  0.46150  0.54720  1.0000 -0.7458212612
