# DDEC6 charges by PACMAN v1.1 (https://github.com/mtap-research/PACMAN-charge/)
data_2008[Eu][nan]3[ASR]1
_chemical_formula_sum              "Eu2 H24 C42 O12"
_cell_length_a       15.1056
_cell_length_b       15.1056
_cell_length_c       14.105
_cell_angle_alpha    64.8563
_cell_angle_beta     115.144
_cell_angle_gamma    146.705

_symmetry_space_group_name_H-M    "P 1"
_symmetry_Int_Tables_number       1

loop_
  _symmetry_equiv_pos_as_xyz
  'x, y, z'

loop_
  _atom_site_type_symbol
  _atom_site_label
  _atom_site_symmetry_multiplicity
  _atom_site_fract_x
  _atom_site_fract_y
  _atom_site_fract_z
  _atom_site_occupancy
  _atom_site_charge
Eu  Eu1       1.0  0.04047  0.49493  0.00551  1.0000 2.1184142109
Eu  Eu2       1.0  0.49493  0.04047  0.99449  1.0000 2.1184142109
H   H1        1.0  0.21940  0.55480  0.80160  1.0000 0.1108029947
H   H2        1.0  0.55480  0.21940  0.19840  1.0000 0.1108029947
H   H3        1.0  0.23990  0.55030  0.64640  1.0000 0.1108029947
H   H4        1.0  0.55030  0.23990  0.35360  1.0000 0.1108029947
H   H5        1.0  0.55460  0.02280  0.55920  1.0000 0.1028693903
H   H6        1.0  0.02280  0.55460  0.44080  1.0000 0.1028693903
H   H7        1.0  0.55960  0.03560  0.71950  1.0000 0.1108029947
H   H8        1.0  0.03560  0.55960  0.28050  1.0000 0.1108029947
H   H9        1.0  0.32500  0.57860  0.53110  1.0000 0.1108029947
H   H10       1.0  0.57860  0.32500  0.46890  1.0000 0.1108029947
H   H11       1.0  0.27860  0.54260  0.36260  1.0000 0.1206229281
H   H12       1.0  0.54260  0.27860  0.63740  1.0000 0.1206229281
H   H13       1.0  0.41870  0.93350  0.23340  1.0000 0.1108029947
H   H14       1.0  0.93350  0.41870  0.76660  1.0000 0.1108029947
H   H15       1.0  0.43250  0.95250  0.39490  1.0000 0.1108029947
H   H16       1.0  0.95250  0.43250  0.60510  1.0000 0.1108029947
H   H17       1.0  0.83160  0.60360  0.71600  1.0000 0.1206229281
H   H18       1.0  0.60360  0.83160  0.28400  1.0000 0.1206229281
H   H19       1.0  0.73450  0.66770  0.56800  1.0000 0.1028693903
H   H20       1.0  0.66770  0.73450  0.43200  1.0000 0.1028693903
H   H21       1.0  0.19410  0.14130  0.58060  1.0000 0.1108029947
H   H22       1.0  0.14130  0.19410  0.41940  1.0000 0.1108029947
H   H23       1.0  0.27710  0.05910  0.71540  1.0000 0.1287850093
H   H24       1.0  0.05910  0.27710  0.28460  1.0000 0.1287850093
C   C1        1.0  0.37480  0.80020  0.87240  1.0000 0.6507797863
C   C2        1.0  0.80020  0.37480  0.12760  1.0000 0.6507797863
C   C3        1.0  0.38780  0.79840  0.77200  1.0000 -0.0262911964
C   C4        1.0  0.79840  0.38780  0.22800  1.0000 -0.0262911964
C   C5        1.0  0.28840  0.64880  0.75390  1.0000 -0.0984327134
C   C6        1.0  0.64880  0.28840  0.24610  1.0000 -0.0984327134
C   C7        1.0  0.29730  0.64630  0.65820  1.0000 -0.1616689189
C   C8        1.0  0.64630  0.29730  0.34180  1.0000 -0.1616689189
C   C9        1.0  0.38700  0.78040  0.58400  1.0000 0.0683049716
C   C10       1.0  0.78040  0.38700  0.41600  1.0000 0.0683049716
C   C11       1.0  0.48760  0.92840  0.60740  1.0000 -0.1489696477
C   C12       1.0  0.92840  0.48760  0.39260  1.0000 -0.1489696477
C   C13       1.0  0.48860  0.93540  0.70280  1.0000 -0.0906168954
C   C14       1.0  0.93540  0.48860  0.29720  1.0000 -0.0906168954
C   C15       1.0  0.38250  0.77150  0.47840  1.0000 0.0780702706
C   C16       1.0  0.77150  0.38250  0.52160  1.0000 0.0780702706
C   C17       1.0  0.33780  0.64580  0.47120  1.0000 -0.1616689189
C   C18       1.0  0.64580  0.33780  0.52880  1.0000 -0.1616689189
C   C19       1.0  0.31420  0.62780  0.37020  1.0000 -0.0984327134
C   C20       1.0  0.62780  0.31420  0.62980  1.0000 -0.0984327134
C   C21       1.0  0.34080  0.73140  0.28280  1.0000 -0.0195003903
C   C22       1.0  0.73140  0.34080  0.71720  1.0000 -0.0195003903
C   C23       1.0  0.39290  0.85830  0.29230  1.0000 -0.0984327134
C   C24       1.0  0.85830  0.39290  0.70770  1.0000 -0.0984327134
C   C25       1.0  0.40670  0.87310  0.38970  1.0000 -0.1489696477
C   C26       1.0  0.87310  0.40670  0.61030  1.0000 -0.1489696477
C   C27       1.0  0.28960  0.69120  0.17310  1.0000 0.604374754
C   C28       1.0  0.69120  0.28960  0.82690  1.0000 0.6054009076
C   C29       1.0  0.11100  0.77820  0.83360  1.0000 0.6507797863
C   C30       1.0  0.77820  0.11100  0.16640  1.0000 0.6507797863
C   C31       1.0  0.05990  0.82450  0.73580  1.0000 -0.0518455628
C   C32       1.0  0.82450  0.05990  0.26420  1.0000 -0.0518455628
C   C33       1.0  0.90460  0.71240  0.68740  1.0000 -0.0906168954
C   C34       1.0  0.71240  0.90460  0.31260  1.0000 -0.0906168954
C   C35       1.0  0.84410  0.74790  0.59620  1.0000 -0.1616689189
C   C36       1.0  0.74790  0.84410  0.40380  1.0000 -0.1616689189
C   C37       1.0  0.96720  0.92080  0.54910  1.0000 0.0683049716
C   C38       1.0  0.92080  0.96720  0.45090  1.0000 0.0683049716
C   C39       1.0  0.11960  0.03080  0.60220  1.0000 -0.1489696477
C   C40       1.0  0.03080  0.11960  0.39780  1.0000 -0.1489696477
C   C41       1.0  0.16700  0.98120  0.68870  1.0000 -0.0906168954
C   C42       1.0  0.98120  0.16700  0.31130  1.0000 -0.0906168954
O   O1        1.0  0.25430  0.67130  0.91780  1.0000 -0.6930534367
O   O2        1.0  0.67130  0.25430  0.08220  1.0000 -0.6930534367
O   O3        1.0  0.49340  0.93960  0.90190  1.0000 -0.6507797364
O   O4        1.0  0.93960  0.49340  0.09810  1.0000 -0.6507797364
O   O5        1.0  0.28970  0.77050  0.09400  1.0000 -0.698123214
O   O6        1.0  0.77050  0.28970  0.90600  1.0000 -0.698123214
O   O7        1.0  0.22930  0.56530  0.16910  1.0000 -0.624742401
O   O8        1.0  0.56530  0.22930  0.83090  1.0000 -0.6278533065
O   O9        1.0  0.01040  0.63240  0.87160  1.0000 -0.6278533065
O   O10       1.0  0.63240  0.01040  0.12840  1.0000 -0.6278533065
O   O11       1.0  0.25540  0.89380  0.87680  1.0000 -0.698123214
O   O12       1.0  0.89380  0.25540  0.12320  1.0000 -0.698123214
