# DDEC6 charges by PACMAN v1.1 (https://github.com/mtap-research/PACMAN-charge/)
data_2008[Zn][nan]3[ASR]16
_chemical_formula_sum              "Zn6 H6 C24 O18"
_cell_length_a       15.292
_cell_length_b       15.292
_cell_length_c       15.292
_cell_angle_alpha    117.938
_cell_angle_beta     117.938
_cell_angle_gamma    117.938

_symmetry_space_group_name_H-M    "P 1"
_symmetry_Int_Tables_number       1

loop_
  _symmetry_equiv_pos_as_xyz
  'x, y, z'

loop_
  _atom_site_type_symbol
  _atom_site_label
  _atom_site_symmetry_multiplicity
  _atom_site_fract_x
  _atom_site_fract_y
  _atom_site_fract_z
  _atom_site_occupancy
  _atom_site_charge
Zn  Zn1       1.0  0.38410  0.95909  0.69784  1.0000 0.9909678267
Zn  Zn2       1.0  0.95909  0.69784  0.38410  1.0000 0.9909678267
Zn  Zn3       1.0  0.69784  0.38410  0.95909  1.0000 0.9909678267
Zn  Zn4       1.0  0.61590  0.04091  0.30216  1.0000 0.9909678267
Zn  Zn5       1.0  0.04091  0.30216  0.61590  1.0000 0.9909678267
Zn  Zn6       1.0  0.30216  0.61590  0.04091  1.0000 0.9909678267
H   H1        1.0  0.71747  0.14321  0.16315  1.0000 0.1543970373
H   H2        1.0  0.14321  0.16315  0.71747  1.0000 0.1543970373
H   H3        1.0  0.16315  0.71747  0.14321  1.0000 0.1543970373
H   H4        1.0  0.28253  0.85679  0.83685  1.0000 0.1543970373
H   H5        1.0  0.85679  0.83685  0.28253  1.0000 0.1543970373
H   H6        1.0  0.83685  0.28253  0.85679  1.0000 0.1543970373
C   C1        1.0  0.76326  0.32841  0.15623  1.0000 0.6237107979
C   C2        1.0  0.32841  0.15623  0.76326  1.0000 0.6237107979
C   C3        1.0  0.15623  0.76326  0.32841  1.0000 0.6237107979
C   C4        1.0  0.23674  0.67159  0.84377  1.0000 0.6237107979
C   C5        1.0  0.67159  0.84377  0.23674  1.0000 0.6237107979
C   C6        1.0  0.84377  0.23674  0.67159  1.0000 0.6237107979
C   C7        1.0  0.88405  0.41671  0.32964  1.0000 -0.2001718514
C   C8        1.0  0.41671  0.32964  0.88405  1.0000 -0.2001718514
C   C9        1.0  0.32964  0.88405  0.41671  1.0000 -0.2001718514
C   C10       1.0  0.11595  0.58329  0.67036  1.0000 -0.2001718514
C   C11       1.0  0.58329  0.67036  0.11595  1.0000 -0.2001718514
C   C12       1.0  0.67036  0.11595  0.58329  1.0000 -0.2001718514
C   C13       1.0  0.05869  0.63080  0.53173  1.0000 0.3234071102
C   C14       1.0  0.63080  0.53173  0.05869  1.0000 0.3234071102
C   C15       1.0  0.53173  0.05869  0.63080  1.0000 0.3234071102
C   C16       1.0  0.94131  0.36920  0.46827  1.0000 0.3234071102
C   C17       1.0  0.36920  0.46827  0.94131  1.0000 0.3234071102
C   C18       1.0  0.46827  0.94131  0.36920  1.0000 0.3234071102
C   C19       1.0  0.83222  0.28784  0.30058  1.0000 -0.2001718514
C   C20       1.0  0.28784  0.30058  0.83222  1.0000 -0.2001718514
C   C21       1.0  0.30058  0.83222  0.28784  1.0000 -0.2001718514
C   C22       1.0  0.16778  0.71216  0.69942  1.0000 -0.2001718514
C   C23       1.0  0.71216  0.69942  0.16778  1.0000 -0.2001718514
C   C24       1.0  0.69942  0.16778  0.71216  1.0000 -0.2001718514
O   O1        1.0  0.62182  0.14265  0.98117  1.0000 -0.4930120541
O   O2        1.0  0.14265  0.98117  0.62182  1.0000 -0.4930120541
O   O3        1.0  0.98117  0.62182  0.14265  1.0000 -0.4930120541
O   O4        1.0  0.37818  0.85735  0.01883  1.0000 -0.4930120541
O   O5        1.0  0.85735  0.01883  0.37818  1.0000 -0.4930120541
O   O6        1.0  0.01883  0.37818  0.85735  1.0000 -0.4930120541
O   O7        1.0  0.82459  0.44621  0.18506  1.0000 -0.5577853653
O   O8        1.0  0.44621  0.18506  0.82459  1.0000 -0.5577853653
O   O9        1.0  0.18506  0.82459  0.44621  1.0000 -0.5577853653
O   O10       1.0  0.17541  0.55379  0.81494  1.0000 -0.5577853653
O   O11       1.0  0.55379  0.81494  0.17541  1.0000 -0.5577853653
O   O12       1.0  0.81494  0.17541  0.55379  1.0000 -0.5577853653
O   O13       1.0  0.12959  0.76310  0.56727  1.0000 -0.6413416498
O   O14       1.0  0.76310  0.56727  0.12959  1.0000 -0.6413416498
O   O15       1.0  0.56727  0.12959  0.76310  1.0000 -0.6413416498
O   O16       1.0  0.87041  0.23690  0.43273  1.0000 -0.6413416498
O   O17       1.0  0.23690  0.43273  0.87041  1.0000 -0.6413416498
O   O18       1.0  0.43273  0.87041  0.23690  1.0000 -0.6413416498
