# DDEC6 charges by PACMAN v1.1 (https://github.com/mtap-research/PACMAN-charge/)
data_2008[CuMo][nan]2[ASR]1
_chemical_formula_sum              "Cu2 Mo10 P4 H36 C40 N8 O30"
_cell_length_a       11.1688
_cell_length_b       11.1688
_cell_length_c       25.067
_cell_angle_alpha    76.2577
_cell_angle_beta     103.742
_cell_angle_gamma    104.542

_symmetry_space_group_name_H-M    "P 1"
_symmetry_Int_Tables_number       1

loop_
  _symmetry_equiv_pos_as_xyz
  'x, y, z'

loop_
  _atom_site_type_symbol
  _atom_site_label
  _atom_site_symmetry_multiplicity
  _atom_site_fract_x
  _atom_site_fract_y
  _atom_site_fract_z
  _atom_site_occupancy
  _atom_site_charge
Cu  Cu1       1.0  0.50000  0.50000  0.00000  1.0000 0.4595093016
Cu  Cu2       1.0  0.50000  0.50000  0.50000  1.0000 0.4595093016
Mo  Mo1       1.0  0.42295  0.58567  0.82769  1.0000 2.023164827
Mo  Mo2       1.0  0.58567  0.42295  0.67231  1.0000 2.023164827
Mo  Mo3       1.0  0.57705  0.41433  0.17231  1.0000 2.023164827
Mo  Mo4       1.0  0.41433  0.57705  0.32769  1.0000 2.023164827
Mo  Mo5       1.0  0.64753  0.64753  0.75000  1.0000 1.6060151641
Mo  Mo6       1.0  0.35247  0.35247  0.25000  1.0000 1.6060151641
Mo  Mo7       1.0  0.33748  0.19628  0.70896  1.0000 1.5626643185
Mo  Mo8       1.0  0.19628  0.33748  0.79104  1.0000 1.5626643185
Mo  Mo9       1.0  0.66252  0.80372  0.29104  1.0000 1.5626643185
Mo  Mo10      1.0  0.80372  0.66252  0.20896  1.0000 1.5626643185
P   P1        1.0  0.33681  0.52559  0.69101  1.0000 1.4781839732
P   P2        1.0  0.52559  0.33681  0.80899  1.0000 1.4781839732
P   P3        1.0  0.66319  0.47441  0.30899  1.0000 1.4781839732
P   P4        1.0  0.47441  0.66319  0.19101  1.0000 1.4781839732
H   H1        1.0  0.28860  0.66620  0.63050  1.0000 0.3332742784
H   H2        1.0  0.66620  0.28860  0.86950  1.0000 0.3332742784
H   H3        1.0  0.71140  0.33380  0.36950  1.0000 0.3332742784
H   H4        1.0  0.33380  0.71140  0.13050  1.0000 0.3332742784
H   H5        1.0  0.33690  0.48930  0.07910  1.0000 0.1184163306
H   H6        1.0  0.48930  0.33690  0.42090  1.0000 0.1184163306
H   H7        1.0  0.66310  0.51070  0.92090  1.0000 0.1184163306
H   H8        1.0  0.51070  0.66310  0.57910  1.0000 0.1184163306
H   H9        1.0  0.14170  0.50270  0.08080  1.0000 0.1184163306
H   H10       1.0  0.50270  0.14170  0.41920  1.0000 0.1184163306
H   H11       1.0  0.85830  0.49730  0.91920  1.0000 0.1184163306
H   H12       1.0  0.49730  0.85830  0.58080  1.0000 0.1184163306
H   H13       1.0  0.04300  0.47600  0.92050  1.0000 0.1184163306
H   H14       1.0  0.47600  0.04300  0.57950  1.0000 0.1184163306
H   H15       1.0  0.95700  0.52400  0.07950  1.0000 0.1184163306
H   H16       1.0  0.52400  0.95700  0.42050  1.0000 0.1184163306
H   H17       1.0  0.24000  0.45720  0.92310  1.0000 0.103265233
H   H18       1.0  0.45720  0.24000  0.57690  1.0000 0.103265233
H   H19       1.0  0.76000  0.54280  0.07690  1.0000 0.103265233
H   H20       1.0  0.54280  0.76000  0.42310  1.0000 0.103265233
H   H21       1.0  0.61140  0.69280  0.07280  1.0000 0.103265233
H   H22       1.0  0.69280  0.61140  0.42720  1.0000 0.103265233
H   H23       1.0  0.38860  0.30720  0.92720  1.0000 0.103265233
H   H24       1.0  0.30720  0.38860  0.57280  1.0000 0.103265233
H   H25       1.0  0.61440  0.89520  0.07440  1.0000 0.1184163306
H   H26       1.0  0.89520  0.61440  0.42560  1.0000 0.1184163306
H   H27       1.0  0.38560  0.10480  0.92560  1.0000 0.1184163306
H   H28       1.0  0.10480  0.38560  0.57440  1.0000 0.1184163306
H   H29       1.0  0.40628  0.92708  0.92140  1.0000 0.1184163306
H   H30       1.0  0.92708  0.40628  0.57860  1.0000 0.1184163306
H   H31       1.0  0.59372  0.07292  0.07860  1.0000 0.1184163306
H   H32       1.0  0.07292  0.59372  0.42140  1.0000 0.1184163306
H   H33       1.0  0.41100  0.72160  0.92220  1.0000 0.0901627991
H   H34       1.0  0.72160  0.41100  0.57780  1.0000 0.0901627991
H   H35       1.0  0.58900  0.27840  0.07780  1.0000 0.0901627991
H   H36       1.0  0.27840  0.58900  0.42220  1.0000 0.0901627991
C   C1        1.0  0.27690  0.48730  0.04630  1.0000 0.0769407276
C   C2        1.0  0.48730  0.27690  0.45370  1.0000 0.0769407276
C   C3        1.0  0.72310  0.51270  0.95370  1.0000 0.0769407276
C   C4        1.0  0.51270  0.72310  0.54630  1.0000 0.0769407276
C   C5        1.0  0.15940  0.49560  0.04740  1.0000 -0.2216706205
C   C6        1.0  0.49560  0.15940  0.45260  1.0000 -0.2216706205
C   C7        1.0  0.84060  0.50440  0.95260  1.0000 -0.2216706205
C   C8        1.0  0.50440  0.84060  0.54740  1.0000 -0.2216706205
C   C9        1.0  0.06360  0.49400  0.00060  1.0000 0.0901627991
C   C10       1.0  0.49400  0.06360  0.49940  1.0000 0.0901627991
C   C11       1.0  0.93640  0.50600  0.99940  1.0000 0.0901627991
C   C12       1.0  0.50600  0.93640  0.50060  1.0000 0.0901627991
C   C13       1.0  0.10140  0.47920  0.95370  1.0000 -0.2109457407
C   C14       1.0  0.47920  0.10140  0.54630  1.0000 -0.2109457407
C   C15       1.0  0.89860  0.52080  0.04630  1.0000 -0.2109457407
C   C16       1.0  0.52080  0.89860  0.45370  1.0000 -0.2109457407
C   C17       1.0  0.22050  0.46930  0.95530  1.0000 0.0473514344
C   C18       1.0  0.46930  0.22050  0.54470  1.0000 0.0473514344
C   C19       1.0  0.77950  0.53070  0.04470  1.0000 0.0473514344
C   C20       1.0  0.53070  0.77950  0.45530  1.0000 0.0473514344
C   C21       1.0  0.56990  0.74050  0.04160  1.0000 0.0743762289
C   C22       1.0  0.74050  0.56990  0.45840  1.0000 0.0769407276
C   C23       1.0  0.43010  0.25950  0.95840  1.0000 0.0769407276
C   C24       1.0  0.25950  0.43010  0.54160  1.0000 0.0743762289
C   C25       1.0  0.56950  0.86190  0.04300  1.0000 -0.2109457407
C   C26       1.0  0.86190  0.56950  0.45700  1.0000 -0.2109457407
C   C27       1.0  0.43050  0.13810  0.95700  1.0000 -0.2109457407
C   C28       1.0  0.13810  0.43050  0.54300  1.0000 -0.2109457407
C   C29       1.0  0.50500  0.93660  0.99990  1.0000 0.0901627991
C   C30       1.0  0.93660  0.50500  0.50010  1.0000 0.0901627991
C   C31       1.0  0.49500  0.06340  0.00010  1.0000 0.0901627991
C   C32       1.0  0.06340  0.49500  0.49990  1.0000 0.0901627991
C   C33       1.0  0.44780  0.88080  0.95310  1.0000 -0.2109457407
C   C34       1.0  0.88080  0.44780  0.54690  1.0000 -0.2109457407
C   C35       1.0  0.55220  0.11920  0.04690  1.0000 -0.2109457407
C   C36       1.0  0.11920  0.55220  0.45310  1.0000 -0.2109457407
C   C37       1.0  0.45210  0.75690  0.95340  1.0000 0.0769407276
C   C38       1.0  0.75690  0.45210  0.54660  1.0000 0.0769407276
C   C39       1.0  0.54790  0.24310  0.04660  1.0000 0.0769407276
C   C40       1.0  0.24310  0.54790  0.45340  1.0000 0.0769407276
N   N1        1.0  0.31180  0.47620  0.00090  1.0000 -0.2216706205
N   N2        1.0  0.47620  0.31180  0.49910  1.0000 -0.2216706205
N   N3        1.0  0.68820  0.52380  0.99910  1.0000 -0.2216706205
N   N4        1.0  0.52380  0.68820  0.50090  1.0000 -0.2216706205
N   N5        1.0  0.51360  0.68720  0.99720  1.0000 -0.2216706205
N   N6        1.0  0.68720  0.51360  0.50280  1.0000 -0.2216706205
N   N7        1.0  0.48640  0.31280  0.00280  1.0000 -0.2216706205
N   N8        1.0  0.31280  0.48640  0.49720  1.0000 -0.2216706205
O   O1        1.0  0.42470  0.60430  0.73280  1.0000 -0.9596334513
O   O2        1.0  0.60430  0.42470  0.76720  1.0000 -0.9596334513
O   O3        1.0  0.57530  0.39570  0.26720  1.0000 -0.9596334513
O   O4        1.0  0.39570  0.57530  0.23280  1.0000 -0.9596334513
O   O5        1.0  0.59500  0.61700  0.81980  1.0000 -0.9126512524
O   O6        1.0  0.61700  0.59500  0.68020  1.0000 -0.9126512524
O   O7        1.0  0.40500  0.38300  0.18020  1.0000 -0.9126512524
O   O8        1.0  0.38300  0.40500  0.31980  1.0000 -0.9126512524
O   O9        1.0  0.39480  0.41820  0.68610  1.0000 -0.9178737319
O   O10       1.0  0.41820  0.39480  0.81390  1.0000 -0.9178737319
O   O11       1.0  0.60520  0.58180  0.31390  1.0000 -0.9178737319
O   O12       1.0  0.58180  0.60520  0.18610  1.0000 -0.9178737319
O   O13       1.0  0.24630  0.50250  0.81140  1.0000 -0.9888084199
O   O14       1.0  0.50250  0.24630  0.68860  1.0000 -0.9888084199
O   O15       1.0  0.75370  0.49750  0.18860  1.0000 -0.9888084199
O   O16       1.0  0.49750  0.75370  0.31140  1.0000 -0.9888084199
O   O17       1.0  0.45000  0.54180  0.89970  1.0000 -0.7942150052
O   O18       1.0  0.54180  0.45000  0.60030  1.0000 -0.7942150052
O   O19       1.0  0.55000  0.45820  0.10030  1.0000 -0.7942150052
O   O20       1.0  0.45820  0.55000  0.39970  1.0000 -0.7942150052
O   O21       1.0  0.21050  0.47110  0.70760  1.0000 -0.8166617569
O   O22       1.0  0.47110  0.21050  0.79240  1.0000 -0.8166617569
O   O23       1.0  0.78950  0.52890  0.29240  1.0000 -0.8166617569
O   O24       1.0  0.52890  0.78950  0.20760  1.0000 -0.8166617569
O   O25       1.0  0.22860  0.22860  0.75000  1.0000 -0.9178737319
O   O26       1.0  0.77140  0.77140  0.25000  1.0000 -0.9178737319
O   O27       1.0  0.32230  0.60830  0.63120  1.0000 -0.6294119473
O   O28       1.0  0.60830  0.32230  0.86880  1.0000 -0.6294119473
O   O29       1.0  0.67770  0.39170  0.36880  1.0000 -0.6294119473
O   O30       1.0  0.39170  0.67770  0.13120  1.0000 -0.6294119473
