# DDEC6 charges by PACMAN v1.1 (https://github.com/mtap-research/PACMAN-charge/)
data_2008[Al][bpq]3[ASR]3
_chemical_formula_sum              "Al4 H20 C32 O20"
_cell_length_a       15.9473
_cell_length_b       6.631
_cell_length_c       13.9205
_cell_angle_alpha    90
_cell_angle_beta     90
_cell_angle_gamma    90

_symmetry_space_group_name_H-M    "P 1"
_symmetry_Int_Tables_number       1

loop_
  _symmetry_equiv_pos_as_xyz
  'x, y, z'

loop_
  _atom_site_type_symbol
  _atom_site_label
  _atom_site_symmetry_multiplicity
  _atom_site_fract_x
  _atom_site_fract_y
  _atom_site_fract_z
  _atom_site_occupancy
  _atom_site_charge
Al  Al1       1.0  0.00127  0.49458  0.50093  1.0000 1.6144154795
Al  Al2       1.0  0.50021  0.99641  0.00072  1.0000 1.6144154795
Al  Al3       1.0  0.00100  0.99515  0.50031  1.0000 1.6155148275
Al  Al4       1.0  0.50004  0.49638  0.00040  1.0000 1.6144154795
H   H1        1.0  0.19167  0.42223  0.69458  1.0000 0.1081954395
H   H2        1.0  0.69240  0.92279  0.19292  1.0000 0.1081954395
H   H3        1.0  0.80897  0.06980  0.69266  1.0000 0.1081954395
H   H4        1.0  0.30901  0.57065  0.19401  1.0000 0.1081954395
H   H5        1.0  0.80904  0.92247  0.30738  1.0000 0.1081954395
H   H6        1.0  0.30922  0.42239  0.80767  1.0000 0.1081954395
H   H7        1.0  0.19125  0.56976  0.30689  1.0000 0.1081954395
H   H8        1.0  0.69135  0.07080  0.80595  1.0000 0.1081954395
H   H9        1.0  0.80922  0.57124  0.30769  1.0000 0.1081954395
H   H10       1.0  0.30906  0.07148  0.80749  1.0000 0.1081954395
H   H11       1.0  0.19170  0.92074  0.30637  1.0000 0.1081954395
H   H12       1.0  0.69084  0.42201  0.80632  1.0000 0.1081954395
H   H13       1.0  0.19151  0.07109  0.69425  1.0000 0.1081954395
H   H14       1.0  0.69255  0.57148  0.19308  1.0000 0.1081954395
H   H15       1.0  0.80848  0.42109  0.69317  1.0000 0.1081954395
H   H16       1.0  0.30950  0.92173  0.19360  1.0000 0.1081954395
H   H17       1.0  0.00570  0.24441  0.61384  1.0000 0.4477601103
H   H18       1.0  0.00693  0.74436  0.38739  1.0000 0.4477601103
H   H19       1.0  0.49850  0.74597  0.11392  1.0000 0.4477601103
H   H20       1.0  0.49513  0.24599  0.88731  1.0000 0.4477601103
C   C1        1.0  0.21636  0.56510  0.71871  1.0000 -0.0942844152
C   C2        1.0  0.71722  0.06557  0.21719  1.0000 -0.0942844152
C   C3        1.0  0.78381  0.92729  0.71670  1.0000 -0.0942844152
C   C4        1.0  0.28434  0.42760  0.21808  1.0000 -0.095251786
C   C5        1.0  0.78444  0.06532  0.28298  1.0000 -0.0942844152
C   C6        1.0  0.28400  0.56528  0.78389  1.0000 -0.0942844152
C   C7        1.0  0.21653  0.42718  0.28305  1.0000 -0.0942844152
C   C8        1.0  0.71607  0.92774  0.78188  1.0000 -0.0942844152
C   C9        1.0  0.78453  0.42846  0.28316  1.0000 -0.0942844152
C   C10       1.0  0.28392  0.92859  0.78378  1.0000 -0.0942844152
C   C11       1.0  0.21676  0.06386  0.28278  1.0000 -0.0942844152
C   C12       1.0  0.71580  0.56462  0.78208  1.0000 -0.0942844152
C   C13       1.0  0.21628  0.92831  0.71853  1.0000 -0.0942844152
C   C14       1.0  0.71731  0.42870  0.21729  1.0000 -0.095251786
C   C15       1.0  0.78356  0.56418  0.71696  1.0000 -0.095251786
C   C16       1.0  0.28460  0.06433  0.21787  1.0000 -0.0942844152
C   C17       1.0  0.68240  0.24727  0.18287  1.0000 -0.0322195659
C   C18       1.0  0.61065  0.24714  0.11180  1.0000 0.662501169
C   C19       1.0  0.18111  0.74650  0.68495  1.0000 -0.0322195659
C   C20       1.0  0.10966  0.74595  0.61402  1.0000 0.662501169
C   C21       1.0  0.31984  0.24621  0.18450  1.0000 -0.0322195659
C   C22       1.0  0.39149  0.24649  0.11377  1.0000 0.662501169
C   C23       1.0  0.81895  0.74548  0.68299  1.0000 -0.0322195659
C   C24       1.0  0.89112  0.74508  0.61241  1.0000 0.662501169
C   C25       1.0  0.31892  0.74710  0.81776  1.0000 -0.0322195659
C   C26       1.0  0.39047  0.74704  0.88852  1.0000 0.662501169
C   C27       1.0  0.81947  0.24668  0.31727  1.0000 -0.0322195659
C   C28       1.0  0.89109  0.24608  0.38855  1.0000 0.662501169
C   C29       1.0  0.68084  0.74639  0.81599  1.0000 -0.0322195659
C   C30       1.0  0.60929  0.74659  0.88729  1.0000 0.662501169
C   C31       1.0  0.18174  0.24533  0.31692  1.0000 -0.0322195659
C   C32       1.0  0.11049  0.24486  0.38808  1.0000 0.662501169
O   O1        1.0  0.08062  0.57422  0.58505  1.0000 -0.6094805919
O   O2        1.0  0.58134  0.07542  0.08297  1.0000 -0.6094805919
O   O3        1.0  0.92025  0.91622  0.58289  1.0000 -0.6094805919
O   O4        1.0  0.42024  0.41808  0.08417  1.0000 -0.6094805919
O   O5        1.0  0.92045  0.07429  0.41733  1.0000 -0.6094805919
O   O6        1.0  0.41955  0.57549  0.91758  1.0000 -0.6094805919
O   O7        1.0  0.08166  0.41647  0.41779  1.0000 -0.6094805919
O   O8        1.0  0.58038  0.91824  0.91689  1.0000 -0.6094805919
O   O9        1.0  0.92017  0.41743  0.41820  1.0000 -0.6094805919
O   O10       1.0  0.41953  0.91830  0.91797  1.0000 -0.6094805919
O   O11       1.0  0.08136  0.07312  0.41698  1.0000 -0.6094805919
O   O12       1.0  0.58003  0.57496  0.91643  1.0000 -0.6094805919
O   O13       1.0  0.08094  0.91732  0.58415  1.0000 -0.6094805919
O   O14       1.0  0.58133  0.41850  0.08258  1.0000 -0.6094805919
O   O15       1.0  0.92054  0.57338  0.58370  1.0000 -0.6094805919
O   O16       1.0  0.42062  0.07495  0.08463  1.0000 -0.6094805919
O   O17       1.0  0.00339  0.74456  0.44919  1.0000 -0.9400098346
O   O18       1.0  0.49828  0.24616  0.94921  1.0000 -0.9400098346
O   O19       1.0  0.00294  0.24460  0.55192  1.0000 -0.9400098346
O   O20       1.0  0.49957  0.74618  0.05199  1.0000 -0.9400098346
