# DDEC6 charges by PACMAN v1.1 (https://github.com/mtap-research/PACMAN-charge/)
data_2008[In][dia]3[ASR]5
_chemical_formula_sum              "In4 H16 C48 S8 O32"
_cell_length_a       13.51
_cell_length_b       13.51
_cell_length_c       16.0684
_cell_angle_alpha    90
_cell_angle_beta     90
_cell_angle_gamma    90

_symmetry_space_group_name_H-M    "P 1"
_symmetry_Int_Tables_number       1

loop_
  _symmetry_equiv_pos_as_xyz
  'x, y, z'

loop_
  _atom_site_type_symbol
  _atom_site_label
  _atom_site_symmetry_multiplicity
  _atom_site_fract_x
  _atom_site_fract_y
  _atom_site_fract_z
  _atom_site_occupancy
  _atom_site_charge
In  In1       1.0  0.58169  0.00000  0.25000  1.0000 1.3340596837
In  In2       1.0  0.00000  0.58169  0.50000  1.0000 1.3340596837
In  In3       1.0  0.41831  0.00000  0.75000  1.0000 1.3340596837
In  In4       1.0  0.00000  0.41831  0.00000  1.0000 1.3340596837
H   H1        1.0  0.39480  0.07210  0.99330  1.0000 0.1472208352
H   H2        1.0  0.92790  0.39480  0.24330  1.0000 0.1472208352
H   H3        1.0  0.60520  0.92790  0.49330  1.0000 0.1472208352
H   H4        1.0  0.07210  0.60520  0.74330  1.0000 0.1472208352
H   H5        1.0  0.39480  0.92790  0.50670  1.0000 0.1472208352
H   H6        1.0  0.07210  0.39480  0.75670  1.0000 0.1472208352
H   H7        1.0  0.60520  0.07210  0.00670  1.0000 0.1472208352
H   H8        1.0  0.92790  0.60520  0.25670  1.0000 0.1472208352
H   H9        1.0  0.24940  0.15190  0.93360  1.0000 0.138116194
H   H10       1.0  0.84810  0.24940  0.18360  1.0000 0.138116194
H   H11       1.0  0.75060  0.84810  0.43360  1.0000 0.138116194
H   H12       1.0  0.15190  0.75060  0.68360  1.0000 0.138116194
H   H13       1.0  0.24940  0.84810  0.56640  1.0000 0.138116194
H   H14       1.0  0.15190  0.24940  0.81640  1.0000 0.138116194
H   H15       1.0  0.75060  0.15190  0.06640  1.0000 0.138116194
H   H16       1.0  0.84810  0.75060  0.31640  1.0000 0.138116194
C   C1        1.0  0.36810  0.13710  0.10500  1.0000 -0.0885799992
C   C2        1.0  0.86290  0.36810  0.35500  1.0000 -0.0885799992
C   C3        1.0  0.63190  0.86290  0.60500  1.0000 -0.0885799992
C   C4        1.0  0.13710  0.63190  0.85500  1.0000 -0.0885799992
C   C5        1.0  0.36810  0.86290  0.39500  1.0000 -0.0885799992
C   C6        1.0  0.13710  0.36810  0.64500  1.0000 -0.0885799992
C   C7        1.0  0.63190  0.13710  0.89500  1.0000 -0.0885799992
C   C8        1.0  0.86290  0.63190  0.14500  1.0000 -0.0885799992
C   C9        1.0  0.35400  0.11490  0.02290  1.0000 -0.1023791199
C   C10       1.0  0.88510  0.35400  0.27290  1.0000 -0.1023791199
C   C11       1.0  0.64600  0.88510  0.52290  1.0000 -0.1023791199
C   C12       1.0  0.11490  0.64600  0.77290  1.0000 -0.1023791199
C   C13       1.0  0.35400  0.88510  0.47710  1.0000 -0.1023791199
C   C14       1.0  0.11490  0.35400  0.72710  1.0000 -0.1023791199
C   C15       1.0  0.64600  0.11490  0.97710  1.0000 -0.1023791199
C   C16       1.0  0.88510  0.64600  0.22710  1.0000 -0.1023791199
C   C17       1.0  0.27220  0.16250  0.98750  1.0000 -0.0840409072
C   C18       1.0  0.83750  0.27220  0.23750  1.0000 -0.0840409072
C   C19       1.0  0.72780  0.83750  0.48750  1.0000 -0.0840409072
C   C20       1.0  0.16250  0.72780  0.73750  1.0000 -0.0840409072
C   C21       1.0  0.27220  0.83750  0.51250  1.0000 -0.0840409072
C   C22       1.0  0.16250  0.27220  0.76250  1.0000 -0.0840409072
C   C23       1.0  0.72780  0.16250  0.01250  1.0000 -0.0840409072
C   C24       1.0  0.83750  0.72780  0.26250  1.0000 -0.0840409072
C   C25       1.0  0.23010  0.22750  0.04360  1.0000 -0.1216866094
C   C26       1.0  0.77250  0.23010  0.29360  1.0000 -0.1216866094
C   C27       1.0  0.76990  0.77250  0.54360  1.0000 -0.1216866094
C   C28       1.0  0.22750  0.76990  0.79360  1.0000 -0.1216866094
C   C29       1.0  0.23010  0.77250  0.45640  1.0000 -0.1216866094
C   C30       1.0  0.22750  0.23010  0.70640  1.0000 -0.1216866094
C   C31       1.0  0.76990  0.22750  0.95640  1.0000 -0.1216866094
C   C32       1.0  0.77250  0.76990  0.20640  1.0000 -0.1216866094
C   C33       1.0  0.44750  0.09370  0.16050  1.0000 0.5605747533
C   C34       1.0  0.90630  0.44750  0.41050  1.0000 0.5605747533
C   C35       1.0  0.55250  0.90630  0.66050  1.0000 0.5605747533
C   C36       1.0  0.09370  0.55250  0.91050  1.0000 0.5605747533
C   C37       1.0  0.44750  0.90630  0.33950  1.0000 0.5605747533
C   C38       1.0  0.09370  0.44750  0.58950  1.0000 0.5605747533
C   C39       1.0  0.55250  0.09370  0.83950  1.0000 0.5605747533
C   C40       1.0  0.90630  0.55250  0.08950  1.0000 0.5605747533
C   C41       1.0  0.14680  0.29410  0.02880  1.0000 0.5605747533
C   C42       1.0  0.70590  0.14680  0.27880  1.0000 0.5605747533
C   C43       1.0  0.85320  0.70590  0.52880  1.0000 0.5605747533
C   C44       1.0  0.29410  0.85320  0.77880  1.0000 0.5605747533
C   C45       1.0  0.14680  0.70590  0.47120  1.0000 0.5605747533
C   C46       1.0  0.29410  0.14680  0.72120  1.0000 0.5605747533
C   C47       1.0  0.85320  0.29410  0.97120  1.0000 0.5605747533
C   C48       1.0  0.70590  0.85320  0.22120  1.0000 0.5605747533
S   S1        1.0  0.28620  0.22180  0.13937  1.0000 0.3582410496
S   S2        1.0  0.77820  0.28620  0.38937  1.0000 0.3787108046
S   S3        1.0  0.71380  0.77820  0.63937  1.0000 0.3582410496
S   S4        1.0  0.22180  0.71380  0.88937  1.0000 0.3582410496
S   S5        1.0  0.28620  0.77820  0.36063  1.0000 0.3582410496
S   S6        1.0  0.22180  0.28620  0.61063  1.0000 0.3546079379
S   S7        1.0  0.71380  0.22180  0.86063  1.0000 0.3787108046
S   S8        1.0  0.77820  0.71380  0.11063  1.0000 0.3787108046
O   O1        1.0  0.45550  0.12390  0.23300  1.0000 -0.5117793734
O   O2        1.0  0.87610  0.45550  0.48300  1.0000 -0.5117793734
O   O3        1.0  0.54450  0.87610  0.73300  1.0000 -0.5117793734
O   O4        1.0  0.12390  0.54450  0.98300  1.0000 -0.5117793734
O   O5        1.0  0.45550  0.87610  0.26700  1.0000 -0.5117793734
O   O6        1.0  0.12390  0.45550  0.51700  1.0000 -0.5117793734
O   O7        1.0  0.54450  0.12390  0.76700  1.0000 -0.5117793734
O   O8        1.0  0.87610  0.54450  0.01700  1.0000 -0.5117793734
O   O9        1.0  0.50200  0.02600  0.13240  1.0000 -0.5003698039
O   O10       1.0  0.97400  0.50200  0.38240  1.0000 -0.5003698039
O   O11       1.0  0.49800  0.97400  0.63240  1.0000 -0.5003698039
O   O12       1.0  0.02600  0.49800  0.88240  1.0000 -0.5003698039
O   O13       1.0  0.50200  0.97400  0.36760  1.0000 -0.5003698039
O   O14       1.0  0.02600  0.50200  0.61760  1.0000 -0.5003698039
O   O15       1.0  0.49800  0.02600  0.86760  1.0000 -0.5003698039
O   O16       1.0  0.97400  0.49800  0.11760  1.0000 -0.5003698039
O   O17       1.0  0.10730  0.30080  0.95820  1.0000 -0.5183642599
O   O18       1.0  0.69920  0.10730  0.20820  1.0000 -0.5183642599
O   O19       1.0  0.89270  0.69920  0.45820  1.0000 -0.5183642599
O   O20       1.0  0.30080  0.89270  0.70820  1.0000 -0.5183642599
O   O21       1.0  0.10730  0.69920  0.54180  1.0000 -0.5183642599
O   O22       1.0  0.30080  0.10730  0.79180  1.0000 -0.5183642599
O   O23       1.0  0.89270  0.30080  0.04180  1.0000 -0.5183642599
O   O24       1.0  0.69920  0.89270  0.29180  1.0000 -0.5183642599
O   O25       1.0  0.11460  0.34720  0.08830  1.0000 -0.5117793734
O   O26       1.0  0.65280  0.11460  0.33830  1.0000 -0.5117793734
O   O27       1.0  0.88540  0.65280  0.58830  1.0000 -0.5117793734
O   O28       1.0  0.34720  0.88540  0.83830  1.0000 -0.5117793734
O   O29       1.0  0.11460  0.65280  0.41170  1.0000 -0.5117793734
O   O30       1.0  0.34720  0.11460  0.66170  1.0000 -0.5117793734
O   O31       1.0  0.88540  0.34720  0.91170  1.0000 -0.5117793734
O   O32       1.0  0.65280  0.88540  0.16170  1.0000 -0.5117793734
