# DDEC6 charges by PACMAN v1.1 (https://github.com/mtap-research/PACMAN-charge/)
data_2008[Co][scu]3[ASR]1
_chemical_formula_sum              "Co10 H36 C68 O36"
_cell_length_a       9.9387
_cell_length_b       8.4653
_cell_length_c       26.9195
_cell_angle_alpha    90
_cell_angle_beta     111.105
_cell_angle_gamma    90

_symmetry_space_group_name_H-M    "P 1"
_symmetry_Int_Tables_number       1

loop_
  _symmetry_equiv_pos_as_xyz
  'x, y, z'

loop_
  _atom_site_type_symbol
  _atom_site_label
  _atom_site_symmetry_multiplicity
  _atom_site_fract_x
  _atom_site_fract_y
  _atom_site_fract_z
  _atom_site_occupancy
  _atom_site_charge
Co  Co1       1.0  0.65743  0.32667  0.91237  1.0000 1.0161057204
Co  Co2       1.0  0.34257  0.82667  0.58763  1.0000 1.0161057204
Co  Co3       1.0  0.34257  0.67333  0.08763  1.0000 1.0161057204
Co  Co4       1.0  0.65743  0.17333  0.41237  1.0000 1.0161057204
Co  Co5       1.0  0.58643  0.70410  0.90214  1.0000 0.9594513417
Co  Co6       1.0  0.41357  0.20410  0.59786  1.0000 0.9594513417
Co  Co7       1.0  0.41357  0.29590  0.09786  1.0000 0.9594513417
Co  Co8       1.0  0.58643  0.79590  0.40214  1.0000 0.9594513417
Co  Co9       1.0  0.50000  0.50000  0.00000  1.0000 1.1329725474
Co  Co10      1.0  0.50000  0.00000  0.50000  1.0000 1.1329725474
H   H1        1.0  0.86490  0.99000  0.81370  1.0000 0.1317922689
H   H2        1.0  0.13510  0.49000  0.68630  1.0000 0.1317922689
H   H3        1.0  0.13510  0.01000  0.18630  1.0000 0.1317922689
H   H4        1.0  0.86490  0.51000  0.31370  1.0000 0.1317922689
H   H5        1.0  0.28400  0.03200  0.83110  1.0000 0.1397825361
H   H6        1.0  0.71600  0.53200  0.66890  1.0000 0.1397825361
H   H7        1.0  0.71600  0.96800  0.16890  1.0000 0.1397825361
H   H8        1.0  0.28400  0.46800  0.33110  1.0000 0.1397825361
H   H9        1.0  0.12720  0.27410  0.92700  1.0000 0.1317922689
H   H10       1.0  0.87280  0.77410  0.57300  1.0000 0.1317922689
H   H11       1.0  0.87280  0.72590  0.07300  1.0000 0.1317922689
H   H12       1.0  0.12720  0.22590  0.42700  1.0000 0.1317922689
H   H13       1.0  0.97170  0.80030  0.76860  1.0000 0.1317922689
H   H14       1.0  0.02830  0.30030  0.73140  1.0000 0.1317922689
H   H15       1.0  0.02830  0.19970  0.23140  1.0000 0.1317922689
H   H16       1.0  0.97170  0.69970  0.26860  1.0000 0.1317922689
H   H17       1.0  0.13780  0.80420  0.77910  1.0000 0.1317922689
H   H18       1.0  0.86220  0.30420  0.72090  1.0000 0.1317922689
H   H19       1.0  0.86220  0.19580  0.22090  1.0000 0.1317922689
H   H20       1.0  0.13780  0.69580  0.27910  1.0000 0.1317922689
H   H21       1.0  0.81080  0.98070  0.70160  1.0000 0.1317922689
H   H22       1.0  0.18920  0.48070  0.79840  1.0000 0.1317922689
H   H23       1.0  0.18920  0.01930  0.29840  1.0000 0.1317922689
H   H24       1.0  0.81080  0.51930  0.20160  1.0000 0.1317922689
H   H25       1.0  0.94240  0.15720  0.58890  1.0000 0.1397825361
H   H26       1.0  0.05760  0.65720  0.91110  1.0000 0.1397825361
H   H27       1.0  0.05760  0.84280  0.41110  1.0000 0.1397825361
H   H28       1.0  0.94240  0.34280  0.08890  1.0000 0.1397825361
H   H29       1.0  0.22710  0.94940  0.71840  1.0000 0.1397825361
H   H30       1.0  0.77290  0.44940  0.78160  1.0000 0.1397825361
H   H31       1.0  0.77290  0.05060  0.28160  1.0000 0.1397825361
H   H32       1.0  0.22710  0.55060  0.21840  1.0000 0.1397825361
H   H33       1.0  0.73440  0.53510  0.98310  1.0000 0.4141512901
H   H34       1.0  0.26560  0.03510  0.51690  1.0000 0.4141512901
H   H35       1.0  0.26560  0.46490  0.01690  1.0000 0.4141512901
H   H36       1.0  0.73440  0.96490  0.48310  1.0000 0.4141512901
C   C1        1.0  0.97880  0.13850  0.87250  1.0000 0.0060297053
C   C2        1.0  0.02120  0.63850  0.62750  1.0000 0.0060297053
C   C3        1.0  0.02120  0.86150  0.12750  1.0000 0.0060297053
C   C4        1.0  0.97880  0.36150  0.37250  1.0000 0.0060297053
C   C5        1.0  0.95600  0.03260  0.83120  1.0000 -0.1625081558
C   C6        1.0  0.04400  0.53260  0.66880  1.0000 -0.1625081558
C   C7        1.0  0.04400  0.96740  0.16880  1.0000 -0.1625081558
C   C8        1.0  0.95600  0.46740  0.33120  1.0000 -0.1625081558
C   C9        1.0  0.07434  0.98950  0.81594  1.0000 0.1397825361
C   C10       1.0  0.92566  0.48950  0.68406  1.0000 0.1397825361
C   C11       1.0  0.92566  0.01050  0.18406  1.0000 0.1397825361
C   C12       1.0  0.07434  0.51050  0.31594  1.0000 0.1397825361
C   C13       1.0  0.20729  0.05670  0.84179  1.0000 -0.1761470943
C   C14       1.0  0.79271  0.55670  0.65821  1.0000 -0.1684293011
C   C15       1.0  0.79271  0.94330  0.15821  1.0000 -0.1684293011
C   C16       1.0  0.20729  0.44330  0.34179  1.0000 -0.1684293011
C   C17       1.0  0.22801  0.16300  0.88451  1.0000 -0.0041079299
C   C18       1.0  0.77199  0.66300  0.61549  1.0000 -0.0041079299
C   C19       1.0  0.77199  0.83700  0.11549  1.0000 -0.0041079299
C   C20       1.0  0.22801  0.33700  0.38451  1.0000 -0.0041079299
C   C21       1.0  0.11401  0.20340  0.89921  1.0000 -0.1285676838
C   C22       1.0  0.88599  0.70340  0.60079  1.0000 -0.1285676838
C   C23       1.0  0.88599  0.79660  0.10079  1.0000 -0.1285676838
C   C24       1.0  0.11401  0.29660  0.39921  1.0000 -0.1285676838
C   C25       1.0  0.85080  0.19490  0.88590  1.0000 0.5508120597
C   C26       1.0  0.14920  0.69490  0.61410  1.0000 0.5508120597
C   C27       1.0  0.14920  0.80510  0.11410  1.0000 0.5508120597
C   C28       1.0  0.85080  0.30510  0.38590  1.0000 0.5508120597
C   C29       1.0  0.37150  0.24390  0.91050  1.0000 0.5886724383
C   C30       1.0  0.62850  0.74390  0.58950  1.0000 0.5886724383
C   C31       1.0  0.62850  0.75610  0.08950  1.0000 0.5886724383
C   C32       1.0  0.37150  0.25610  0.41050  1.0000 0.5886724383
C   C33       1.0  0.05210  0.86900  0.77120  1.0000 -0.3354410142
C   C34       1.0  0.94790  0.36900  0.72880  1.0000 -0.3354410142
C   C35       1.0  0.94790  0.13100  0.22880  1.0000 -0.3354410142
C   C36       1.0  0.05210  0.63100  0.27120  1.0000 -0.3354410142
C   C37       1.0  0.02247  0.95390  0.71947  1.0000 0.1397825361
C   C38       1.0  0.97753  0.45390  0.78053  1.0000 0.1397825361
C   C39       1.0  0.97753  0.04610  0.28053  1.0000 0.1397825361
C   C40       1.0  0.02247  0.54610  0.21947  1.0000 0.1397825361
C   C41       1.0  0.88510  0.99930  0.68900  1.0000 -0.1625081558
C   C42       1.0  0.11490  0.49930  0.81100  1.0000 -0.1684293011
C   C43       1.0  0.11490  0.00070  0.31100  1.0000 -0.1684293011
C   C44       1.0  0.88510  0.50070  0.18900  1.0000 -0.1625081558
C   C45       1.0  0.85330  0.07340  0.63930  1.0000 -0.0194555655
C   C46       1.0  0.14670  0.57340  0.86070  1.0000 -0.0194555655
C   C47       1.0  0.14670  0.92660  0.36070  1.0000 -0.0194555655
C   C48       1.0  0.85330  0.42660  0.13930  1.0000 -0.0194555655
C   C49       1.0  0.96231  0.10590  0.62131  1.0000 -0.1285676838
C   C50       1.0  0.03769  0.60590  0.87869  1.0000 -0.1285676838
C   C51       1.0  0.03769  0.89410  0.37869  1.0000 -0.1285676838
C   C52       1.0  0.96231  0.39410  0.12131  1.0000 -0.1285676838
C   C53       1.0  0.10337  0.06230  0.65147  1.0000 0.0060297053
C   C54       1.0  0.89663  0.56230  0.84853  1.0000 0.0060297053
C   C55       1.0  0.89663  0.93770  0.34853  1.0000 0.0060297053
C   C56       1.0  0.10337  0.43770  0.15147  1.0000 0.0060297053
C   C57       1.0  0.13360  0.98320  0.69940  1.0000 -0.1684293011
C   C58       1.0  0.86640  0.48320  0.80060  1.0000 -0.1684293011
C   C59       1.0  0.86640  0.01680  0.30060  1.0000 -0.1684293011
C   C60       1.0  0.13360  0.51680  0.19940  1.0000 -0.1684293011
C   C61       1.0  0.70010  0.11670  0.60740  1.0000 0.5886724383
C   C62       1.0  0.29990  0.61670  0.89260  1.0000 0.5886724383
C   C63       1.0  0.29990  0.88330  0.39260  1.0000 0.5886724383
C   C64       1.0  0.70010  0.38330  0.10740  1.0000 0.5886724383
C   C65       1.0  0.22292  0.10020  0.63202  1.0000 0.5626414508
C   C66       1.0  0.77708  0.60020  0.86798  1.0000 0.5626414508
C   C67       1.0  0.77708  0.89980  0.36798  1.0000 0.5626414508
C   C68       1.0  0.22292  0.39980  0.13202  1.0000 0.5626414508
O   O1        1.0  0.63776  0.51380  0.95716  1.0000 -0.9213019222
O   O2        1.0  0.36224  0.01380  0.54284  1.0000 -0.9213019222
O   O3        1.0  0.36224  0.48620  0.04284  1.0000 -0.9213019222
O   O4        1.0  0.63776  0.98620  0.45716  1.0000 -0.9213019222
O   O5        1.0  0.72326  0.15090  0.86076  1.0000 -0.543733954
O   O6        1.0  0.27674  0.65090  0.63924  1.0000 -0.543733954
O   O7        1.0  0.27674  0.84910  0.13924  1.0000 -0.543733954
O   O8        1.0  0.72326  0.34910  0.36076  1.0000 -0.543733954
O   O9        1.0  0.87314  0.29570  0.92394  1.0000 -0.5728676826
O   O10       1.0  0.12686  0.79570  0.57606  1.0000 -0.5728676826
O   O11       1.0  0.12686  0.70430  0.07606  1.0000 -0.5728676826
O   O12       1.0  0.87314  0.20430  0.42394  1.0000 -0.5728676826
O   O13       1.0  0.39974  0.29250  0.95684  1.0000 -0.5728676826
O   O14       1.0  0.60026  0.79250  0.54316  1.0000 -0.5728676826
O   O15       1.0  0.60026  0.70750  0.04316  1.0000 -0.5728676826
O   O16       1.0  0.39974  0.20750  0.45684  1.0000 -0.5728676826
O   O17       1.0  0.44967  0.25700  0.88297  1.0000 -0.543733954
O   O18       1.0  0.55033  0.75700  0.61703  1.0000 -0.543733954
O   O19       1.0  0.55033  0.74300  0.11703  1.0000 -0.5451043754
O   O20       1.0  0.44967  0.24300  0.38297  1.0000 -0.543733954
O   O21       1.0  0.61611  0.13540  0.63211  1.0000 -0.5298297017
O   O22       1.0  0.38389  0.63540  0.86789  1.0000 -0.5298297017
O   O23       1.0  0.38389  0.86460  0.36789  1.0000 -0.5298297017
O   O24       1.0  0.61611  0.36460  0.13211  1.0000 -0.5298297017
O   O25       1.0  0.66298  0.13260  0.55718  1.0000 -0.5824743867
O   O26       1.0  0.33702  0.63260  0.94282  1.0000 -0.5824743867
O   O27       1.0  0.33702  0.86740  0.44282  1.0000 -0.5824743867
O   O28       1.0  0.66298  0.36740  0.05718  1.0000 -0.5824743867
O   O29       1.0  0.20950  0.21570  0.60200  1.0000 -0.5093710482
O   O30       1.0  0.79050  0.71570  0.89800  1.0000 -0.5093710482
O   O31       1.0  0.79050  0.78430  0.39800  1.0000 -0.5093710482
O   O32       1.0  0.20950  0.28430  0.10200  1.0000 -0.5093710482
O   O33       1.0  0.33596  0.01830  0.64536  1.0000 -0.5574986994
O   O34       1.0  0.66404  0.51830  0.85464  1.0000 -0.5574986994
O   O35       1.0  0.66404  0.98170  0.35464  1.0000 -0.5574986994
O   O36       1.0  0.33596  0.48170  0.14536  1.0000 -0.5574986994
