# DDEC6 charges by PACMAN v1.1 (https://github.com/mtap-research/PACMAN-charge/)
data_2008[Ce][nan]3[ASR]2
_chemical_formula_sum              "Ce4 H48 C48 N12 O36"
_cell_length_a       7.868
_cell_length_b       22.3
_cell_length_c       11.132
_cell_angle_alpha    90
_cell_angle_beta     99.158
_cell_angle_gamma    90

_symmetry_space_group_name_H-M    "P 1"
_symmetry_Int_Tables_number       1

loop_
  _symmetry_equiv_pos_as_xyz
  'x, y, z'

loop_
  _atom_site_type_symbol
  _atom_site_label
  _atom_site_symmetry_multiplicity
  _atom_site_fract_x
  _atom_site_fract_y
  _atom_site_fract_z
  _atom_site_occupancy
  _atom_site_charge
Ce  Ce1       1.0  0.37958  0.72064  0.72337  1.0000 1.9001523056
Ce  Ce2       1.0  0.12042  0.22064  0.27663  1.0000 1.9001523056
Ce  Ce3       1.0  0.62042  0.27936  0.27663  1.0000 1.9001523056
Ce  Ce4       1.0  0.87958  0.77936  0.72337  1.0000 1.9001523056
H   H1        1.0  0.23670  0.69200  0.19920  1.0000 0.1172468064
H   H2        1.0  0.26330  0.19200  0.80080  1.0000 0.1172468064
H   H3        1.0  0.76330  0.30800  0.80080  1.0000 0.1172468064
H   H4        1.0  0.73670  0.80800  0.19920  1.0000 0.1172468064
H   H5        1.0  0.26210  0.63740  0.11500  1.0000 0.1112824017
H   H6        1.0  0.23790  0.13740  0.88500  1.0000 0.1112824017
H   H7        1.0  0.73790  0.36260  0.88500  1.0000 0.1112824017
H   H8        1.0  0.76210  0.86260  0.11500  1.0000 0.1172468064
H   H9        1.0  0.99370  0.67610  0.99120  1.0000 0.1514475011
H   H10       1.0  0.50630  0.17610  0.00880  1.0000 0.1514475011
H   H11       1.0  0.00630  0.32390  0.00880  1.0000 0.1514475011
H   H12       1.0  0.49370  0.82390  0.99120  1.0000 0.1514475011
H   H13       1.0  0.04830  0.73630  0.05870  1.0000 0.1514475011
H   H14       1.0  0.45170  0.23630  0.94130  1.0000 0.1514475011
H   H15       1.0  0.95170  0.26370  0.94130  1.0000 0.1514475011
H   H16       1.0  0.54830  0.76370  0.05870  1.0000 0.1514475011
H   H17       1.0  0.78360  0.46180  0.21730  1.0000 0.1172468064
H   H18       1.0  0.71640  0.96180  0.78270  1.0000 0.1172468064
H   H19       1.0  0.21640  0.53820  0.78270  1.0000 0.1172468064
H   H20       1.0  0.28360  0.03820  0.21730  1.0000 0.1172468064
H   H21       1.0  0.91040  0.46530  0.12200  1.0000 0.1112824017
H   H22       1.0  0.58960  0.96530  0.87800  1.0000 0.1112824017
H   H23       1.0  0.08960  0.53470  0.87800  1.0000 0.1112824017
H   H24       1.0  0.41040  0.03470  0.12200  1.0000 0.1112824017
H   H25       1.0  0.03570  0.45120  0.37300  1.0000 0.1514475011
H   H26       1.0  0.46430  0.95120  0.62700  1.0000 0.1514475011
H   H27       1.0  0.96430  0.54880  0.62700  1.0000 0.1514475011
H   H28       1.0  0.53570  0.04880  0.37300  1.0000 0.1514475011
H   H29       1.0  0.14300  0.44220  0.26690  1.0000 0.1551253744
H   H30       1.0  0.35700  0.94220  0.73310  1.0000 0.1514475011
H   H31       1.0  0.85700  0.55780  0.73310  1.0000 0.1514475011
H   H32       1.0  0.64300  0.05780  0.26690  1.0000 0.1514475011
H   H33       1.0  0.88200  0.68640  0.48130  1.0000 0.1112824017
H   H34       1.0  0.61800  0.18640  0.51870  1.0000 0.1112824017
H   H35       1.0  0.11800  0.31360  0.51870  1.0000 0.1112824017
H   H36       1.0  0.38200  0.81360  0.48130  1.0000 0.1112824017
H   H37       1.0  0.80100  0.62500  0.51070  1.0000 0.102809383
H   H38       1.0  0.69900  0.12500  0.48930  1.0000 0.102809383
H   H39       1.0  0.19900  0.37500  0.48930  1.0000 0.102809383
H   H40       1.0  0.30100  0.87500  0.51070  1.0000 0.102809383
H   H41       1.0  0.57460  0.64660  0.36400  1.0000 0.1514475011
H   H42       1.0  0.92540  0.14660  0.63600  1.0000 0.1514475011
H   H43       1.0  0.42540  0.35340  0.63600  1.0000 0.1514475011
H   H44       1.0  0.07460  0.85340  0.36400  1.0000 0.1514475011
H   H45       1.0  0.65350  0.71060  0.35530  1.0000 0.1551253744
H   H46       1.0  0.84650  0.21060  0.64470  1.0000 0.1551253744
H   H47       1.0  0.34650  0.28940  0.64470  1.0000 0.1551253744
H   H48       1.0  0.15350  0.78940  0.35530  1.0000 0.1551253744
C   C1        1.0  0.03640  0.56890  0.17230  1.0000 0.535555432
C   C2        1.0  0.46360  0.06890  0.82770  1.0000 0.535555432
C   C3        1.0  0.96360  0.43110  0.82770  1.0000 0.535555432
C   C4        1.0  0.53640  0.93110  0.17230  1.0000 0.535555432
C   C5        1.0  0.84270  0.56380  0.31810  1.0000 0.5301799126
C   C6        1.0  0.65730  0.06380  0.68190  1.0000 0.5301799126
C   C7        1.0  0.15730  0.43620  0.68190  1.0000 0.5301799126
C   C8        1.0  0.34270  0.93620  0.31810  1.0000 0.5301799126
C   C9        1.0  0.95700  0.65980  0.26740  1.0000 0.5301799126
C   C10       1.0  0.54300  0.15980  0.73260  1.0000 0.5301799126
C   C11       1.0  0.04300  0.34020  0.73260  1.0000 0.5301799126
C   C12       1.0  0.45700  0.84020  0.26740  1.0000 0.5301799126
C   C13       1.0  0.17710  0.66430  0.13970  1.0000 -0.0143701598
C   C14       1.0  0.32290  0.16430  0.86030  1.0000 -0.0143701598
C   C15       1.0  0.82290  0.33570  0.86030  1.0000 -0.0143701598
C   C16       1.0  0.67710  0.83570  0.13970  1.0000 -0.0143701598
C   C17       1.0  0.09170  0.69890  0.03090  1.0000 -0.3541849903
C   C18       1.0  0.40830  0.19890  0.96910  1.0000 -0.3541849903
C   C19       1.0  0.90830  0.30110  0.96910  1.0000 -0.3541849903
C   C20       1.0  0.59170  0.80110  0.03090  1.0000 -0.3541849903
C   C21       1.0  0.20660  0.71290  0.93900  1.0000 0.6628985651
C   C22       1.0  0.29340  0.21290  0.06100  1.0000 0.6628985651
C   C23       1.0  0.79340  0.28710  0.06100  1.0000 0.6628985651
C   C24       1.0  0.70660  0.78710  0.93900  1.0000 0.6628985651
C   C25       1.0  0.89860  0.47360  0.20590  1.0000 -0.029538821
C   C26       1.0  0.60140  0.97360  0.79410  1.0000 -0.029538821
C   C27       1.0  0.10140  0.52640  0.79410  1.0000 -0.029538821
C   C28       1.0  0.39860  0.02640  0.20590  1.0000 -0.029538821
C   C29       1.0  0.03020  0.43690  0.29020  1.0000 -0.3579948894
C   C30       1.0  0.46980  0.93690  0.70980  1.0000 -0.3579948894
C   C31       1.0  0.96980  0.56310  0.70980  1.0000 -0.3579948894
C   C32       1.0  0.53020  0.06310  0.29020  1.0000 -0.3579948894
C   C33       1.0  0.98360  0.37110  0.28450  1.0000 0.6785635449
C   C34       1.0  0.51640  0.87110  0.71550  1.0000 0.6785635449
C   C35       1.0  0.01640  0.62890  0.71550  1.0000 0.6785635449
C   C36       1.0  0.48360  0.12890  0.28450  1.0000 0.6785635449
C   C37       1.0  0.80630  0.65430  0.44700  1.0000 -0.0368147842
C   C38       1.0  0.69370  0.15430  0.55300  1.0000 -0.0368147842
C   C39       1.0  0.19370  0.34570  0.55300  1.0000 -0.0368147842
C   C40       1.0  0.30630  0.84570  0.44700  1.0000 -0.0368147842
C   C41       1.0  0.64400  0.67730  0.41010  1.0000 -0.3209668003
C   C42       1.0  0.85600  0.17730  0.58990  1.0000 -0.3209668003
C   C43       1.0  0.35600  0.32270  0.58990  1.0000 -0.3209668003
C   C44       1.0  0.14400  0.82270  0.41010  1.0000 -0.3209668003
C   C45       1.0  0.55090  0.69880  0.50970  1.0000 0.6628985651
C   C46       1.0  0.94910  0.19880  0.49030  1.0000 0.6628985651
C   C47       1.0  0.44910  0.30120  0.49030  1.0000 0.6628985651
C   C48       1.0  0.05090  0.80120  0.50970  1.0000 0.6628985651
N   N1        1.0  0.05330  0.62950  0.19590  1.0000 -0.2504800778
N   N2        1.0  0.44670  0.12950  0.80410  1.0000 -0.2504800778
N   N3        1.0  0.94670  0.37050  0.80410  1.0000 -0.2504800778
N   N4        1.0  0.55330  0.87050  0.19590  1.0000 -0.2504800778
N   N5        1.0  0.92120  0.53830  0.22950  1.0000 -0.2414076752
N   N6        1.0  0.57880  0.03830  0.77050  1.0000 -0.2414076752
N   N7        1.0  0.07880  0.46170  0.77050  1.0000 -0.2414076752
N   N8        1.0  0.42120  0.96170  0.22950  1.0000 -0.2414076752
N   N9        1.0  0.88160  0.62500  0.34540  1.0000 -0.2504800778
N   N10       1.0  0.61840  0.12500  0.65460  1.0000 -0.2504800778
N   N11       1.0  0.11840  0.37500  0.65460  1.0000 -0.2504800778
N   N12       1.0  0.38160  0.87500  0.34540  1.0000 -0.2504800778
O   O1        1.0  0.76150  0.53400  0.38050  1.0000 -0.4695942081
O   O2        1.0  0.73850  0.03400  0.61950  1.0000 -0.4695942081
O   O3        1.0  0.23850  0.46600  0.61950  1.0000 -0.4695942081
O   O4        1.0  0.26150  0.96600  0.38050  1.0000 -0.4695942081
O   O5        1.0  0.96000  0.71380  0.27660  1.0000 -0.4695942081
O   O6        1.0  0.54000  0.21380  0.72340  1.0000 -0.4695942081
O   O7        1.0  0.04000  0.28620  0.72340  1.0000 -0.4695942081
O   O8        1.0  0.46000  0.78620  0.27660  1.0000 -0.4695942081
O   O9        1.0  0.11950  0.54350  0.10500  1.0000 -0.4585591159
O   O10       1.0  0.38050  0.04350  0.89500  1.0000 -0.4585591159
O   O11       1.0  0.88050  0.45650  0.89500  1.0000 -0.4585591159
O   O12       1.0  0.61950  0.95650  0.10500  1.0000 -0.4585591159
O   O13       1.0  0.34530  0.68550  0.93940  1.0000 -0.5747668646
O   O14       1.0  0.15470  0.18550  0.06060  1.0000 -0.5747668646
O   O15       1.0  0.65470  0.31450  0.06060  1.0000 -0.5747668646
O   O16       1.0  0.84530  0.81450  0.93940  1.0000 -0.5747668646
O   O17       1.0  0.15510  0.75210  0.85670  1.0000 -0.7154242895
O   O18       1.0  0.34490  0.25210  0.14330  1.0000 -0.7148755692
O   O19       1.0  0.84490  0.24790  0.14330  1.0000 -0.7148755692
O   O20       1.0  0.65510  0.74790  0.85670  1.0000 -0.7148755692
O   O21       1.0  0.09920  0.33434  0.26660  1.0000 -0.6478286884
O   O22       1.0  0.40080  0.83434  0.73340  1.0000 -0.6478286884
O   O23       1.0  0.90080  0.66566  0.73340  1.0000 -0.6478286884
O   O24       1.0  0.59920  0.16566  0.26660  1.0000 -0.6478286884
O   O25       1.0  0.83420  0.35750  0.30140  1.0000 -0.6428242229
O   O26       1.0  0.66580  0.85750  0.69860  1.0000 -0.6428242229
O   O27       1.0  0.16580  0.64250  0.69860  1.0000 -0.6428242229
O   O28       1.0  0.33420  0.14250  0.30140  1.0000 -0.6428242229
O   O29       1.0  0.62270  0.73390  0.59350  1.0000 -0.700000038
O   O30       1.0  0.87730  0.23390  0.40650  1.0000 -0.700000038
O   O31       1.0  0.37730  0.26610  0.40650  1.0000 -0.700000038
O   O32       1.0  0.12270  0.76610  0.59350  1.0000 -0.700000038
O   O33       1.0  0.40130  0.68210  0.50890  1.0000 -0.5519335173
O   O34       1.0  0.09870  0.18210  0.49110  1.0000 -0.5519335173
O   O35       1.0  0.59870  0.31790  0.49110  1.0000 -0.5519335173
O   O36       1.0  0.90130  0.81790  0.50890  1.0000 -0.5519335173
