# DDEC6 charges by PACMAN v1.1 (https://github.com/mtap-research/PACMAN-charge/)
data_2008[Sm][nan]3[ASR]1
_chemical_formula_sum              "Sm2 H24 C42 O12"
_cell_length_a       15.14
_cell_length_b       15.14
_cell_length_c       14.166
_cell_angle_alpha    64.9073
_cell_angle_beta     115.093
_cell_angle_gamma    146.654

_symmetry_space_group_name_H-M    "P 1"
_symmetry_Int_Tables_number       1

loop_
  _symmetry_equiv_pos_as_xyz
  'x, y, z'

loop_
  _atom_site_type_symbol
  _atom_site_label
  _atom_site_symmetry_multiplicity
  _atom_site_fract_x
  _atom_site_fract_y
  _atom_site_fract_z
  _atom_site_occupancy
  _atom_site_charge
Sm  Sm1       1.0  0.04066  0.49498  0.00549  1.0000 2.1239733892
Sm  Sm2       1.0  0.49498  0.04066  0.99451  1.0000 2.1239733892
H   H1        1.0  0.22990  0.55930  0.80220  1.0000 0.1199447387
H   H2        1.0  0.55930  0.22990  0.19780  1.0000 0.1199447387
H   H3        1.0  0.23200  0.54680  0.64510  1.0000 0.1078587972
H   H4        1.0  0.54680  0.23200  0.35490  1.0000 0.1078587972
H   H5        1.0  0.55390  0.02030  0.55870  1.0000 0.1078587972
H   H6        1.0  0.02030  0.55390  0.44130  1.0000 0.1078587972
H   H7        1.0  0.55590  0.03510  0.71680  1.0000 0.1078587972
H   H8        1.0  0.03510  0.55590  0.28320  1.0000 0.1078587972
H   H9        1.0  0.32560  0.58120  0.53040  1.0000 0.1078587972
H   H10       1.0  0.58120  0.32560  0.46960  1.0000 0.1078587972
H   H11       1.0  0.27570  0.53810  0.36350  1.0000 0.1199447387
H   H12       1.0  0.53810  0.27570  0.63650  1.0000 0.1199447387
H   H13       1.0  0.42040  0.93260  0.23550  1.0000 0.1078587972
H   H14       1.0  0.93260  0.42040  0.76450  1.0000 0.1078587972
H   H15       1.0  0.44210  0.95850  0.39660  1.0000 0.1078587972
H   H16       1.0  0.95850  0.44210  0.60340  1.0000 0.1078587972
H   H17       1.0  0.82520  0.60260  0.71840  1.0000 0.1199447387
H   H18       1.0  0.60260  0.82520  0.28160  1.0000 0.1199447387
H   H19       1.0  0.74610  0.67610  0.56660  1.0000 0.1078587972
H   H20       1.0  0.67610  0.74610  0.43340  1.0000 0.1078587972
H   H21       1.0  0.19580  0.13600  0.57210  1.0000 0.1078587972
H   H22       1.0  0.13600  0.19580  0.42790  1.0000 0.1078587972
H   H23       1.0  0.27400  0.06400  0.72560  1.0000 0.1323161546
H   H24       1.0  0.06400  0.27400  0.27440  1.0000 0.1323161546
C   C1        1.0  0.37510  0.80210  0.87100  1.0000 0.6520733583
C   C2        1.0  0.80210  0.37510  0.12900  1.0000 0.6520733583
C   C3        1.0  0.38350  0.79470  0.77280  1.0000 -0.039463506
C   C4        1.0  0.79470  0.38350  0.22720  1.0000 -0.039463506
C   C5        1.0  0.29310  0.65210  0.75300  1.0000 -0.0997092211
C   C6        1.0  0.65210  0.29310  0.24700  1.0000 -0.0997092211
C   C7        1.0  0.29520  0.64500  0.65800  1.0000 -0.1669048768
C   C8        1.0  0.64500  0.29520  0.34200  1.0000 -0.1669048768
C   C9        1.0  0.39010  0.78210  0.58320  1.0000 0.0714916908
C   C10       1.0  0.78210  0.39010  0.41680  1.0000 0.0714916908
C   C11       1.0  0.48700  0.92660  0.60660  1.0000 -0.1598695767
C   C12       1.0  0.92660  0.48700  0.39340  1.0000 -0.1598695767
C   C13       1.0  0.48710  0.93570  0.70150  1.0000 -0.0871887905
C   C14       1.0  0.93570  0.48710  0.29850  1.0000 -0.0871887905
C   C15       1.0  0.38250  0.76970  0.47900  1.0000 0.0714916908
C   C16       1.0  0.76970  0.38250  0.52100  1.0000 0.0714916908
C   C17       1.0  0.33770  0.64750  0.47030  1.0000 -0.1598695767
C   C18       1.0  0.64750  0.33770  0.52970  1.0000 -0.1598695767
C   C19       1.0  0.31050  0.62310  0.37000  1.0000 -0.1056970012
C   C20       1.0  0.62310  0.31050  0.63000  1.0000 -0.1056970012
C   C21       1.0  0.33680  0.72820  0.28190  1.0000 -0.0178115292
C   C22       1.0  0.72820  0.33680  0.71810  1.0000 -0.0178115292
C   C23       1.0  0.39350  0.85690  0.29390  1.0000 -0.0997092211
C   C24       1.0  0.85690  0.39350  0.70610  1.0000 -0.0997092211
C   C25       1.0  0.41140  0.87620  0.39100  1.0000 -0.1506950286
C   C26       1.0  0.87620  0.41140  0.60900  1.0000 -0.1506950286
C   C27       1.0  0.28740  0.68760  0.17360  1.0000 0.5990485149
C   C28       1.0  0.68760  0.28740  0.82640  1.0000 0.5990485149
C   C29       1.0  0.11110  0.77810  0.83520  1.0000 0.6520733583
C   C30       1.0  0.77810  0.11110  0.16480  1.0000 0.6520733583
C   C31       1.0  0.05930  0.82490  0.73500  1.0000 -0.0304896756
C   C32       1.0  0.82490  0.05930  0.26500  1.0000 -0.0304896756
C   C33       1.0  0.90170  0.71110  0.68860  1.0000 -0.0997092211
C   C34       1.0  0.71110  0.90170  0.31140  1.0000 -0.0997092211
C   C35       1.0  0.85420  0.75560  0.59700  1.0000 -0.1598695767
C   C36       1.0  0.75560  0.85420  0.40300  1.0000 -0.1598695767
C   C37       1.0  0.96530  0.91710  0.54950  1.0000 0.0714916908
C   C38       1.0  0.91710  0.96530  0.45050  1.0000 0.0714916908
C   C39       1.0  0.11910  0.02690  0.60020  1.0000 -0.1506950286
C   C40       1.0  0.02690  0.11910  0.39980  1.0000 -0.1506950286
C   C41       1.0  0.16750  0.98390  0.69260  1.0000 -0.0997092211
C   C42       1.0  0.98390  0.16750  0.30740  1.0000 -0.0997092211
O   O1        1.0  0.25730  0.67290  0.91640  1.0000 -0.6798390848
O   O2        1.0  0.67290  0.25730  0.08360  1.0000 -0.6798390848
O   O3        1.0  0.48900  0.93640  0.90140  1.0000 -0.6264684898
O   O4        1.0  0.93640  0.48900  0.09860  1.0000 -0.6264684898
O   O5        1.0  0.29160  0.77200  0.09270  1.0000 -0.7478368682
O   O6        1.0  0.77200  0.29160  0.90730  1.0000 -0.7478368682
O   O7        1.0  0.23030  0.56670  0.16910  1.0000 -0.5917680067
O   O8        1.0  0.56670  0.23030  0.83090  1.0000 -0.5917680067
O   O9        1.0  0.00800  0.63060  0.87050  1.0000 -0.6435218554
O   O10       1.0  0.63060  0.00800  0.12950  1.0000 -0.6435218554
O   O11       1.0  0.25470  0.89250  0.87580  1.0000 -0.6798390848
O   O12       1.0  0.89250  0.25470  0.12420  1.0000 -0.6798390848
