# DDEC6 charges by PACMAN v1.1 (https://github.com/mtap-research/PACMAN-charge/)
data_2008[Co][hex]3[ASR]1
_chemical_formula_sum              "Co6 H48 C60 N4 O24"
_cell_length_a       16.5451
_cell_length_b       16.5451
_cell_length_c       18.1739
_cell_angle_alpha    61.4637
_cell_angle_beta     118.536
_cell_angle_gamma    146.873

_symmetry_space_group_name_H-M    "P 1"
_symmetry_Int_Tables_number       1

loop_
  _symmetry_equiv_pos_as_xyz
  'x, y, z'

loop_
  _atom_site_type_symbol
  _atom_site_label
  _atom_site_symmetry_multiplicity
  _atom_site_fract_x
  _atom_site_fract_y
  _atom_site_fract_z
  _atom_site_occupancy
  _atom_site_charge
Co  Co1       1.0  0.06164  0.30908  0.60792  1.0000 0.8399821451
Co  Co2       1.0  0.30908  0.06164  0.89208  1.0000 0.8399821451
Co  Co3       1.0  0.93836  0.69092  0.39208  1.0000 0.8399821451
Co  Co4       1.0  0.69092  0.93836  0.10792  1.0000 0.8399821451
Co  Co5       1.0  0.00000  0.50000  0.50000  1.0000 1.1058463982
Co  Co6       1.0  0.50000  0.00000  0.00000  1.0000 1.1058463982
H   H1        1.0  0.34560  0.55480  0.81790  1.0000 0.1114866839
H   H2        1.0  0.55480  0.34560  0.68210  1.0000 0.1114866839
H   H3        1.0  0.65440  0.44520  0.18210  1.0000 0.1114866839
H   H4        1.0  0.44520  0.65440  0.31790  1.0000 0.1114866839
H   H5        1.0  0.10310  0.59350  0.73350  1.0000 0.1283753297
H   H6        1.0  0.59350  0.10310  0.76650  1.0000 0.1283753297
H   H7        1.0  0.89690  0.40650  0.26650  1.0000 0.1283753297
H   H8        1.0  0.40650  0.89690  0.23350  1.0000 0.1283753297
H   H9        1.0  0.21720  0.69940  0.85150  1.0000 0.1191855417
H   H10       1.0  0.69940  0.21720  0.64850  1.0000 0.1191855417
H   H11       1.0  0.78280  0.30060  0.14850  1.0000 0.1191855417
H   H12       1.0  0.30060  0.78280  0.35150  1.0000 0.1191855417
H   H13       1.0  0.45980  0.66160  0.93580  1.0000 0.1191855417
H   H14       1.0  0.66160  0.45980  0.56420  1.0000 0.1191855417
H   H15       1.0  0.54020  0.33840  0.06420  1.0000 0.1191855417
H   H16       1.0  0.33840  0.54020  0.43580  1.0000 0.1191855417
H   H17       1.0  0.55920  0.93300  0.64130  1.0000 0.1191855417
H   H18       1.0  0.93300  0.55920  0.85870  1.0000 0.1191855417
H   H19       1.0  0.44080  0.06700  0.35870  1.0000 0.1191855417
H   H20       1.0  0.06700  0.44080  0.14130  1.0000 0.1191855417
H   H21       1.0  0.68550  0.20230  0.41320  1.0000 0.1191855417
H   H22       1.0  0.20230  0.68550  0.08680  1.0000 0.1191855417
H   H23       1.0  0.31450  0.79770  0.58680  1.0000 0.1191855417
H   H24       1.0  0.79770  0.31450  0.91320  1.0000 0.1191855417
H   H25       1.0  0.17950  0.22770  0.61020  1.0000 0.1114866839
H   H26       1.0  0.22770  0.17950  0.88980  1.0000 0.1114866839
H   H27       1.0  0.82050  0.77230  0.38980  1.0000 0.1114866839
H   H28       1.0  0.77230  0.82050  0.11020  1.0000 0.1114866839
H   H29       1.0  0.32320  0.39060  0.63690  1.0000 0.1191855417
H   H30       1.0  0.39060  0.32320  0.86310  1.0000 0.1191855417
H   H31       1.0  0.67680  0.60940  0.36310  1.0000 0.1191855417
H   H32       1.0  0.60940  0.67680  0.13690  1.0000 0.1191855417
H   H33       1.0  0.33390  0.41910  0.76200  1.0000 0.1191855417
H   H34       1.0  0.41910  0.33390  0.73800  1.0000 0.1191855417
H   H35       1.0  0.66610  0.58090  0.23800  1.0000 0.1191855417
H   H36       1.0  0.58090  0.66610  0.26200  1.0000 0.1191855417
H   H37       1.0  0.18500  0.29240  0.80100  1.0000 0.1191855417
H   H38       1.0  0.29240  0.18500  0.69900  1.0000 0.1191855417
H   H39       1.0  0.81500  0.70760  0.19900  1.0000 0.1191855417
H   H40       1.0  0.70760  0.81500  0.30100  1.0000 0.1191855417
H   H41       1.0  0.96450  0.04830  0.75630  1.0000 0.1191855417
H   H42       1.0  0.04830  0.96450  0.74370  1.0000 0.1191855417
H   H43       1.0  0.03550  0.95170  0.24370  1.0000 0.1191855417
H   H44       1.0  0.95170  0.03550  0.25630  1.0000 0.1191855417
H   H45       1.0  0.95120  0.02800  0.67180  1.0000 0.1114866839
H   H46       1.0  0.02800  0.95120  0.82820  1.0000 0.1114866839
H   H47       1.0  0.04880  0.97200  0.32820  1.0000 0.1114866839
H   H48       1.0  0.97200  0.04880  0.17180  1.0000 0.1114866839
C   C1        1.0  0.13758  0.49522  0.68660  1.0000 0.5880552164
C   C2        1.0  0.49522  0.13758  0.81340  1.0000 0.5880552164
C   C3        1.0  0.86242  0.50478  0.31340  1.0000 0.5880552164
C   C4        1.0  0.50478  0.86242  0.18660  1.0000 0.5880552164
C   C5        1.0  0.21130  0.56170  0.76421  1.0000 -0.016066653
C   C6        1.0  0.56170  0.21130  0.73579  1.0000 -0.016066653
C   C7        1.0  0.78870  0.43830  0.23579  1.0000 -0.016066653
C   C8        1.0  0.43830  0.78870  0.26421  1.0000 -0.016066653
C   C9        1.0  0.31859  0.58341  0.82470  1.0000 -0.1207560754
C   C10       1.0  0.58341  0.31859  0.67530  1.0000 -0.1207560754
C   C11       1.0  0.68141  0.41659  0.17530  1.0000 -0.1207560754
C   C12       1.0  0.41659  0.68141  0.32470  1.0000 -0.1207560754
C   C13       1.0  0.17511  0.60629  0.77482  1.0000 -0.1003577377
C   C14       1.0  0.60629  0.17511  0.72518  1.0000 -0.1003577377
C   C15       1.0  0.82489  0.39371  0.22518  1.0000 -0.1003577377
C   C16       1.0  0.39371  0.82489  0.27482  1.0000 -0.1003577377
C   C17       1.0  0.42539  0.76361  0.98015  1.0000 0.5957351855
C   C18       1.0  0.76361  0.42539  0.51985  1.0000 0.5957351855
C   C19       1.0  0.57461  0.23639  0.01985  1.0000 0.5957351855
C   C20       1.0  0.23639  0.57461  0.48015  1.0000 0.5957351855
C   C21       1.0  0.34804  0.68876  0.90618  1.0000 -0.0114775644
C   C22       1.0  0.68876  0.34804  0.59382  1.0000 -0.0114775644
C   C23       1.0  0.65196  0.31124  0.09382  1.0000 -0.0114775644
C   C24       1.0  0.31124  0.65196  0.40618  1.0000 -0.0114775644
C   C25       1.0  0.24293  0.66927  0.84516  1.0000 -0.1003577377
C   C26       1.0  0.66927  0.24293  0.65484  1.0000 -0.1003577377
C   C27       1.0  0.75707  0.33073  0.15484  1.0000 -0.1003577377
C   C28       1.0  0.33073  0.75707  0.34516  1.0000 -0.1003577377
C   C29       1.0  0.38636  0.64684  0.89500  1.0000 -0.1108812125
C   C30       1.0  0.64684  0.38636  0.60500  1.0000 -0.1108812125
C   C31       1.0  0.61364  0.35316  0.10500  1.0000 -0.1108812125
C   C32       1.0  0.35316  0.61364  0.39500  1.0000 -0.1108812125
C   C33       1.0  0.80183  0.16877  0.56662  1.0000 0.5662793151
C   C34       1.0  0.16877  0.80183  0.93338  1.0000 0.5662793151
C   C35       1.0  0.19817  0.83123  0.43338  1.0000 0.5662793151
C   C36       1.0  0.83123  0.19817  0.06662  1.0000 0.5662793151
C   C37       1.0  0.64524  0.08096  0.53248  1.0000 -0.0114775644
C   C38       1.0  0.08096  0.64524  0.96752  1.0000 -0.0114775644
C   C39       1.0  0.35476  0.91904  0.46752  1.0000 -0.0114775644
C   C40       1.0  0.91904  0.35476  0.03248  1.0000 -0.0114775644
C   C41       1.0  0.53512  0.96028  0.58404  1.0000 -0.1108812125
C   C42       1.0  0.96028  0.53512  0.91596  1.0000 -0.1108812125
C   C43       1.0  0.46488  0.03972  0.41596  1.0000 -0.1108812125
C   C44       1.0  0.03972  0.46488  0.08404  1.0000 -0.1108812125
C   C45       1.0  0.61032  0.12048  0.44840  1.0000 -0.0909722125
C   C46       1.0  0.12048  0.61032  0.05160  1.0000 -0.0909722125
C   C47       1.0  0.38968  0.87952  0.55160  1.0000 -0.0909722125
C   C48       1.0  0.87952  0.38968  0.94840  1.0000 -0.0909722125
C   C49       1.0  0.24181  0.28179  0.65869  1.0000 -0.1283091226
C   C50       1.0  0.28179  0.24181  0.84131  1.0000 -0.1283091226
C   C51       1.0  0.75819  0.71821  0.34131  1.0000 -0.1283091226
C   C52       1.0  0.71821  0.75819  0.15869  1.0000 -0.1283091226
C   C53       1.0  0.24104  0.30956  0.77618  1.0000 -0.1207560754
C   C54       1.0  0.30956  0.24104  0.72382  1.0000 -0.1207560754
C   C55       1.0  0.75896  0.69044  0.22382  1.0000 -0.1207560754
C   C56       1.0  0.69044  0.75896  0.27618  1.0000 -0.1207560754
C   C57       1.0  0.02037  0.07643  0.72306  1.0000 -0.1283091226
C   C58       1.0  0.07643  0.02037  0.77694  1.0000 -0.1283091226
C   C59       1.0  0.97963  0.92357  0.27694  1.0000 -0.1283091226
C   C60       1.0  0.92357  0.97963  0.22306  1.0000 -0.1283091226
N   N1        1.0  0.14823  0.24177  0.69748  1.0000 -0.1207560754
N   N2        1.0  0.24177  0.14823  0.80252  1.0000 -0.1207560754
N   N3        1.0  0.85177  0.75823  0.30252  1.0000 -0.1207560754
N   N4        1.0  0.75823  0.85177  0.19748  1.0000 -0.1207560754
O   O1        1.0  0.14960  0.42800  0.68935  1.0000 -0.5706905195
O   O2        1.0  0.42800  0.14960  0.81065  1.0000 -0.5706905195
O   O3        1.0  0.85040  0.57200  0.31065  1.0000 -0.5706905195
O   O4        1.0  0.57200  0.85040  0.18935  1.0000 -0.5706905195
O   O5        1.0  0.07162  0.51318  0.62693  1.0000 -0.5547305414
O   O6        1.0  0.51318  0.07162  0.87307  1.0000 -0.5567537615
O   O7        1.0  0.92838  0.48682  0.37307  1.0000 -0.5547305414
O   O8        1.0  0.48682  0.92838  0.12693  1.0000 -0.5567537615
O   O9        1.0  0.39342  0.80876  0.98227  1.0000 -0.5567537615
O   O10       1.0  0.80876  0.39342  0.51773  1.0000 -0.5567537615
O   O11       1.0  0.60658  0.19124  0.01773  1.0000 -0.5567537615
O   O12       1.0  0.19124  0.60658  0.48227  1.0000 -0.5567537615
O   O13       1.0  0.51947  0.77613  0.03408  1.0000 -0.5706905195
O   O14       1.0  0.77613  0.51947  0.46592  1.0000 -0.5706905195
O   O15       1.0  0.48053  0.22387  0.96592  1.0000 -0.5706905195
O   O16       1.0  0.22387  0.48053  0.53408  1.0000 -0.5706905195
O   O17       1.0  0.83090  0.11750  0.63356  1.0000 -0.5404856273
O   O18       1.0  0.11750  0.83090  0.86644  1.0000 -0.5404856273
O   O19       1.0  0.16910  0.88250  0.36644  1.0000 -0.5404856273
O   O20       1.0  0.88250  0.16910  0.13356  1.0000 -0.5404856273
O   O21       1.0  0.90618  0.29578  0.52484  1.0000 -0.5935738304
O   O22       1.0  0.29578  0.90618  0.97516  1.0000 -0.5935738304
O   O23       1.0  0.09382  0.70422  0.47516  1.0000 -0.5935738304
O   O24       1.0  0.70422  0.09382  0.02484  1.0000 -0.5935738304
