# DDEC6 charges by PACMAN v1.1 (https://github.com/mtap-research/PACMAN-charge/)
data_2009[AgHo][nan]3[ASR]1
_chemical_formula_sum              "Ho4 Ag4 H44 C56 N8 O24"
_cell_length_a       16.216
_cell_length_b       14.9024
_cell_length_c       7.9068
_cell_angle_alpha    90
_cell_angle_beta     91.826
_cell_angle_gamma    90

_symmetry_space_group_name_H-M    "P 1"
_symmetry_Int_Tables_number       1

loop_
  _symmetry_equiv_pos_as_xyz
  'x, y, z'

loop_
  _atom_site_type_symbol
  _atom_site_label
  _atom_site_symmetry_multiplicity
  _atom_site_fract_x
  _atom_site_fract_y
  _atom_site_fract_z
  _atom_site_occupancy
  _atom_site_charge
Ho  Ho1       1.0  0.45172  0.38984  0.05043  1.0000 2.1148587119
Ho  Ho2       1.0  0.54828  0.61016  0.94957  1.0000 2.1163235556
Ho  Ho3       1.0  0.54828  0.88984  0.44957  1.0000 2.1163235556
Ho  Ho4       1.0  0.45172  0.11016  0.55043  1.0000 2.1148587119
Ag  Ag1       1.0  0.97382  0.23528  0.09779  1.0000 0.2242869239
Ag  Ag2       1.0  0.02618  0.76472  0.90221  1.0000 0.2242869239
Ag  Ag3       1.0  0.02618  0.73528  0.40221  1.0000 0.2242869239
Ag  Ag4       1.0  0.97382  0.26472  0.59779  1.0000 0.2242869239
H   H1        1.0  0.78035  0.00006  0.33097  1.0000 0.1106375705
H   H2        1.0  0.21965  0.99994  0.66903  1.0000 0.1106375705
H   H3        1.0  0.21965  0.50006  0.16903  1.0000 0.1106375705
H   H4        1.0  0.78035  0.49994  0.83097  1.0000 0.1106375705
H   H5        1.0  0.91140  0.07097  0.23626  1.0000 0.0606687699
H   H6        1.0  0.08860  0.92903  0.76374  1.0000 0.0606687699
H   H7        1.0  0.08860  0.57097  0.26374  1.0000 0.0606687699
H   H8        1.0  0.91140  0.42903  0.73626  1.0000 0.0606687699
H   H9        1.0  0.79477  0.31993  0.16562  1.0000 0.0802504968
H   H10       1.0  0.20523  0.68007  0.83438  1.0000 0.0802504968
H   H11       1.0  0.20523  0.81993  0.33438  1.0000 0.0802504968
H   H12       1.0  0.79477  0.18007  0.66562  1.0000 0.0802504968
H   H13       1.0  0.65974  0.25866  0.26553  1.0000 0.1381465651
H   H14       1.0  0.34026  0.74134  0.73447  1.0000 0.1381465651
H   H15       1.0  0.34026  0.75866  0.23447  1.0000 0.1381465651
H   H16       1.0  0.65974  0.24134  0.76553  1.0000 0.1381465651
H   H17       1.0  0.09890  0.10791  0.98197  1.0000 0.0606687699
H   H18       1.0  0.90110  0.89209  0.01803  1.0000 0.0606687699
H   H19       1.0  0.90110  0.60791  0.51803  1.0000 0.0677084577
H   H20       1.0  0.09890  0.39209  0.48197  1.0000 0.0677084577
H   H21       1.0  0.24061  0.10511  0.86386  1.0000 0.1106375705
H   H22       1.0  0.75939  0.89489  0.13614  1.0000 0.1106375705
H   H23       1.0  0.75939  0.60511  0.63614  1.0000 0.1106375705
H   H24       1.0  0.24061  0.39489  0.36386  1.0000 0.1106375705
H   H25       1.0  0.24337  0.39604  0.89944  1.0000 0.1106375705
H   H26       1.0  0.75663  0.60396  0.10056  1.0000 0.1106375705
H   H27       1.0  0.75663  0.89604  0.60056  1.0000 0.1106375705
H   H28       1.0  0.24337  0.10396  0.39944  1.0000 0.1106375705
H   H29       1.0  0.10029  0.38865  0.00903  1.0000 0.0677084577
H   H30       1.0  0.89971  0.61135  0.99097  1.0000 0.0677084577
H   H31       1.0  0.89971  0.88865  0.49097  1.0000 0.0677084577
H   H32       1.0  0.10029  0.11135  0.50903  1.0000 0.0677084577
H   H33       1.0  0.65528  0.44161  0.49792  1.0000 0.1473959636
H   H34       1.0  0.34472  0.55839  0.50208  1.0000 0.1473959636
H   H35       1.0  0.34472  0.94161  0.00208  1.0000 0.1473959636
H   H36       1.0  0.65528  0.05839  0.99792  1.0000 0.1473959636
H   H37       1.0  0.63274  0.55567  0.43175  1.0000 0.1719093387
H   H38       1.0  0.36726  0.44433  0.56825  1.0000 0.1719093387
H   H39       1.0  0.36726  0.05567  0.06825  1.0000 0.1719093387
H   H40       1.0  0.63274  0.94433  0.93175  1.0000 0.1719093387
H   H41       1.0  0.69754  0.48829  0.30865  1.0000 0.1381465651
H   H42       1.0  0.30246  0.51171  0.69135  1.0000 0.1381465651
H   H43       1.0  0.30246  0.98829  0.19135  1.0000 0.1381465651
H   H44       1.0  0.69754  0.01171  0.80865  1.0000 0.1381465651
C   C1        1.0  0.63248  0.08537  0.36664  1.0000 0.63703763
C   C2        1.0  0.36752  0.91463  0.63336  1.0000 0.63703763
C   C3        1.0  0.36752  0.58537  0.13336  1.0000 0.63703763
C   C4        1.0  0.63248  0.41463  0.86664  1.0000 0.63703763
C   C5        1.0  0.70978  0.12491  0.30627  1.0000 -0.0205697391
C   C6        1.0  0.29022  0.87509  0.69373  1.0000 -0.0205697391
C   C7        1.0  0.29022  0.62491  0.19373  1.0000 -0.0205697391
C   C8        1.0  0.70978  0.37509  0.80627  1.0000 -0.0205697391
C   C9        1.0  0.78180  0.07138  0.29597  1.0000 -0.1482459206
C   C10       1.0  0.21820  0.92862  0.70403  1.0000 -0.1482459206
C   C11       1.0  0.21820  0.57138  0.20403  1.0000 -0.1482459206
C   C12       1.0  0.78180  0.42862  0.79597  1.0000 -0.1482459206
C   C13       1.0  0.85427  0.10987  0.24335  1.0000 0.0345017638
C   C14       1.0  0.14573  0.89013  0.75665  1.0000 0.0345017638
C   C15       1.0  0.14573  0.60987  0.25665  1.0000 0.04057353
C   C16       1.0  0.85427  0.39013  0.74335  1.0000 0.04057353
C   C17       1.0  0.78943  0.24992  0.20506  1.0000 0.0606687699
C   C18       1.0  0.21057  0.75008  0.79494  1.0000 0.0606687699
C   C19       1.0  0.21057  0.74992  0.29494  1.0000 0.0606687699
C   C20       1.0  0.78943  0.25008  0.70506  1.0000 0.0606687699
C   C21       1.0  0.71498  0.21623  0.25991  1.0000 -0.12282147
C   C22       1.0  0.28502  0.78377  0.74009  1.0000 -0.12282147
C   C23       1.0  0.28502  0.71623  0.24009  1.0000 -0.12282147
C   C24       1.0  0.71498  0.28377  0.75991  1.0000 -0.12282147
C   C25       1.0  0.13235  0.17022  0.95760  1.0000 0.04057353
C   C26       1.0  0.86765  0.82978  0.04240  1.0000 0.04057353
C   C27       1.0  0.86765  0.67022  0.54240  1.0000 0.04057353
C   C28       1.0  0.13235  0.32978  0.45760  1.0000 0.04057353
C   C29       1.0  0.21079  0.16911  0.89301  1.0000 -0.1335537482
C   C30       1.0  0.78921  0.83089  0.10699  1.0000 -0.1335537482
C   C31       1.0  0.78921  0.66911  0.60699  1.0000 -0.1335537482
C   C32       1.0  0.21079  0.33089  0.39301  1.0000 -0.1335537482
C   C33       1.0  0.25369  0.25074  0.87029  1.0000 -0.0135446388
C   C34       1.0  0.74631  0.74926  0.12971  1.0000 -0.0135446388
C   C35       1.0  0.74631  0.75074  0.62971  1.0000 -0.0135446388
C   C36       1.0  0.25369  0.24926  0.37029  1.0000 -0.0135446388
C   C37       1.0  0.33841  0.25139  0.80309  1.0000 0.6650128614
C   C38       1.0  0.66159  0.74861  0.19691  1.0000 0.6647849333
C   C39       1.0  0.66159  0.75139  0.69691  1.0000 0.6647849333
C   C40       1.0  0.33841  0.24861  0.30309  1.0000 0.6650128614
C   C41       1.0  0.21270  0.33087  0.91395  1.0000 -0.1335537482
C   C42       1.0  0.78730  0.66913  0.08605  1.0000 -0.1335537482
C   C43       1.0  0.78730  0.83087  0.58605  1.0000 -0.1335537482
C   C44       1.0  0.21270  0.16913  0.41395  1.0000 -0.1335537482
C   C45       1.0  0.13326  0.32752  0.97438  1.0000 0.0470821511
C   C46       1.0  0.86674  0.67248  0.02562  1.0000 0.0470821511
C   C47       1.0  0.86674  0.82752  0.52562  1.0000 0.0470821511
C   C48       1.0  0.13326  0.17248  0.47438  1.0000 0.0470821511
C   C49       1.0  0.57077  0.45400  0.28381  1.0000 0.726465429
C   C50       1.0  0.42923  0.54600  0.71619  1.0000 0.726465429
C   C51       1.0  0.42923  0.95400  0.21619  1.0000 0.726465429
C   C52       1.0  0.57077  0.04600  0.78381  1.0000 0.726465429
C   C53       1.0  0.64291  0.48607  0.38934  1.0000 -0.5095259298
C   C54       1.0  0.35709  0.51393  0.61066  1.0000 -0.5095259298
C   C55       1.0  0.35709  0.98607  0.11066  1.0000 -0.5095259298
C   C56       1.0  0.64291  0.01393  0.88934  1.0000 -0.5095259298
N   N1        1.0  0.86025  0.19900  0.19619  1.0000 -0.2221015815
N   N2        1.0  0.13975  0.80100  0.80381  1.0000 -0.2221015815
N   N3        1.0  0.13975  0.69900  0.30381  1.0000 -0.2221015815
N   N4        1.0  0.86025  0.30100  0.69619  1.0000 -0.2221015815
N   N5        1.0  0.09108  0.24821  0.99720  1.0000 -0.2221015815
N   N6        1.0  0.90892  0.75179  0.00280  1.0000 -0.2221015815
N   N7        1.0  0.90892  0.74821  0.50280  1.0000 -0.2221015815
N   N8        1.0  0.09108  0.25179  0.49720  1.0000 -0.2221015815
O   O1        1.0  0.57490  0.13750  0.41743  1.0000 -0.6656714726
O   O2        1.0  0.42510  0.86250  0.58257  1.0000 -0.6656714726
O   O3        1.0  0.42510  0.63750  0.08257  1.0000 -0.6656714726
O   O4        1.0  0.57490  0.36250  0.91743  1.0000 -0.6656714726
O   O5        1.0  0.63073  0.99834  0.36510  1.0000 -0.7119298328
O   O6        1.0  0.36927  0.00166  0.63490  1.0000 -0.7119298328
O   O7        1.0  0.36927  0.49834  0.13490  1.0000 -0.7119298328
O   O8        1.0  0.63073  0.50166  0.86510  1.0000 -0.7119298328
O   O9        1.0  0.36051  0.18562  0.71085  1.0000 -0.6962648381
O   O10       1.0  0.63949  0.81438  0.28915  1.0000 -0.6962648381
O   O11       1.0  0.63949  0.68562  0.78915  1.0000 -0.6962648381
O   O12       1.0  0.36051  0.31438  0.21085  1.0000 -0.6962648381
O   O13       1.0  0.38538  0.31856  0.84201  1.0000 -0.7119298328
O   O14       1.0  0.61462  0.68144  0.15799  1.0000 -0.7119298328
O   O15       1.0  0.61462  0.81856  0.65799  1.0000 -0.7119298328
O   O16       1.0  0.38538  0.18144  0.34201  1.0000 -0.7119298328
O   O17       1.0  0.54585  0.50356  0.15645  1.0000 -0.811660995
O   O18       1.0  0.45415  0.49644  0.84355  1.0000 -0.811660995
O   O19       1.0  0.45415  0.00356  0.34355  1.0000 -0.811660995
O   O20       1.0  0.54585  0.99644  0.65645  1.0000 -0.811660995
O   O21       1.0  0.53448  0.37985  0.30931  1.0000 -0.6309942651
O   O22       1.0  0.46552  0.62015  0.69069  1.0000 -0.6309942651
O   O23       1.0  0.46552  0.87985  0.19069  1.0000 -0.6309942651
O   O24       1.0  0.53448  0.12015  0.80931  1.0000 -0.6309942651
