# DDEC6 charges by PACMAN v1.1 (https://github.com/mtap-research/PACMAN-charge/)
data_2009[Co][nan]3[ASR]1
_chemical_formula_sum              "Co20 H88 C128 N16 O72"
_cell_length_a       18.5775
_cell_length_b       18.5775
_cell_length_c       21.475
_cell_angle_alpha    85.3888
_cell_angle_beta     94.6112
_cell_angle_gamma    144.966

_symmetry_space_group_name_H-M    "P 1"
_symmetry_Int_Tables_number       1

loop_
  _symmetry_equiv_pos_as_xyz
  'x, y, z'

loop_
  _atom_site_type_symbol
  _atom_site_label
  _atom_site_symmetry_multiplicity
  _atom_site_fract_x
  _atom_site_fract_y
  _atom_site_fract_z
  _atom_site_occupancy
  _atom_site_charge
Co  Co1       1.0  0.40665  0.75469  0.23996  1.0000 0.9485149312
Co  Co2       1.0  0.75469  0.40665  0.26004  1.0000 0.9485149312
Co  Co3       1.0  0.59335  0.24531  0.76004  1.0000 0.9485149312
Co  Co4       1.0  0.24531  0.59335  0.73996  1.0000 0.9485149312
Co  Co5       1.0  0.62486  0.82032  0.18016  1.0000 1.0869006145
Co  Co6       1.0  0.82032  0.62486  0.31984  1.0000 1.0869006145
Co  Co7       1.0  0.37514  0.17968  0.81984  1.0000 1.0869006145
Co  Co8       1.0  0.17968  0.37514  0.68016  1.0000 1.0869006145
Co  Co9       1.0  0.57674  0.31930  0.37342  1.0000 1.0289423395
Co  Co10      1.0  0.31930  0.57674  0.12658  1.0000 1.0289423395
Co  Co11      1.0  0.42326  0.68070  0.62658  1.0000 1.0289423395
Co  Co12      1.0  0.68070  0.42326  0.87342  1.0000 1.0289423395
Co  Co13      1.0  0.97483  0.25379  0.56376  1.0000 0.9857514281
Co  Co14      1.0  0.25379  0.97483  0.93624  1.0000 0.9857514281
Co  Co15      1.0  0.02517  0.74621  0.43624  1.0000 0.9857514281
Co  Co16      1.0  0.74621  0.02517  0.06376  1.0000 0.9857514281
Co  Co17      1.0  0.17427  0.31487  0.50460  1.0000 0.9413949925
Co  Co18      1.0  0.31487  0.17427  0.99540  1.0000 0.9413949925
Co  Co19      1.0  0.82573  0.68513  0.49540  1.0000 0.9413949925
Co  Co20      1.0  0.68513  0.82573  0.00460  1.0000 0.9413949925
H   H1        1.0  0.47870  0.80170  0.12990  1.0000 0.3739365864
H   H2        1.0  0.80170  0.47870  0.37010  1.0000 0.3739365864
H   H3        1.0  0.52130  0.19830  0.87010  1.0000 0.3739365864
H   H4        1.0  0.19830  0.52130  0.62990  1.0000 0.3739365864
H   H5        1.0  0.56230  0.80530  0.06930  1.0000 0.3609776128
H   H6        1.0  0.80530  0.56230  0.43070  1.0000 0.3609776128
H   H7        1.0  0.43770  0.19470  0.93070  1.0000 0.3609776128
H   H8        1.0  0.19470  0.43770  0.56930  1.0000 0.3609776128
H   H9        1.0  0.10710  0.23110  0.39070  1.0000 0.3099583748
H   H10       1.0  0.23110  0.10710  0.10930  1.0000 0.3099583748
H   H11       1.0  0.89290  0.76890  0.60930  1.0000 0.3099583748
H   H12       1.0  0.76890  0.89290  0.89070  1.0000 0.3099583748
H   H13       1.0  0.15250  0.19950  0.42300  1.0000 0.2932377535
H   H14       1.0  0.19950  0.15250  0.07700  1.0000 0.2932377535
H   H15       1.0  0.84750  0.80050  0.57700  1.0000 0.2932377535
H   H16       1.0  0.80050  0.84750  0.92300  1.0000 0.2932377535
H   H17       1.0  0.75200  0.28480  0.34040  1.0000 0.3099583748
H   H18       1.0  0.28480  0.75200  0.15960  1.0000 0.3099583748
H   H19       1.0  0.24800  0.71520  0.65960  1.0000 0.3099583748
H   H20       1.0  0.71520  0.24800  0.84040  1.0000 0.3099583748
H   H21       1.0  0.88360  0.41700  0.33910  1.0000 0.3012999821
H   H22       1.0  0.41700  0.88360  0.16090  1.0000 0.3012999821
H   H23       1.0  0.11640  0.58300  0.66090  1.0000 0.3012999821
H   H24       1.0  0.58300  0.11640  0.83910  1.0000 0.3012999821
H   H25       1.0  0.14810  0.18630  0.58910  1.0000 0.3099583748
H   H26       1.0  0.18630  0.14810  0.91090  1.0000 0.3099583748
H   H27       1.0  0.85190  0.81370  0.41090  1.0000 0.3099583748
H   H28       1.0  0.81370  0.85190  0.08910  1.0000 0.3099583748
H   H29       1.0  0.27840  0.31940  0.59630  1.0000 0.3099583748
H   H30       1.0  0.31940  0.27840  0.90370  1.0000 0.3099583748
H   H31       1.0  0.72160  0.68060  0.40370  1.0000 0.3099583748
H   H32       1.0  0.68060  0.72160  0.09630  1.0000 0.3099583748
H   H33       1.0  0.46880  0.81820  0.35630  1.0000 0.3099583748
H   H34       1.0  0.81820  0.46880  0.14370  1.0000 0.3099583748
H   H35       1.0  0.53120  0.18180  0.64370  1.0000 0.3099583748
H   H36       1.0  0.18180  0.53120  0.85630  1.0000 0.3099583748
H   H37       1.0  0.43670  0.86530  0.32870  1.0000 0.3012999821
H   H38       1.0  0.86530  0.43670  0.17130  1.0000 0.3012999821
H   H39       1.0  0.56330  0.13470  0.67130  1.0000 0.3012999821
H   H40       1.0  0.13470  0.56330  0.82870  1.0000 0.3012999821
H   H41       1.0  0.58920  0.62080  0.29800  1.0000 0.1234105605
H   H42       1.0  0.62080  0.58920  0.20200  1.0000 0.1234105605
H   H43       1.0  0.41080  0.37920  0.70200  1.0000 0.1234105605
H   H44       1.0  0.37920  0.41080  0.79800  1.0000 0.1234105605
H   H45       1.0  0.32370  0.28370  0.38970  1.0000 0.1289511443
H   H46       1.0  0.28370  0.32370  0.11030  1.0000 0.1289511443
H   H47       1.0  0.67630  0.71630  0.61030  1.0000 0.1289511443
H   H48       1.0  0.71630  0.67630  0.88970  1.0000 0.1289511443
H   H49       1.0  0.27560  0.46040  0.35480  1.0000 0.1381949823
H   H50       1.0  0.46040  0.27560  0.14520  1.0000 0.1381949823
H   H51       1.0  0.72440  0.53960  0.64520  1.0000 0.1381949823
H   H52       1.0  0.53960  0.72440  0.85480  1.0000 0.1381949823
H   H53       1.0  0.93670  0.22990  0.19490  1.0000 0.1381949823
H   H54       1.0  0.22990  0.93670  0.30510  1.0000 0.1381949823
H   H55       1.0  0.06330  0.77010  0.80510  1.0000 0.1381949823
H   H56       1.0  0.77010  0.06330  0.69490  1.0000 0.1381949823
H   H57       1.0  0.03280  0.49400  0.27120  1.0000 0.1289511443
H   H58       1.0  0.49400  0.03280  0.22880  1.0000 0.1289511443
H   H59       1.0  0.96720  0.50600  0.72880  1.0000 0.1289511443
H   H60       1.0  0.50600  0.96720  0.77120  1.0000 0.1289511443
H   H61       1.0  0.67800  0.12700  0.28590  1.0000 0.1289511443
H   H62       1.0  0.12700  0.67800  0.21410  1.0000 0.1289511443
H   H63       1.0  0.32200  0.87300  0.71410  1.0000 0.1289511443
H   H64       1.0  0.87300  0.32200  0.78590  1.0000 0.1289511443
H   H65       1.0  0.36870  0.15910  0.45860  1.0000 0.1289511443
H   H66       1.0  0.15910  0.36870  0.04140  1.0000 0.1289511443
H   H67       1.0  0.63130  0.84090  0.54140  1.0000 0.1289511443
H   H68       1.0  0.84090  0.63130  0.95860  1.0000 0.1289511443
H   H69       1.0  0.09110  0.04650  0.53000  1.0000 0.1289511443
H   H70       1.0  0.04650  0.09110  0.97000  1.0000 0.1289511443
H   H71       1.0  0.90890  0.95350  0.47000  1.0000 0.1289511443
H   H72       1.0  0.95350  0.90890  0.03000  1.0000 0.1289511443
H   H73       1.0  0.45090  0.41030  0.54050  1.0000 0.1381949823
H   H74       1.0  0.41030  0.45090  0.95950  1.0000 0.1381949823
H   H75       1.0  0.54910  0.58970  0.45950  1.0000 0.1381949823
H   H76       1.0  0.58970  0.54910  0.04050  1.0000 0.1381949823
H   H77       1.0  0.98760  0.44360  0.44480  1.0000 0.1289511443
H   H78       1.0  0.44360  0.98760  0.05520  1.0000 0.1289511443
H   H79       1.0  0.01240  0.55640  0.55520  1.0000 0.1289511443
H   H80       1.0  0.55640  0.01240  0.94480  1.0000 0.1289511443
H   H81       1.0  0.26540  0.78480  0.35720  1.0000 0.1289511443
H   H82       1.0  0.78480  0.26540  0.14280  1.0000 0.1289511443
H   H83       1.0  0.73460  0.21520  0.64280  1.0000 0.1289511443
H   H84       1.0  0.21520  0.73460  0.85720  1.0000 0.1289511443
H   H85       1.0  0.29100  0.58780  0.38570  1.0000 0.1381949823
H   H86       1.0  0.58780  0.29100  0.11430  1.0000 0.1381949823
H   H87       1.0  0.70900  0.41220  0.61430  1.0000 0.1381949823
H   H88       1.0  0.41220  0.70900  0.88570  1.0000 0.1381949823
C   C1        1.0  0.43927  0.55673  0.32240  1.0000 0.0025614565
C   C2        1.0  0.55673  0.43927  0.17760  1.0000 0.0025614565
C   C3        1.0  0.56073  0.44327  0.67760  1.0000 0.0025614565
C   C4        1.0  0.44327  0.56073  0.82240  1.0000 0.0025614565
C   C5        1.0  0.51088  0.55352  0.31810  1.0000 -0.1504658457
C   C6        1.0  0.55352  0.51088  0.18190  1.0000 -0.1504658457
C   C7        1.0  0.48912  0.44648  0.68190  1.0000 -0.1504658457
C   C8        1.0  0.44648  0.48912  0.81810  1.0000 -0.1504658457
C   C9        1.0  0.46782  0.45178  0.34310  1.0000 -0.0153588938
C   C10       1.0  0.45178  0.46782  0.15690  1.0000 -0.0153588938
C   C11       1.0  0.53218  0.54822  0.65690  1.0000 -0.0153588938
C   C12       1.0  0.54822  0.53218  0.84310  1.0000 -0.0153588938
C   C13       1.0  0.35316  0.35324  0.37250  1.0000 -0.2129853141
C   C14       1.0  0.35324  0.35316  0.12750  1.0000 -0.2129853141
C   C15       1.0  0.64684  0.64676  0.62750  1.0000 -0.2129853141
C   C16       1.0  0.64676  0.64684  0.87250  1.0000 -0.2129853141
C   C17       1.0  0.28155  0.35645  0.37690  1.0000 0.2695613581
C   C18       1.0  0.35645  0.28155  0.12310  1.0000 0.2695613581
C   C19       1.0  0.71845  0.64355  0.62310  1.0000 0.2695613581
C   C20       1.0  0.64355  0.71845  0.87690  1.0000 0.2695613581
C   C21       1.0  0.32461  0.45819  0.35180  1.0000 -0.1899428551
C   C22       1.0  0.45819  0.32461  0.14820  1.0000 -0.1899428551
C   C23       1.0  0.67539  0.54181  0.64820  1.0000 -0.1899428551
C   C24       1.0  0.54181  0.67539  0.85180  1.0000 -0.1899428551
C   C25       1.0  0.48198  0.66402  0.29290  1.0000 0.5907891768
C   C26       1.0  0.66402  0.48198  0.20710  1.0000 0.5907891768
C   C27       1.0  0.51802  0.33598  0.70710  1.0000 0.5907891768
C   C28       1.0  0.33598  0.51802  0.79290  1.0000 0.5907891768
C   C29       1.0  0.54488  0.44892  0.33990  1.0000 0.5795248974
C   C30       1.0  0.44892  0.54488  0.16010  1.0000 0.5795248974
C   C31       1.0  0.45512  0.55108  0.66010  1.0000 0.5795248974
C   C32       1.0  0.55108  0.45512  0.83990  1.0000 0.5795248974
C   C33       1.0  0.79319  0.15861  0.23850  1.0000 -0.0023881821
C   C34       1.0  0.15861  0.79319  0.26150  1.0000 -0.0023881821
C   C35       1.0  0.20681  0.84139  0.76150  1.0000 -0.0023881821
C   C36       1.0  0.84139  0.20681  0.73850  1.0000 -0.0023881821
C   C37       1.0  0.91469  0.25171  0.21760  1.0000 -0.1270821315
C   C38       1.0  0.25171  0.91469  0.28240  1.0000 -0.1270821315
C   C39       1.0  0.08531  0.74829  0.78240  1.0000 -0.1270821315
C   C40       1.0  0.74829  0.08531  0.71760  1.0000 -0.1270821315
C   C41       1.0  0.00393  0.37667  0.22980  1.0000 -0.0023881821
C   C42       1.0  0.37667  0.00393  0.27020  1.0000 -0.0023881821
C   C43       1.0  0.99607  0.62333  0.77020  1.0000 -0.0023881821
C   C44       1.0  0.62333  0.99607  0.72980  1.0000 -0.0023881821
C   C45       1.0  0.97177  0.40863  0.26290  1.0000 -0.2299597036
C   C46       1.0  0.40863  0.97177  0.23710  1.0000 -0.2299597036
C   C47       1.0  0.02823  0.59137  0.73710  1.0000 -0.2299597036
C   C48       1.0  0.59137  0.02823  0.76290  1.0000 -0.2299597036
C   C49       1.0  0.85027  0.31553  0.28380  1.0000 0.2566954646
C   C50       1.0  0.31553  0.85027  0.21620  1.0000 0.2566954646
C   C51       1.0  0.14973  0.68447  0.71620  1.0000 0.2566954646
C   C52       1.0  0.68447  0.14973  0.78380  1.0000 0.2566954646
C   C53       1.0  0.76102  0.19058  0.27160  1.0000 -0.2214755189
C   C54       1.0  0.19058  0.76102  0.22840  1.0000 -0.2214755189
C   C55       1.0  0.23898  0.80942  0.72840  1.0000 -0.2214755189
C   C56       1.0  0.80942  0.23898  0.77160  1.0000 -0.2214755189
C   C57       1.0  0.69635  0.02225  0.22600  1.0000 0.5907891768
C   C58       1.0  0.02225  0.69635  0.27400  1.0000 0.5907891768
C   C59       1.0  0.30365  0.97775  0.77400  1.0000 0.5907891768
C   C60       1.0  0.97775  0.30365  0.72600  1.0000 0.5907891768
C   C61       1.0  0.13707  0.47993  0.20860  1.0000 0.5795248974
C   C62       1.0  0.47993  0.13707  0.29140  1.0000 0.5795248974
C   C63       1.0  0.86293  0.52007  0.79140  1.0000 0.5795248974
C   C64       1.0  0.52007  0.86293  0.70860  1.0000 0.5795248974
C   C65       1.0  0.42978  0.29962  0.49770  1.0000 -0.0108187209
C   C66       1.0  0.29962  0.42978  0.00230  1.0000 -0.0108187209
C   C67       1.0  0.57022  0.70038  0.50230  1.0000 -0.0108187209
C   C68       1.0  0.70038  0.57022  0.99770  1.0000 -0.0108187209
C   C69       1.0  0.34231  0.17789  0.47940  1.0000 -0.1504658457
C   C70       1.0  0.17789  0.34231  0.02060  1.0000 -0.1504658457
C   C71       1.0  0.65769  0.82211  0.52060  1.0000 -0.1504658457
C   C72       1.0  0.82211  0.65769  0.97940  1.0000 -0.1504658457
C   C73       1.0  0.21605  0.08355  0.49140  1.0000 -0.0023881821
C   C74       1.0  0.08355  0.21605  0.00860  1.0000 -0.0023881821
C   C75       1.0  0.78395  0.91645  0.50860  1.0000 -0.0023881821
C   C76       1.0  0.91645  0.78395  0.99140  1.0000 -0.0023881821
C   C77       1.0  0.17737  0.11103  0.52180  1.0000 -0.2391366583
C   C78       1.0  0.11103  0.17737  0.97820  1.0000 -0.2391366583
C   C79       1.0  0.82263  0.88897  0.47820  1.0000 -0.2391366583
C   C80       1.0  0.88897  0.82263  0.02180  1.0000 -0.2391366583
C   C81       1.0  0.26484  0.23276  0.54010  1.0000 0.2566954646
C   C82       1.0  0.23276  0.26484  0.95990  1.0000 0.2566954646
C   C83       1.0  0.73516  0.76724  0.45990  1.0000 0.2566954646
C   C84       1.0  0.76724  0.73516  0.04010  1.0000 0.2566954646
C   C85       1.0  0.39109  0.32711  0.52800  1.0000 -0.2025259395
C   C86       1.0  0.32711  0.39109  0.97200  1.0000 -0.2025259395
C   C87       1.0  0.60891  0.67289  0.47200  1.0000 -0.2025259395
C   C88       1.0  0.67289  0.60891  0.02800  1.0000 -0.2025259395
C   C89       1.0  0.56687  0.40613  0.48300  1.0000 0.5907891768
C   C90       1.0  0.40613  0.56687  0.01700  1.0000 0.5907891768
C   C91       1.0  0.43313  0.59387  0.51700  1.0000 0.5907891768
C   C92       1.0  0.59387  0.43313  0.98300  1.0000 0.5907891768
C   C93       1.0  0.11779  0.94981  0.47390  1.0000 0.5707264918
C   C94       1.0  0.94981  0.11779  0.02610  1.0000 0.5707264918
C   C95       1.0  0.88221  0.05019  0.52610  1.0000 0.5707264918
C   C96       1.0  0.05019  0.88221  0.97390  1.0000 0.5707264918
C   C97       1.0  0.13137  0.49883  0.41890  1.0000 -0.0023881821
C   C98       1.0  0.49883  0.13137  0.08110  1.0000 -0.0023881821
C   C99       1.0  0.86863  0.50117  0.58110  1.0000 -0.0023881821
C   C100      1.0  0.50117  0.86863  0.91890  1.0000 -0.0023881821
C   C101      1.0  0.06619  0.50921  0.42490  1.0000 -0.1504658457
C   C102      1.0  0.50921  0.06619  0.07510  1.0000 -0.1504658457
C   C103      1.0  0.93381  0.49079  0.57510  1.0000 -0.1504658457
C   C104      1.0  0.49079  0.93381  0.92490  1.0000 -0.1504658457
C   C105      1.0  0.11618  0.61582  0.40190  1.0000 -0.0108187209
C   C106      1.0  0.61582  0.11618  0.09810  1.0000 -0.0108187209
C   C107      1.0  0.88382  0.38418  0.59810  1.0000 -0.0108187209
C   C108      1.0  0.38418  0.88382  0.90190  1.0000 -0.0108187209
C   C109      1.0  0.23126  0.71194  0.37290  1.0000 -0.2129853141
C   C110      1.0  0.71194  0.23126  0.12710  1.0000 -0.2129853141
C   C111      1.0  0.76874  0.28806  0.62710  1.0000 -0.2129853141
C   C112      1.0  0.28806  0.76874  0.87290  1.0000 -0.2129853141
C   C113      1.0  0.29644  0.70156  0.36680  1.0000 0.2695613581
C   C114      1.0  0.70156  0.29644  0.13320  1.0000 0.2695613581
C   C115      1.0  0.70356  0.29844  0.63320  1.0000 0.2695613581
C   C116      1.0  0.29844  0.70356  0.86680  1.0000 0.2695613581
C   C117      1.0  0.24645  0.59495  0.38980  1.0000 -0.1899428551
C   C118      1.0  0.59495  0.24645  0.11020  1.0000 -0.1899428551
C   C119      1.0  0.75355  0.40505  0.61020  1.0000 -0.1899428551
C   C120      1.0  0.40505  0.75355  0.88980  1.0000 -0.1899428551
C   C121      1.0  0.08511  0.39069  0.44860  1.0000 0.5795248974
C   C122      1.0  0.39069  0.08511  0.05140  1.0000 0.5795248974
C   C123      1.0  0.91489  0.60931  0.55140  1.0000 0.5795248974
C   C124      1.0  0.60931  0.91489  0.94860  1.0000 0.5795248974
C   C125      1.0  0.05153  0.63207  0.41010  1.0000 0.5510349202
C   C126      1.0  0.63207  0.05153  0.08990  1.0000 0.5510349202
C   C127      1.0  0.94847  0.36793  0.58990  1.0000 0.5510349202
C   C128      1.0  0.36793  0.94847  0.91010  1.0000 0.5510349202
N   N1        1.0  0.17217  0.26363  0.41480  1.0000 -0.5960220468
N   N2        1.0  0.26363  0.17217  0.08520  1.0000 -0.5960220468
N   N3        1.0  0.82783  0.73637  0.58520  1.0000 -0.5960220468
N   N4        1.0  0.73637  0.82783  0.91480  1.0000 -0.5960220468
N   N5        1.0  0.81600  0.35080  0.31400  1.0000 -0.6060278487
N   N6        1.0  0.35080  0.81600  0.18600  1.0000 -0.6060278487
N   N7        1.0  0.18400  0.64920  0.68600  1.0000 -0.6060278487
N   N8        1.0  0.64920  0.18400  0.81400  1.0000 -0.6060278487
N   N9        1.0  0.21918  0.25762  0.56750  1.0000 -0.5960220468
N   N10       1.0  0.25762  0.21918  0.93250  1.0000 -0.5960220468
N   N11       1.0  0.78082  0.74238  0.43250  1.0000 -0.5960220468
N   N12       1.0  0.74238  0.78082  0.06750  1.0000 -0.5960220468
N   N13       1.0  0.40937  0.79583  0.33240  1.0000 -0.5890714349
N   N14       1.0  0.79583  0.40937  0.16760  1.0000 -0.5890714349
N   N15       1.0  0.59063  0.20417  0.66760  1.0000 -0.5890714349
N   N16       1.0  0.20417  0.59063  0.83240  1.0000 -0.5890714349
O   O1        1.0  0.40419  0.65061  0.28950  1.0000 -0.5430241696
O   O2        1.0  0.65061  0.40419  0.21050  1.0000 -0.5430241696
O   O3        1.0  0.59581  0.34939  0.71050  1.0000 -0.5430241696
O   O4        1.0  0.34939  0.59581  0.78950  1.0000 -0.5430241696
O   O5        1.0  0.59345  0.76035  0.27350  1.0000 -0.5890714349
O   O6        1.0  0.76035  0.59345  0.22650  1.0000 -0.5890714349
O   O7        1.0  0.40655  0.23965  0.72650  1.0000 -0.5890714349
O   O8        1.0  0.23965  0.40655  0.77350  1.0000 -0.5890714349
O   O9        1.0  0.66195  0.55345  0.33870  1.0000 -0.5784406385
O   O10       1.0  0.55345  0.66195  0.16130  1.0000 -0.5784406385
O   O11       1.0  0.33805  0.44655  0.66130  1.0000 -0.5784406385
O   O12       1.0  0.44655  0.33805  0.83870  1.0000 -0.5784406385
O   O13       1.0  0.49157  0.34463  0.33970  1.0000 -0.5430241696
O   O14       1.0  0.34463  0.49157  0.16030  1.0000 -0.5430241696
O   O15       1.0  0.50843  0.65537  0.66030  1.0000 -0.5430241696
O   O16       1.0  0.65537  0.50843  0.83970  1.0000 -0.5430241696
O   O17       1.0  0.58843  0.94477  0.24510  1.0000 -0.5689437461
O   O18       1.0  0.94477  0.58843  0.25490  1.0000 -0.5689437461
O   O19       1.0  0.41157  0.05523  0.75490  1.0000 -0.5689437461
O   O20       1.0  0.05523  0.41157  0.74510  1.0000 -0.5689437461
O   O21       1.0  0.72881  0.99599  0.19770  1.0000 -0.5784406385
O   O22       1.0  0.99599  0.72881  0.30230  1.0000 -0.5784406385
O   O23       1.0  0.27119  0.00401  0.80230  1.0000 -0.5784406385
O   O24       1.0  0.00401  0.27119  0.69770  1.0000 -0.5784406385
O   O25       1.0  0.15670  0.45130  0.16800  1.0000 -0.5619077754
O   O26       1.0  0.45130  0.15670  0.33200  1.0000 -0.5619077754
O   O27       1.0  0.84330  0.54870  0.83200  1.0000 -0.5619077754
O   O28       1.0  0.54870  0.84330  0.66800  1.0000 -0.5619077754
O   O29       1.0  0.21661  0.58439  0.23110  1.0000 -0.5505135776
O   O30       1.0  0.58439  0.21661  0.26890  1.0000 -0.5505135776
O   O31       1.0  0.78339  0.41561  0.76890  1.0000 -0.5505135776
O   O32       1.0  0.41561  0.78339  0.73110  1.0000 -0.5505135776
O   O33       1.0  0.63484  0.51216  0.49770  1.0000 -0.512937605
O   O34       1.0  0.51216  0.63484  0.00230  1.0000 -0.512937605
O   O35       1.0  0.36516  0.48784  0.50230  1.0000 -0.512937605
O   O36       1.0  0.48784  0.36516  0.99770  1.0000 -0.512937605
O   O37       1.0  0.60495  0.38305  0.45710  1.0000 -0.5890714349
O   O38       1.0  0.38305  0.60495  0.04290  1.0000 -0.5890714349
O   O39       1.0  0.39505  0.61695  0.54290  1.0000 -0.5890714349
O   O40       1.0  0.61695  0.39505  0.95710  1.0000 -0.5890714349
O   O41       1.0  0.14761  0.92759  0.43710  1.0000 -0.5181167048
O   O42       1.0  0.92759  0.14761  0.06290  1.0000 -0.5181167048
O   O43       1.0  0.85239  0.07241  0.56290  1.0000 -0.5181167048
O   O44       1.0  0.07241  0.85239  0.93710  1.0000 -0.5181167048
O   O45       1.0  0.01306  0.86974  0.49630  1.0000 -0.5784406385
O   O46       1.0  0.86974  0.01306  0.00370  1.0000 -0.5784406385
O   O47       1.0  0.98694  0.13026  0.50370  1.0000 -0.5784406385
O   O48       1.0  0.13026  0.98694  0.99630  1.0000 -0.5784406385
O   O49       1.0  0.15621  0.39519  0.44760  1.0000 -0.5505135776
O   O50       1.0  0.39519  0.15621  0.05240  1.0000 -0.5505135776
O   O51       1.0  0.84379  0.60481  0.55240  1.0000 -0.5505135776
O   O52       1.0  0.60481  0.84379  0.94760  1.0000 -0.5505135776
O   O53       1.0  0.98097  0.30443  0.47490  1.0000 -0.5430241696
O   O54       1.0  0.30443  0.98097  0.02510  1.0000 -0.5430241696
O   O55       1.0  0.01903  0.69557  0.52510  1.0000 -0.5430241696
O   O56       1.0  0.69557  0.01903  0.97490  1.0000 -0.5430241696
O   O57       1.0  0.93514  0.53906  0.41540  1.0000 -0.5505135776
O   O58       1.0  0.53906  0.93514  0.08460  1.0000 -0.5505135776
O   O59       1.0  0.06486  0.46094  0.58460  1.0000 -0.5505135776
O   O60       1.0  0.46094  0.06486  0.91540  1.0000 -0.5505135776
O   O61       1.0  0.12101  0.74439  0.40940  1.0000 -0.512937605
O   O62       1.0  0.74439  0.12101  0.09060  1.0000 -0.512937605
O   O63       1.0  0.87899  0.25561  0.59060  1.0000 -0.512937605
O   O64       1.0  0.25561  0.87899  0.90940  1.0000 -0.512937605
O   O65       1.0  0.45774  0.74526  0.16260  1.0000 -0.9428114963
O   O66       1.0  0.74526  0.45774  0.33740  1.0000 -0.9428114963
O   O67       1.0  0.54226  0.25474  0.83740  1.0000 -0.9428114963
O   O68       1.0  0.25474  0.54226  0.66260  1.0000 -0.9428114963
O   O69       1.0  0.64768  0.85652  0.08220  1.0000 -0.9158161056
O   O70       1.0  0.85652  0.64768  0.41780  1.0000 -0.9158161056
O   O71       1.0  0.35232  0.14348  0.91780  1.0000 -0.9158161056
O   O72       1.0  0.14348  0.35232  0.58220  1.0000 -0.9158161056
