# DDEC6 charges by PACMAN v1.1 (https://github.com/mtap-research/PACMAN-charge/)
data_2009[Cd][dia]3[ASR]4
_chemical_formula_sum              "Cd4 H96 C136 N8 O24"
_cell_length_a       9.6755
_cell_length_b       12.264
_cell_length_c       28.899
_cell_angle_alpha    90
_cell_angle_beta     90
_cell_angle_gamma    90

_symmetry_space_group_name_H-M    "P 1"
_symmetry_Int_Tables_number       1

loop_
  _symmetry_equiv_pos_as_xyz
  'x, y, z'

loop_
  _atom_site_type_symbol
  _atom_site_label
  _atom_site_symmetry_multiplicity
  _atom_site_fract_x
  _atom_site_fract_y
  _atom_site_fract_z
  _atom_site_occupancy
  _atom_site_charge
Cd  Cd1       1.0  0.49939  0.15449  0.97365  1.0000 0.8753129321
Cd  Cd2       1.0  0.49939  0.84551  0.02635  1.0000 0.8753129321
Cd  Cd3       1.0  0.99939  0.84551  0.47365  1.0000 0.8753129321
Cd  Cd4       1.0  0.99939  0.15449  0.52635  1.0000 0.8753129321
H   H1        1.0  0.26230  0.48180  0.91040  1.0000 0.110717513
H   H2        1.0  0.26230  0.51820  0.08960  1.0000 0.110717513
H   H3        1.0  0.76230  0.51820  0.41040  1.0000 0.110717513
H   H4        1.0  0.76230  0.48180  0.58960  1.0000 0.110717513
H   H5        1.0  0.20560  0.60550  0.85260  1.0000 0.1280380148
H   H6        1.0  0.20560  0.39450  0.14740  1.0000 0.1280380148
H   H7        1.0  0.70560  0.39450  0.35260  1.0000 0.1280380148
H   H8        1.0  0.70560  0.60550  0.64740  1.0000 0.1280380148
H   H9        1.0  0.42160  0.43090  0.76070  1.0000 0.119404496
H   H10       1.0  0.42160  0.56910  0.23930  1.0000 0.119404496
H   H11       1.0  0.92160  0.56910  0.26070  1.0000 0.119404496
H   H12       1.0  0.92160  0.43090  0.73930  1.0000 0.119404496
H   H13       1.0  0.47970  0.30960  0.81790  1.0000 0.119404496
H   H14       1.0  0.47970  0.69040  0.18210  1.0000 0.119404496
H   H15       1.0  0.97970  0.69040  0.31790  1.0000 0.119404496
H   H16       1.0  0.97970  0.30960  0.68210  1.0000 0.119404496
H   H17       1.0  0.27240  0.52640  0.71000  1.0000 0.1013703945
H   H18       1.0  0.27240  0.47360  0.29000  1.0000 0.1013703945
H   H19       1.0  0.77240  0.47360  0.21000  1.0000 0.1013703945
H   H20       1.0  0.77240  0.52640  0.79000  1.0000 0.1013703945
H   H21       1.0  0.41110  0.58990  0.71980  1.0000 0.1013703945
H   H22       1.0  0.41110  0.41010  0.28020  1.0000 0.1013703945
H   H23       1.0  0.91110  0.41010  0.21980  1.0000 0.1013703945
H   H24       1.0  0.91110  0.58990  0.78020  1.0000 0.1013703945
H   H25       1.0  0.29920  0.95130  0.67990  1.0000 0.119404496
H   H26       1.0  0.29920  0.04870  0.32010  1.0000 0.119404496
H   H27       1.0  0.79920  0.04870  0.17990  1.0000 0.119404496
H   H28       1.0  0.79920  0.95130  0.82010  1.0000 0.119404496
H   H29       1.0  0.09630  0.92930  0.63830  1.0000 0.119404496
H   H30       1.0  0.09630  0.07070  0.36170  1.0000 0.119404496
H   H31       1.0  0.59630  0.07070  0.13830  1.0000 0.119404496
H   H32       1.0  0.59630  0.92930  0.86170  1.0000 0.119404496
H   H33       1.0  0.99170  0.76270  0.63390  1.0000 0.110717513
H   H34       1.0  0.99170  0.23730  0.36610  1.0000 0.110717513
H   H35       1.0  0.49170  0.23730  0.13390  1.0000 0.110717513
H   H36       1.0  0.49170  0.76270  0.86610  1.0000 0.110717513
H   H37       1.0  0.09530  0.61190  0.66760  1.0000 0.110717513
H   H38       1.0  0.09530  0.38810  0.33240  1.0000 0.110717513
H   H39       1.0  0.59530  0.38810  0.16760  1.0000 0.110717513
H   H40       1.0  0.59530  0.61190  0.83240  1.0000 0.110717513
H   H41       1.0  0.41960  0.81680  0.76210  1.0000 0.119404496
H   H42       1.0  0.41960  0.18320  0.23790  1.0000 0.119404496
H   H43       1.0  0.91960  0.18320  0.26210  1.0000 0.119404496
H   H44       1.0  0.91960  0.81680  0.73790  1.0000 0.119404496
H   H45       1.0  0.50540  0.74890  0.72630  1.0000 0.1013703945
H   H46       1.0  0.50540  0.25110  0.27370  1.0000 0.1013703945
H   H47       1.0  0.00540  0.25110  0.22630  1.0000 0.1013703945
H   H48       1.0  0.00540  0.74890  0.77370  1.0000 0.1013703945
H   H49       1.0  0.53920  0.76390  0.64970  1.0000 0.119404496
H   H50       1.0  0.53920  0.23610  0.35030  1.0000 0.119404496
H   H51       1.0  0.03920  0.23610  0.14970  1.0000 0.119404496
H   H52       1.0  0.03920  0.76390  0.85030  1.0000 0.119404496
H   H53       1.0  0.69810  0.04570  0.69560  1.0000 0.1414788219
H   H54       1.0  0.69810  0.95430  0.30440  1.0000 0.1414788219
H   H55       1.0  0.19810  0.95430  0.19560  1.0000 0.1414788219
H   H56       1.0  0.19810  0.04570  0.80440  1.0000 0.1414788219
H   H57       1.0  0.67420  0.77750  0.58380  1.0000 0.110717513
H   H58       1.0  0.67420  0.22250  0.41620  1.0000 0.110717513
H   H59       1.0  0.17420  0.22250  0.08380  1.0000 0.110717513
H   H60       1.0  0.17420  0.77750  0.91620  1.0000 0.110717513
H   H61       1.0  0.83990  0.05430  0.63120  1.0000 0.119404496
H   H62       1.0  0.83990  0.94570  0.36880  1.0000 0.119404496
H   H63       1.0  0.33990  0.94570  0.13120  1.0000 0.119404496
H   H64       1.0  0.33990  0.05430  0.86880  1.0000 0.119404496
H   H65       1.0  0.46490  0.36810  0.04380  1.0000 0.110717513
H   H66       1.0  0.46490  0.63190  0.95620  1.0000 0.110717513
H   H67       1.0  0.96490  0.63190  0.54380  1.0000 0.110717513
H   H68       1.0  0.96490  0.36810  0.45620  1.0000 0.110717513
H   H69       1.0  0.59160  0.50350  0.07910  1.0000 0.1280380148
H   H70       1.0  0.59160  0.49650  0.92090  1.0000 0.1280380148
H   H71       1.0  0.09160  0.49650  0.57910  1.0000 0.1280380148
H   H72       1.0  0.09160  0.50350  0.42090  1.0000 0.1280380148
H   H73       1.0  0.82900  0.50690  0.07050  1.0000 0.1280380148
H   H74       1.0  0.82900  0.49310  0.92950  1.0000 0.1280380148
H   H75       1.0  0.32900  0.49310  0.57050  1.0000 0.1280380148
H   H76       1.0  0.32900  0.50690  0.42950  1.0000 0.1280380148
H   H77       1.0  0.04250  0.42040  0.03660  1.0000 0.1280380148
H   H78       1.0  0.04250  0.57960  0.96340  1.0000 0.1280380148
H   H79       1.0  0.54250  0.57960  0.53660  1.0000 0.1280380148
H   H80       1.0  0.54250  0.42040  0.46340  1.0000 0.1280380148
H   H81       1.0  0.14000  0.28940  0.99380  1.0000 0.1465200077
H   H82       1.0  0.14000  0.71060  0.00620  1.0000 0.1465200077
H   H83       1.0  0.64000  0.71060  0.49380  1.0000 0.1465200077
H   H84       1.0  0.64000  0.28940  0.50620  1.0000 0.1465200077
H   H85       1.0  0.11240  0.11580  0.94670  1.0000 0.1414788219
H   H86       1.0  0.11240  0.88420  0.05330  1.0000 0.1414788219
H   H87       1.0  0.61240  0.88420  0.44670  1.0000 0.1414788219
H   H88       1.0  0.61240  0.11580  0.55330  1.0000 0.1414788219
H   H89       1.0  0.97260  0.98210  0.91700  1.0000 0.1280380148
H   H90       1.0  0.97260  0.01790  0.08300  1.0000 0.1280380148
H   H91       1.0  0.47260  0.01790  0.41700  1.0000 0.1280380148
H   H92       1.0  0.47260  0.98210  0.58300  1.0000 0.1280380148
H   H93       1.0  0.73560  0.99350  0.92930  1.0000 0.110717513
H   H94       1.0  0.73560  0.00650  0.07070  1.0000 0.110717513
H   H95       1.0  0.23560  0.00650  0.42930  1.0000 0.110717513
H   H96       1.0  0.23560  0.99350  0.57070  1.0000 0.110717513
C   C1        1.0  0.41410  0.30190  0.90691  1.0000 0.5335880893
C   C2        1.0  0.41410  0.69810  0.09309  1.0000 0.5335880893
C   C3        1.0  0.91410  0.69810  0.40691  1.0000 0.5335880893
C   C4        1.0  0.91410  0.30190  0.59309  1.0000 0.5335880893
C   C5        1.0  0.37730  0.38070  0.87035  1.0000 -0.0625935008
C   C6        1.0  0.37730  0.61930  0.12965  1.0000 -0.0625935008
C   C7        1.0  0.87730  0.61930  0.37035  1.0000 -0.0625935008
C   C8        1.0  0.87730  0.38070  0.62965  1.0000 -0.0625935008
C   C9        1.0  0.29480  0.47120  0.88043  1.0000 -0.0983301752
C   C10       1.0  0.29480  0.52880  0.11957  1.0000 -0.0983301752
C   C11       1.0  0.79480  0.52880  0.38043  1.0000 -0.0983301752
C   C12       1.0  0.79480  0.47120  0.61957  1.0000 -0.0983301752
C   C13       1.0  0.26090  0.54560  0.84578  1.0000 -0.2337311727
C   C14       1.0  0.26090  0.45440  0.15422  1.0000 -0.2337311727
C   C15       1.0  0.76090  0.45440  0.34578  1.0000 -0.2337311727
C   C16       1.0  0.76090  0.54560  0.65422  1.0000 -0.2337311727
C   C17       1.0  0.30950  0.53060  0.80125  1.0000 0.2498726959
C   C18       1.0  0.30950  0.46940  0.19875  1.0000 0.2498726959
C   C19       1.0  0.80950  0.46940  0.30125  1.0000 0.2498726959
C   C20       1.0  0.80950  0.53060  0.69875  1.0000 0.2498726959
C   C21       1.0  0.39010  0.44170  0.79079  1.0000 -0.2411859908
C   C22       1.0  0.39010  0.55830  0.20921  1.0000 -0.2411859908
C   C23       1.0  0.89010  0.55830  0.29079  1.0000 -0.2411859908
C   C24       1.0  0.89010  0.44170  0.70921  1.0000 -0.2411859908
C   C25       1.0  0.42380  0.36890  0.82516  1.0000 -0.0777479854
C   C26       1.0  0.42380  0.63110  0.17484  1.0000 -0.0777479854
C   C27       1.0  0.92380  0.63110  0.32516  1.0000 -0.0777479854
C   C28       1.0  0.92380  0.36890  0.67484  1.0000 -0.0777479854
C   C29       1.0  0.31120  0.59310  0.72246  1.0000 -0.0777479854
C   C30       1.0  0.31120  0.40690  0.27754  1.0000 -0.0777479854
C   C31       1.0  0.81120  0.40690  0.22246  1.0000 -0.0777479854
C   C32       1.0  0.81120  0.59310  0.77754  1.0000 -0.0777479854
C   C33       1.0  0.25400  0.69270  0.69709  1.0000 0.0377074436
C   C34       1.0  0.25400  0.30730  0.30291  1.0000 0.0377074436
C   C35       1.0  0.75400  0.30730  0.19709  1.0000 0.0377074436
C   C36       1.0  0.75400  0.69270  0.80291  1.0000 0.0377074436
C   C37       1.0  0.31730  0.79520  0.70091  1.0000 0.0321677255
C   C38       1.0  0.31730  0.20480  0.29909  1.0000 0.0321677255
C   C39       1.0  0.81730  0.20480  0.20091  1.0000 0.0321677255
C   C40       1.0  0.81730  0.79520  0.79909  1.0000 0.0321677255
C   C41       1.0  0.25770  0.88300  0.67830  1.0000 -0.1395677102
C   C42       1.0  0.25770  0.11700  0.32170  1.0000 -0.1395677102
C   C43       1.0  0.75770  0.11700  0.17830  1.0000 -0.1395677102
C   C44       1.0  0.75770  0.88300  0.82170  1.0000 -0.1395677102
C   C45       1.0  0.13580  0.86960  0.65315  1.0000 -0.0983301752
C   C46       1.0  0.13580  0.13040  0.34685  1.0000 -0.0983301752
C   C47       1.0  0.63580  0.13040  0.15315  1.0000 -0.0983301752
C   C48       1.0  0.63580  0.86960  0.84685  1.0000 -0.0983301752
C   C49       1.0  0.07420  0.77040  0.65004  1.0000 -0.0983301752
C   C50       1.0  0.07420  0.22960  0.34996  1.0000 -0.0983301752
C   C51       1.0  0.57420  0.22960  0.15004  1.0000 -0.0983301752
C   C52       1.0  0.57420  0.77040  0.84996  1.0000 -0.0983301752
C   C53       1.0  0.13490  0.68060  0.67100  1.0000 -0.1603817714
C   C54       1.0  0.13490  0.31940  0.32900  1.0000 -0.1603817714
C   C55       1.0  0.63490  0.31940  0.17100  1.0000 -0.1603817714
C   C56       1.0  0.63490  0.68060  0.82900  1.0000 -0.1603817714
C   C57       1.0  0.44610  0.81210  0.72975  1.0000 -0.0659530048
C   C58       1.0  0.44610  0.18790  0.27025  1.0000 -0.0659530048
C   C59       1.0  0.94610  0.18790  0.22975  1.0000 -0.0659530048
C   C60       1.0  0.94610  0.81210  0.77025  1.0000 -0.0659530048
C   C61       1.0  0.60380  0.90430  0.67877  1.0000 0.2498726959
C   C62       1.0  0.60380  0.09570  0.32123  1.0000 0.2498726959
C   C63       1.0  0.10380  0.09570  0.17877  1.0000 0.2498726959
C   C64       1.0  0.10380  0.90430  0.82123  1.0000 0.2498726959
C   C65       1.0  0.59790  0.82320  0.64577  1.0000 -0.2411859908
C   C66       1.0  0.59790  0.17680  0.35423  1.0000 -0.2411859908
C   C67       1.0  0.09790  0.17680  0.14577  1.0000 -0.2411859908
C   C68       1.0  0.09790  0.82320  0.85423  1.0000 -0.2411859908
C   C69       1.0  0.69400  0.99110  0.67335  1.0000 -0.2166452927
C   C70       1.0  0.69400  0.00890  0.32665  1.0000 -0.2166452927
C   C71       1.0  0.19400  0.00890  0.17335  1.0000 -0.2166452927
C   C72       1.0  0.19400  0.99110  0.82665  1.0000 -0.2166452927
C   C73       1.0  0.68060  0.83090  0.60658  1.0000 -0.0983301752
C   C74       1.0  0.68060  0.16910  0.39342  1.0000 -0.0983301752
C   C75       1.0  0.18060  0.16910  0.10658  1.0000 -0.0983301752
C   C76       1.0  0.18060  0.83090  0.89342  1.0000 -0.0983301752
C   C77       1.0  0.77860  0.99640  0.63450  1.0000 -0.0895655898
C   C78       1.0  0.77860  0.00360  0.36550  1.0000 -0.0895655898
C   C79       1.0  0.27860  0.00360  0.13450  1.0000 -0.0895655898
C   C80       1.0  0.27860  0.99640  0.86550  1.0000 -0.0895655898
C   C81       1.0  0.77260  0.91650  0.60071  1.0000 -0.0625935008
C   C82       1.0  0.77260  0.08350  0.39929  1.0000 -0.0625935008
C   C83       1.0  0.27260  0.08350  0.10071  1.0000 -0.0625935008
C   C84       1.0  0.27260  0.91650  0.89929  1.0000 -0.0625935008
C   C85       1.0  0.86260  0.92070  0.55853  1.0000 0.5622432905
C   C86       1.0  0.86260  0.07930  0.44147  1.0000 0.5622432905
C   C87       1.0  0.36260  0.07930  0.05853  1.0000 0.5622432905
C   C88       1.0  0.36260  0.92070  0.94147  1.0000 0.5622432905
C   C89       1.0  0.56060  0.36760  0.04080  1.0000 0.1013703945
C   C90       1.0  0.56060  0.63240  0.95920  1.0000 0.1013703945
C   C91       1.0  0.06060  0.63240  0.54080  1.0000 0.1013703945
C   C92       1.0  0.06060  0.36760  0.45920  1.0000 0.1013703945
C   C93       1.0  0.63620  0.44990  0.06190  1.0000 -0.1395677102
C   C94       1.0  0.63620  0.55010  0.93810  1.0000 -0.1395677102
C   C95       1.0  0.13620  0.55010  0.56190  1.0000 -0.1395677102
C   C96       1.0  0.13620  0.44990  0.43810  1.0000 -0.1395677102
C   C97       1.0  0.77700  0.45140  0.05720  1.0000 -0.1058953998
C   C98       1.0  0.77700  0.54860  0.94280  1.0000 -0.1058953998
C   C99       1.0  0.27700  0.54860  0.55720  1.0000 -0.1058953998
C   C100      1.0  0.27700  0.45140  0.44280  1.0000 -0.1058953998
C   C101      1.0  0.84100  0.36880  0.03207  1.0000 0.0496937277
C   C102      1.0  0.84100  0.63120  0.96793  1.0000 0.0496937277
C   C103      1.0  0.34100  0.63120  0.53207  1.0000 0.0496937277
C   C104      1.0  0.34100  0.36880  0.46793  1.0000 0.0496937277
C   C105      1.0  0.98700  0.36620  0.02391  1.0000 -0.1603817714
C   C106      1.0  0.98700  0.63380  0.97609  1.0000 -0.1603817714
C   C107      1.0  0.48700  0.63380  0.52391  1.0000 -0.1603817714
C   C108      1.0  0.48700  0.36620  0.47609  1.0000 -0.1603817714
C   C109      1.0  0.04500  0.28820  0.99860  1.0000 -0.1191352957
C   C110      1.0  0.04500  0.71180  0.00140  1.0000 -0.1191352957
C   C111      1.0  0.54500  0.71180  0.49860  1.0000 -0.1191352957
C   C112      1.0  0.54500  0.28820  0.50140  1.0000 -0.1191352957
C   C113      1.0  0.96480  0.20260  0.97849  1.0000 0.0496937277
C   C114      1.0  0.96480  0.79740  0.02151  1.0000 0.0496937277
C   C115      1.0  0.46480  0.79740  0.47849  1.0000 0.0496937277
C   C116      1.0  0.46480  0.20260  0.52151  1.0000 0.0496937277
C   C117      1.0  0.01770  0.11840  0.95220  1.0000 -0.0777479854
C   C118      1.0  0.01770  0.88160  0.04780  1.0000 -0.0777479854
C   C119      1.0  0.51770  0.88160  0.45220  1.0000 -0.0777479854
C   C120      1.0  0.51770  0.11840  0.54780  1.0000 -0.0777479854
C   C121      1.0  0.93540  0.03920  0.93420  1.0000 -0.1326655966
C   C122      1.0  0.93540  0.96080  0.06580  1.0000 -0.1326655966
C   C123      1.0  0.43540  0.96080  0.43420  1.0000 -0.1326655966
C   C124      1.0  0.43540  0.03920  0.56580  1.0000 -0.1326655966
C   C125      1.0  0.79310  0.04610  0.94212  1.0000 0.0942675549
C   C126      1.0  0.79310  0.95390  0.05788  1.0000 0.0942675549
C   C127      1.0  0.29310  0.95390  0.44212  1.0000 0.0942675549
C   C128      1.0  0.29310  0.04610  0.55788  1.0000 0.0942675549
C   C129      1.0  0.81950  0.20190  0.98536  1.0000 0.119404496
C   C130      1.0  0.81950  0.79810  0.01464  1.0000 0.119404496
C   C131      1.0  0.31950  0.79810  0.48536  1.0000 0.119404496
C   C132      1.0  0.31950  0.20190  0.51464  1.0000 0.119404496
C   C133      1.0  0.75760  0.28810  0.01221  1.0000 0.110717513
C   C134      1.0  0.75760  0.71190  0.98779  1.0000 0.110717513
C   C135      1.0  0.25760  0.71190  0.51221  1.0000 0.110717513
C   C136      1.0  0.25760  0.28810  0.48779  1.0000 0.110717513
N   N1        1.0  0.61860  0.28870  0.01669  1.0000 -0.2705761564
N   N2        1.0  0.61860  0.71130  0.98331  1.0000 -0.2705761564
N   N3        1.0  0.11860  0.71130  0.51669  1.0000 -0.2705761564
N   N4        1.0  0.11860  0.28870  0.48331  1.0000 -0.2705761564
N   N5        1.0  0.73710  0.12480  0.96726  1.0000 -0.2705761564
N   N6        1.0  0.73710  0.87520  0.03274  1.0000 -0.2705761564
N   N7        1.0  0.23710  0.87520  0.46726  1.0000 -0.2705761564
N   N8        1.0  0.23710  0.12480  0.53274  1.0000 -0.2705761564
O   O1        1.0  0.83740  0.85260  0.52721  1.0000 -0.5363065225
O   O2        1.0  0.83740  0.14740  0.47279  1.0000 -0.5363065225
O   O3        1.0  0.33740  0.14740  0.02721  1.0000 -0.5363065225
O   O4        1.0  0.33740  0.85260  0.97279  1.0000 -0.5363065225
O   O5        1.0  0.36080  0.31150  0.94603  1.0000 -0.5563360673
O   O6        1.0  0.36080  0.68850  0.05397  1.0000 -0.5563360673
O   O7        1.0  0.86080  0.68850  0.44603  1.0000 -0.5563360673
O   O8        1.0  0.86080  0.31150  0.55397  1.0000 -0.5563360673
O   O9        1.0  0.96240  0.98640  0.55704  1.0000 -0.5863765401
O   O10       1.0  0.96240  0.01360  0.44296  1.0000 -0.5863765401
O   O11       1.0  0.46240  0.01360  0.05704  1.0000 -0.5863765401
O   O12       1.0  0.46240  0.98640  0.94296  1.0000 -0.5863765401
O   O13       1.0  0.50120  0.22800  0.89901  1.0000 -0.5466905159
O   O14       1.0  0.50120  0.77200  0.10099  1.0000 -0.5466905159
O   O15       1.0  0.00120  0.77200  0.39901  1.0000 -0.5466905159
O   O16       1.0  0.00120  0.22800  0.60099  1.0000 -0.5466905159
O   O17       1.0  0.26990  0.60820  0.77009  1.0000 -0.1876759154
O   O18       1.0  0.26990  0.39180  0.22991  1.0000 -0.1876759154
O   O19       1.0  0.76990  0.39180  0.27009  1.0000 -0.1876759154
O   O20       1.0  0.76990  0.60820  0.72991  1.0000 -0.1876759154
O   O21       1.0  0.52250  0.90660  0.71794  1.0000 -0.1876759154
O   O22       1.0  0.52250  0.09340  0.28206  1.0000 -0.1876759154
O   O23       1.0  0.02250  0.09340  0.21794  1.0000 -0.1876759154
O   O24       1.0  0.02250  0.90660  0.78206  1.0000 -0.1876759154
