# DDEC6 charges by PACMAN v1.1 (https://github.com/mtap-research/PACMAN-charge/)
data_2009[Ag][nan]3[ASR]3
_chemical_formula_sum              "Ag8 H60 C76 N28 O16"
_cell_length_a       21.9007
_cell_length_b       21.9007
_cell_length_c       12.182
_cell_angle_alpha    87.825
_cell_angle_beta     92.175
_cell_angle_gamma    156.893

_symmetry_space_group_name_H-M    "P 1"
_symmetry_Int_Tables_number       1

loop_
  _symmetry_equiv_pos_as_xyz
  'x, y, z'

loop_
  _atom_site_type_symbol
  _atom_site_label
  _atom_site_symmetry_multiplicity
  _atom_site_fract_x
  _atom_site_fract_y
  _atom_site_fract_z
  _atom_site_occupancy
  _atom_site_charge
Ag  Ag1       1.0  0.63339  0.96123  0.96311  1.0000 0.3488575646
Ag  Ag2       1.0  0.96123  0.63339  0.53689  1.0000 0.3488575646
Ag  Ag3       1.0  0.36661  0.03877  0.03689  1.0000 0.3488575646
Ag  Ag4       1.0  0.03877  0.36661  0.46311  1.0000 0.3488575646
Ag  Ag5       1.0  0.26219  0.43625  0.43103  1.0000 0.3578239508
Ag  Ag6       1.0  0.43625  0.26219  0.06897  1.0000 0.3578239508
Ag  Ag7       1.0  0.73781  0.56375  0.56897  1.0000 0.3578239508
Ag  Ag8       1.0  0.56375  0.73781  0.93103  1.0000 0.3578239508
H   H1        1.0  0.64290  0.05870  0.73040  1.0000 0.1277449321
H   H2        1.0  0.05870  0.64290  0.76960  1.0000 0.1277449321
H   H3        1.0  0.35710  0.94130  0.26960  1.0000 0.1277449321
H   H4        1.0  0.94130  0.35710  0.23040  1.0000 0.1277449321
H   H5        1.0  0.93320  0.33940  0.97220  1.0000 0.111550252
H   H6        1.0  0.33940  0.93320  0.52780  1.0000 0.111550252
H   H7        1.0  0.06680  0.66060  0.02780  1.0000 0.111550252
H   H8        1.0  0.66060  0.06680  0.47220  1.0000 0.111550252
H   H9        1.0  0.67000  0.19280  0.64670  1.0000 0.1204048917
H   H10       1.0  0.19280  0.67000  0.85330  1.0000 0.1204048917
H   H11       1.0  0.33000  0.80720  0.35330  1.0000 0.1204048917
H   H12       1.0  0.80720  0.33000  0.14670  1.0000 0.1204048917
H   H13       1.0  0.78000  0.33760  0.71070  1.0000 0.1390791253
H   H14       1.0  0.33760  0.78000  0.78930  1.0000 0.1390791253
H   H15       1.0  0.22000  0.66240  0.28930  1.0000 0.1390791253
H   H16       1.0  0.66240  0.22000  0.21070  1.0000 0.1390791253
H   H17       1.0  0.05110  0.49030  0.65940  1.0000 0.111550252
H   H18       1.0  0.49030  0.05110  0.84060  1.0000 0.111550252
H   H19       1.0  0.94890  0.50970  0.34060  1.0000 0.111550252
H   H20       1.0  0.50970  0.94890  0.15940  1.0000 0.111550252
H   H21       1.0  0.77010  0.34310  0.48220  1.0000 0.1204048917
H   H22       1.0  0.34310  0.77010  0.01780  1.0000 0.1204048917
H   H23       1.0  0.22990  0.65690  0.51780  1.0000 0.1204048917
H   H24       1.0  0.65690  0.22990  0.98220  1.0000 0.1204048917
H   H25       1.0  0.42460  0.75280  0.17290  1.0000 0.1204048917
H   H26       1.0  0.75280  0.42460  0.32710  1.0000 0.1204048917
H   H27       1.0  0.57540  0.24720  0.82710  1.0000 0.1204048917
H   H28       1.0  0.24720  0.57540  0.67290  1.0000 0.1204048917
H   H29       1.0  0.86940  0.13060  0.14870  1.0000 0.1204048917
H   H30       1.0  0.13060  0.86940  0.35130  1.0000 0.1204048917
H   H31       1.0  0.13060  0.86940  0.85130  1.0000 0.1204048917
H   H32       1.0  0.86940  0.13060  0.64870  1.0000 0.1204048917
H   H33       1.0  0.66200  0.90920  0.43530  1.0000 0.1277449321
H   H34       1.0  0.90920  0.66200  0.06470  1.0000 0.1277449321
H   H35       1.0  0.33800  0.09080  0.56470  1.0000 0.1277449321
H   H36       1.0  0.09080  0.33800  0.93530  1.0000 0.1277449321
H   H37       1.0  0.30760  0.50500  0.14700  1.0000 0.1390791253
H   H38       1.0  0.50500  0.30760  0.35300  1.0000 0.1390791253
H   H39       1.0  0.69240  0.49500  0.85300  1.0000 0.1390791253
H   H40       1.0  0.49500  0.69240  0.64700  1.0000 0.1390791253
H   H41       1.0  0.72080  0.81580  0.15830  1.0000 0.1277449321
H   H42       1.0  0.81580  0.72080  0.34170  1.0000 0.1277449321
H   H43       1.0  0.27920  0.18420  0.84170  1.0000 0.1277449321
H   H44       1.0  0.18420  0.27920  0.65830  1.0000 0.1277449321
H   H45       1.0  0.64560  0.77040  0.43020  1.0000 0.1390791253
H   H46       1.0  0.77040  0.64560  0.06980  1.0000 0.1390791253
H   H47       1.0  0.35440  0.22960  0.56980  1.0000 0.1390791253
H   H48       1.0  0.22960  0.35440  0.93020  1.0000 0.1390791253
H   H49       1.0  0.74900  0.82020  0.36620  1.0000 0.1390791253
H   H50       1.0  0.82020  0.74900  0.13380  1.0000 0.1390791253
H   H51       1.0  0.25100  0.17980  0.63380  1.0000 0.1390791253
H   H52       1.0  0.17980  0.25100  0.86620  1.0000 0.1390791253
H   H53       1.0  0.40640  0.44300  0.32810  1.0000 0.111550252
H   H54       1.0  0.44300  0.40640  0.17190  1.0000 0.111550252
H   H55       1.0  0.59360  0.55700  0.67190  1.0000 0.111550252
H   H56       1.0  0.55700  0.59360  0.82810  1.0000 0.111550252
H   H57       1.0  0.70200  0.73940  0.57230  1.0000 0.1277449321
H   H58       1.0  0.73940  0.70200  0.92770  1.0000 0.1277449321
H   H59       1.0  0.29800  0.26060  0.42770  1.0000 0.1277449321
H   H60       1.0  0.26060  0.29800  0.07230  1.0000 0.1277449321
C   C1        1.0  0.71943  0.14297  0.77780  1.0000 0.0957618604
C   C2        1.0  0.14297  0.71943  0.72220  1.0000 0.0957618604
C   C3        1.0  0.28057  0.85703  0.22220  1.0000 0.0957618604
C   C4        1.0  0.85703  0.28057  0.27780  1.0000 0.0957618604
C   C5        1.0  0.87775  0.29705  0.90770  1.0000 0.1277449321
C   C6        1.0  0.29705  0.87775  0.59230  1.0000 0.1277449321
C   C7        1.0  0.12225  0.70295  0.09230  1.0000 0.1277449321
C   C8        1.0  0.70295  0.12225  0.40770  1.0000 0.1204048917
C   C9        1.0  0.77365  0.29215  0.67760  1.0000 -0.2064814514
C   C10       1.0  0.29215  0.77365  0.82240  1.0000 -0.2064814514
C   C11       1.0  0.22635  0.70785  0.32240  1.0000 -0.2064814514
C   C12       1.0  0.70785  0.22635  0.17760  1.0000 -0.2064814514
C   C13       1.0  0.89162  0.39878  0.58510  1.0000 0.0957618604
C   C14       1.0  0.39878  0.89162  0.91490  1.0000 0.0957618604
C   C15       1.0  0.10838  0.60122  0.41490  1.0000 0.0957618604
C   C16       1.0  0.60122  0.10838  0.08510  1.0000 0.0957618604
C   C17       1.0  0.02994  0.49366  0.59520  1.0000 -0.1687313563
C   C18       1.0  0.49366  0.02994  0.90480  1.0000 -0.1687313563
C   C19       1.0  0.97006  0.50634  0.40480  1.0000 -0.1687313563
C   C20       1.0  0.50634  0.97006  0.09520  1.0000 -0.1687313563
C   C21       1.0  0.86227  0.40573  0.48990  1.0000 -0.1687313563
C   C22       1.0  0.40573  0.86227  0.01010  1.0000 -0.1687313563
C   C23       1.0  0.13773  0.59427  0.51010  1.0000 -0.1687313563
C   C24       1.0  0.59427  0.13773  0.98990  1.0000 -0.1687313563
C   C25       1.0  0.36960  0.67020  0.37950  1.0000 0.530153019
C   C26       1.0  0.67020  0.36960  0.12050  1.0000 0.530153019
C   C27       1.0  0.63040  0.32980  0.62050  1.0000 0.530153019
C   C28       1.0  0.32980  0.63040  0.87950  1.0000 0.530153019
C   C29       1.0  0.51853  0.80787  0.31540  1.0000 -0.0591732881
C   C30       1.0  0.80787  0.51853  0.18460  1.0000 -0.0591732881
C   C31       1.0  0.48147  0.19213  0.68460  1.0000 -0.0591732881
C   C32       1.0  0.19213  0.48147  0.81540  1.0000 -0.0591732881
C   C33       1.0  0.51815  0.82625  0.20520  1.0000 0.0400434748
C   C34       1.0  0.82625  0.51815  0.29480  1.0000 0.0400434748
C   C35       1.0  0.48185  0.17375  0.79480  1.0000 0.0400434748
C   C36       1.0  0.17375  0.48185  0.70520  1.0000 0.0400434748
C   C37       1.0  0.78002  0.04858  0.19120  1.0000 0.0400434748
C   C38       1.0  0.04858  0.78002  0.30880  1.0000 0.0400434748
C   C39       1.0  0.21998  0.95142  0.80880  1.0000 0.0400434748
C   C40       1.0  0.95142  0.21998  0.69120  1.0000 0.0400434748
C   C41       1.0  0.79225  0.04015  0.29980  1.0000 -0.0591732881
C   C42       1.0  0.04015  0.79225  0.20020  1.0000 -0.0591732881
C   C43       1.0  0.20775  0.95985  0.70020  1.0000 -0.0591732881
C   C44       1.0  0.95985  0.20775  0.79980  1.0000 -0.0591732881
C   C45       1.0  0.65790  0.91750  0.36130  1.0000 -0.0974434189
C   C46       1.0  0.91750  0.65790  0.13870  1.0000 -0.0974434189
C   C47       1.0  0.34210  0.08250  0.63870  1.0000 -0.0974434189
C   C48       1.0  0.08250  0.34210  0.86130  1.0000 -0.0974434189
C   C49       1.0  0.94670  0.16130  0.34800  1.0000 0.5035421677
C   C50       1.0  0.16130  0.94670  0.15200  1.0000 0.5035421677
C   C51       1.0  0.05330  0.83870  0.65200  1.0000 0.5035421677
C   C52       1.0  0.83870  0.05330  0.84800  1.0000 0.5035421677
C   C53       1.0  0.39945  0.57155  0.17320  1.0000 0.1601891049
C   C54       1.0  0.57155  0.39945  0.32680  1.0000 0.1601891049
C   C55       1.0  0.60055  0.42845  0.82680  1.0000 0.1601891049
C   C56       1.0  0.42845  0.60055  0.67320  1.0000 0.1601891049
C   C57       1.0  0.62278  0.73962  0.17750  1.0000 0.0867768653
C   C58       1.0  0.73962  0.62278  0.32250  1.0000 0.0867768653
C   C59       1.0  0.37722  0.26038  0.82250  1.0000 0.0867768653
C   C60       1.0  0.26038  0.37722  0.67750  1.0000 0.0867768653
C   C61       1.0  0.64240  0.73340  0.38160  1.0000 -0.2207944564
C   C62       1.0  0.73340  0.64240  0.11840  1.0000 -0.2207944564
C   C63       1.0  0.35760  0.26660  0.61840  1.0000 -0.2207944564
C   C64       1.0  0.26660  0.35760  0.88160  1.0000 -0.2207944564
C   C65       1.0  0.56486  0.60914  0.44030  1.0000 0.0837450043
C   C66       1.0  0.60914  0.56486  0.05970  1.0000 0.0837450043
C   C67       1.0  0.43514  0.39086  0.55970  1.0000 0.0837450043
C   C68       1.0  0.39086  0.43514  0.94030  1.0000 0.0837450043
C   C69       1.0  0.44562  0.46798  0.39730  1.0000 -0.1830594561
C   C70       1.0  0.46798  0.44562  0.10270  1.0000 -0.1830594561
C   C71       1.0  0.55438  0.53202  0.60270  1.0000 -0.1830594561
C   C72       1.0  0.53202  0.55438  0.89730  1.0000 -0.1830594561
C   C73       1.0  0.61987  0.64233  0.54200  1.0000 -0.162648084
C   C74       1.0  0.64233  0.61987  0.95800  1.0000 -0.162648084
C   C75       1.0  0.38013  0.35767  0.45800  1.0000 -0.162648084
C   C76       1.0  0.35767  0.38013  0.04200  1.0000 -0.162648084
N   N1        1.0  0.76640  0.15680  0.86860  1.0000 -0.2877140812
N   N2        1.0  0.15680  0.76640  0.63140  1.0000 -0.2877140812
N   N3        1.0  0.23360  0.84320  0.13140  1.0000 -0.2877140812
N   N4        1.0  0.84320  0.23360  0.36860  1.0000 -0.2877140812
N   N5        1.0  0.90035  0.36805  0.84630  1.0000 -0.262958946
N   N6        1.0  0.36805  0.90035  0.65370  1.0000 -0.262958946
N   N7        1.0  0.09965  0.63195  0.15370  1.0000 -0.262958946
N   N8        1.0  0.63195  0.09965  0.34630  1.0000 -0.262958946
N   N9        1.0  0.79597  0.26503  0.76340  1.0000 0.1601891049
N   N10       1.0  0.26503  0.79597  0.73660  1.0000 0.1601891049
N   N11       1.0  0.20403  0.73497  0.23660  1.0000 0.1601891049
N   N12       1.0  0.73497  0.20403  0.26340  1.0000 0.1601891049
N   N13       1.0  0.64667  0.94533  0.14310  1.0000 -0.2021525636
N   N14       1.0  0.94533  0.64667  0.35690  1.0000 -0.2021525636
N   N15       1.0  0.35333  0.05467  0.85690  1.0000 -0.2021525636
N   N16       1.0  0.05467  0.35333  0.64310  1.0000 -0.2021525636
N   N17       1.0  0.42259  0.57621  0.27700  1.0000 -0.2064814514
N   N18       1.0  0.57621  0.42259  0.22300  1.0000 -0.2064814514
N   N19       1.0  0.57741  0.42379  0.72300  1.0000 -0.2064814514
N   N20       1.0  0.42379  0.57741  0.77700  1.0000 -0.2064814514
N   N21       1.0  0.52306  0.67374  0.10810  1.0000 -0.2669753603
N   N22       1.0  0.67374  0.52306  0.39190  1.0000 -0.2669753603
N   N23       1.0  0.47694  0.32626  0.89190  1.0000 -0.2669753603
N   N24       1.0  0.32626  0.47694  0.60810  1.0000 -0.2669753603
N   N25       1.0  0.56661  0.68419  0.27790  1.0000 0.1601891049
N   N26       1.0  0.68419  0.56661  0.22210  1.0000 0.1601891049
N   N27       1.0  0.43339  0.31581  0.72210  1.0000 0.1601891049
N   N28       1.0  0.31581  0.43339  0.77790  1.0000 0.1601891049
O   O1        1.0  0.37614  0.66106  0.47870  1.0000 -0.5608937613
O   O2        1.0  0.66106  0.37614  0.02130  1.0000 -0.5608937613
O   O3        1.0  0.62386  0.33894  0.52130  1.0000 -0.5608937613
O   O4        1.0  0.33894  0.62386  0.97870  1.0000 -0.5608937613
O   O5        1.0  0.24525  0.56875  0.32970  1.0000 -0.5417488984
O   O6        1.0  0.56875  0.24525  0.17030  1.0000 -0.5417488984
O   O7        1.0  0.75475  0.43125  0.67030  1.0000 -0.5417488984
O   O8        1.0  0.43125  0.75475  0.82970  1.0000 -0.5417488984
O   O9        1.0  0.96340  0.17340  0.44730  1.0000 -0.5159841152
O   O10       1.0  0.17340  0.96340  0.05270  1.0000 -0.5159841152
O   O11       1.0  0.03660  0.82660  0.55270  1.0000 -0.5159841152
O   O12       1.0  0.82660  0.03660  0.94730  1.0000 -0.5146386794
O   O13       1.0  0.05110  0.24650  0.28650  1.0000 -0.5017440564
O   O14       1.0  0.24650  0.05110  0.21350  1.0000 -0.5017440564
O   O15       1.0  0.94890  0.75350  0.71350  1.0000 -0.5017440564
O   O16       1.0  0.75350  0.94890  0.78650  1.0000 -0.5017440564
