# DDEC6 charges by PACMAN v1.1 (https://github.com/mtap-research/PACMAN-charge/)
data_2009[Nd][nan]3[ASR]1
_chemical_formula_sum              "Nd8 P12 H120 C108 N12 O60"
_cell_length_a       20.891
_cell_length_b       7.131
_cell_length_c       27.845
_cell_angle_alpha    90
_cell_angle_beta     107.853
_cell_angle_gamma    90

_symmetry_space_group_name_H-M    "P 1"
_symmetry_Int_Tables_number       1

loop_
  _symmetry_equiv_pos_as_xyz
  'x, y, z'

loop_
  _atom_site_type_symbol
  _atom_site_label
  _atom_site_symmetry_multiplicity
  _atom_site_fract_x
  _atom_site_fract_y
  _atom_site_fract_z
  _atom_site_occupancy
  _atom_site_charge
Nd  Nd1       1.0  0.90940  0.87579  0.66026  1.0000 2.2358722411
Nd  Nd2       1.0  0.09060  0.37579  0.83974  1.0000 2.2358722411
Nd  Nd3       1.0  0.09060  0.12421  0.33974  1.0000 2.2358722411
Nd  Nd4       1.0  0.90940  0.62421  0.16026  1.0000 2.2358722411
Nd  Nd5       1.0  0.74538  0.08219  0.20476  1.0000 2.1799975358
Nd  Nd6       1.0  0.25462  0.58219  0.29524  1.0000 2.1799975358
Nd  Nd7       1.0  0.25462  0.91781  0.79524  1.0000 2.1799975358
Nd  Nd8       1.0  0.74538  0.41781  0.70476  1.0000 2.1799975358
P   P1        1.0  0.91773  0.95510  0.27221  1.0000 1.4283337318
P   P2        1.0  0.08227  0.45510  0.22779  1.0000 1.4283337318
P   P3        1.0  0.08227  0.04490  0.72779  1.0000 1.4283337318
P   P4        1.0  0.91773  0.54490  0.77221  1.0000 1.4283337318
P   P5        1.0  0.74832  0.91890  0.67741  1.0000 1.3448177599
P   P6        1.0  0.25168  0.41890  0.82259  1.0000 1.3448177599
P   P7        1.0  0.25168  0.08110  0.32259  1.0000 1.3448177599
P   P8        1.0  0.74832  0.58110  0.17741  1.0000 1.3448177599
P   P9        1.0  0.86260  0.38040  0.62461  1.0000 1.3895759307
P   P10       1.0  0.13740  0.88040  0.87539  1.0000 1.3895759307
P   P11       1.0  0.13740  0.61960  0.37539  1.0000 1.3895759307
P   P12       1.0  0.86260  0.11960  0.12461  1.0000 1.3895759307
H   H1        1.0  0.98730  0.64650  0.32330  1.0000 0.2675392949
H   H2        1.0  0.01270  0.14650  0.17670  1.0000 0.2675392949
H   H3        1.0  0.01270  0.35350  0.67670  1.0000 0.2675392949
H   H4        1.0  0.98730  0.85350  0.82330  1.0000 0.2675392949
H   H5        1.0  0.61930  0.81810  0.68550  1.0000 0.2778680422
H   H6        1.0  0.38070  0.31810  0.81450  1.0000 0.2778680422
H   H7        1.0  0.38070  0.18190  0.31450  1.0000 0.2778680422
H   H8        1.0  0.61930  0.68190  0.18550  1.0000 0.2778680422
H   H9        1.0  0.61840  0.02200  0.68680  1.0000 0.2778680422
H   H10       1.0  0.38160  0.52200  0.81320  1.0000 0.2778680422
H   H11       1.0  0.38160  0.97800  0.31320  1.0000 0.2778680422
H   H12       1.0  0.61840  0.47800  0.18680  1.0000 0.2778680422
H   H13       1.0  0.79300  0.07720  0.54770  1.0000 0.2778680422
H   H14       1.0  0.20700  0.57720  0.95230  1.0000 0.2778680422
H   H15       1.0  0.20700  0.92280  0.45230  1.0000 0.2778680422
H   H16       1.0  0.79300  0.42280  0.04770  1.0000 0.2778680422
H   H17       1.0  0.76460  0.16360  0.58380  1.0000 0.2778680422
H   H18       1.0  0.23540  0.66360  0.91620  1.0000 0.2778680422
H   H19       1.0  0.23540  0.83640  0.41620  1.0000 0.2778680422
H   H20       1.0  0.76460  0.33640  0.08380  1.0000 0.2778680422
H   H21       1.0  0.90130  0.87760  0.34870  1.0000 0.1392575004
H   H22       1.0  0.09870  0.37760  0.15130  1.0000 0.1392575004
H   H23       1.0  0.09870  0.12240  0.65130  1.0000 0.1392575004
H   H24       1.0  0.90130  0.62240  0.84870  1.0000 0.1392575004
H   H25       1.0  0.85730  0.74660  0.30590  1.0000 0.1392575004
H   H26       1.0  0.14270  0.24660  0.19410  1.0000 0.1392575004
H   H27       1.0  0.14270  0.25340  0.69410  1.0000 0.1392575004
H   H28       1.0  0.85730  0.75340  0.80590  1.0000 0.1392575004
H   H29       1.0  0.98120  0.43220  0.38250  1.0000 0.1205354576
H   H30       1.0  0.01880  0.93220  0.11750  1.0000 0.1205354576
H   H31       1.0  0.01880  0.56780  0.61750  1.0000 0.1205354576
H   H32       1.0  0.98120  0.06780  0.88250  1.0000 0.1205354576
H   H33       1.0  0.90330  0.44320  0.35640  1.0000 0.1205354576
H   H34       1.0  0.09670  0.94320  0.14360  1.0000 0.1205354576
H   H35       1.0  0.09670  0.55680  0.64360  1.0000 0.1205354576
H   H36       1.0  0.90330  0.05680  0.85640  1.0000 0.1205354576
H   H37       1.0  0.83600  0.55420  0.40340  1.0000 0.1110144405
H   H38       1.0  0.16400  0.05420  0.09660  1.0000 0.1110144405
H   H39       1.0  0.16400  0.44580  0.59660  1.0000 0.1110144405
H   H40       1.0  0.83600  0.94580  0.90340  1.0000 0.1110144405
H   H41       1.0  0.82310  0.68400  0.47650  1.0000 0.1110144405
H   H42       1.0  0.17690  0.18400  0.02350  1.0000 0.1110144405
H   H43       1.0  0.17690  0.31600  0.52350  1.0000 0.1110144405
H   H44       1.0  0.82310  0.81600  0.97650  1.0000 0.1110144405
H   H45       1.0  0.01790  0.81940  0.52230  1.0000 0.1205354576
H   H46       1.0  0.98210  0.31940  0.97770  1.0000 0.1205354576
H   H47       1.0  0.98210  0.18060  0.47770  1.0000 0.1205354576
H   H48       1.0  0.01790  0.68060  0.02230  1.0000 0.1205354576
H   H49       1.0  0.03060  0.69190  0.44950  1.0000 0.1280880511
H   H50       1.0  0.96940  0.19190  0.05050  1.0000 0.1280880511
H   H51       1.0  0.96940  0.30810  0.55050  1.0000 0.1280880511
H   H52       1.0  0.03060  0.80810  0.94950  1.0000 0.1280880511
H   H53       1.0  0.65320  0.82350  0.61420  1.0000 0.1392575004
H   H54       1.0  0.34680  0.32350  0.88580  1.0000 0.1392575004
H   H55       1.0  0.34680  0.17650  0.38580  1.0000 0.1392575004
H   H56       1.0  0.65320  0.67650  0.11420  1.0000 0.1392575004
H   H57       1.0  0.65480  0.04280  0.61790  1.0000 0.1280880511
H   H58       1.0  0.34520  0.54280  0.88210  1.0000 0.1280880511
H   H59       1.0  0.34520  0.95720  0.38210  1.0000 0.1280880511
H   H60       1.0  0.65480  0.45720  0.11790  1.0000 0.1280880511
H   H61       1.0  0.53290  0.03160  0.61070  1.0000 0.1205354576
H   H62       1.0  0.46710  0.53160  0.88930  1.0000 0.1205354576
H   H63       1.0  0.46710  0.96840  0.38930  1.0000 0.1205354576
H   H64       1.0  0.53290  0.46840  0.11070  1.0000 0.1205354576
H   H65       1.0  0.53310  0.81150  0.61070  1.0000 0.1205354576
H   H66       1.0  0.46690  0.31150  0.88930  1.0000 0.1205354576
H   H67       1.0  0.46690  0.18850  0.38930  1.0000 0.1205354576
H   H68       1.0  0.53310  0.68850  0.11070  1.0000 0.1205354576
H   H69       1.0  0.49270  0.64140  0.67310  1.0000 0.1205354576
H   H70       1.0  0.50730  0.14140  0.82690  1.0000 0.1205354576
H   H71       1.0  0.50730  0.35860  0.32690  1.0000 0.1205354576
H   H72       1.0  0.49270  0.85860  0.17310  1.0000 0.1205354576
H   H73       1.0  0.42930  0.64000  0.72800  1.0000 0.1110144405
H   H74       1.0  0.57070  0.14000  0.77200  1.0000 0.1110144405
H   H75       1.0  0.57070  0.36000  0.27200  1.0000 0.1110144405
H   H76       1.0  0.42930  0.86000  0.22800  1.0000 0.1110144405
H   H77       1.0  0.40650  0.19830  0.71170  1.0000 0.1205354576
H   H78       1.0  0.59350  0.69830  0.78830  1.0000 0.1205354576
H   H79       1.0  0.59350  0.80170  0.28830  1.0000 0.1205354576
H   H80       1.0  0.40650  0.30170  0.21170  1.0000 0.1205354576
H   H81       1.0  0.47300  0.19780  0.65920  1.0000 0.1205354576
H   H82       1.0  0.52700  0.69780  0.84080  1.0000 0.1205354576
H   H83       1.0  0.52700  0.80220  0.34080  1.0000 0.1205354576
H   H84       1.0  0.47300  0.30220  0.15920  1.0000 0.1205354576
H   H85       1.0  0.76290  0.99380  0.37910  1.0000 0.1392575004
H   H86       1.0  0.23710  0.49380  0.12090  1.0000 0.1392575004
H   H87       1.0  0.23710  0.00620  0.62090  1.0000 0.1392575004
H   H88       1.0  0.76290  0.50620  0.87910  1.0000 0.1392575004
H   H89       1.0  0.74810  0.95920  0.45780  1.0000 0.1280880511
H   H90       1.0  0.25190  0.45920  0.04220  1.0000 0.1280880511
H   H91       1.0  0.25190  0.04080  0.54220  1.0000 0.1280880511
H   H92       1.0  0.74810  0.54080  0.95780  1.0000 0.1280880511
H   H93       1.0  0.68050  0.29950  0.52140  1.0000 0.1205354576
H   H94       1.0  0.31950  0.79950  0.97860  1.0000 0.1205354576
H   H95       1.0  0.31950  0.70050  0.47860  1.0000 0.1205354576
H   H96       1.0  0.68050  0.20050  0.02140  1.0000 0.1205354576
H   H97       1.0  0.67950  0.08110  0.51440  1.0000 0.1280880511
H   H98       1.0  0.32050  0.58110  0.98560  1.0000 0.1280880511
H   H99       1.0  0.32050  0.91890  0.48560  1.0000 0.1280880511
H   H100      1.0  0.67950  0.41890  0.01440  1.0000 0.1280880511
H   H101      1.0  0.79100  0.45570  0.54390  1.0000 0.1479338132
H   H102      1.0  0.20900  0.95570  0.95610  1.0000 0.1479338132
H   H103      1.0  0.20900  0.54430  0.45610  1.0000 0.1479338132
H   H104      1.0  0.79100  0.04430  0.04390  1.0000 0.1479338132
H   H105      1.0  0.84850  0.32170  0.53900  1.0000 0.1479338132
H   H106      1.0  0.15150  0.82170  0.96100  1.0000 0.1479338132
H   H107      1.0  0.15150  0.67830  0.46100  1.0000 0.1479338132
H   H108      1.0  0.84850  0.17830  0.03900  1.0000 0.1479338132
H   H109      1.0  0.67790  0.48070  0.45030  1.0000 0.1280880511
H   H110      1.0  0.32210  0.98070  0.04970  1.0000 0.1280880511
H   H111      1.0  0.32210  0.51930  0.54970  1.0000 0.1280880511
H   H112      1.0  0.67790  0.01930  0.95030  1.0000 0.1280880511
H   H113      1.0  0.69640  0.52210  0.37280  1.0000 0.1205354576
H   H114      1.0  0.30360  0.02210  0.12720  1.0000 0.1205354576
H   H115      1.0  0.30360  0.47790  0.62720  1.0000 0.1205354576
H   H116      1.0  0.69640  0.97790  0.87280  1.0000 0.1205354576
H   H117      1.0  0.74830  0.45220  0.27480  1.0000 0.3729959749
H   H118      1.0  0.25170  0.95220  0.22520  1.0000 0.3729959749
H   H119      1.0  0.25170  0.54780  0.72520  1.0000 0.3729959749
H   H120      1.0  0.74830  0.04780  0.77480  1.0000 0.3729959749
C   C1        1.0  0.90130  0.80370  0.31950  1.0000 -0.391704259
C   C2        1.0  0.09870  0.30370  0.18050  1.0000 -0.391704259
C   C3        1.0  0.09870  0.19630  0.68050  1.0000 -0.391704259
C   C4        1.0  0.90130  0.69630  0.81950  1.0000 -0.391704259
C   C5        1.0  0.94310  0.51710  0.37250  1.0000 -0.1411603554
C   C6        1.0  0.05690  0.01710  0.12750  1.0000 -0.1411603554
C   C7        1.0  0.05690  0.48290  0.62750  1.0000 -0.1411603554
C   C8        1.0  0.94310  0.98290  0.87250  1.0000 -0.1411603554
C   C9        1.0  0.93480  0.60990  0.41940  1.0000 0.1205354576
C   C10       1.0  0.06520  0.10990  0.08060  1.0000 0.1205354576
C   C11       1.0  0.06520  0.39010  0.58060  1.0000 0.1205354576
C   C12       1.0  0.93480  0.89010  0.91940  1.0000 0.1205354576
C   C13       1.0  0.87270  0.60780  0.42730  1.0000 -0.1643859945
C   C14       1.0  0.12730  0.10780  0.07270  1.0000 -0.1643859945
C   C15       1.0  0.12730  0.39220  0.57270  1.0000 -0.1643859945
C   C16       1.0  0.87270  0.89220  0.92730  1.0000 -0.1643859945
C   C17       1.0  0.86490  0.68610  0.47120  1.0000 -0.1216213121
C   C18       1.0  0.13510  0.18610  0.02880  1.0000 -0.1216213121
C   C19       1.0  0.13510  0.31390  0.52880  1.0000 -0.1216213121
C   C20       1.0  0.86490  0.81390  0.97120  1.0000 -0.1216213121
C   C21       1.0  0.91930  0.76650  0.50680  1.0000 -0.0243537622
C   C22       1.0  0.08070  0.26650  0.99320  1.0000 -0.0243537622
C   C23       1.0  0.08070  0.23350  0.49320  1.0000 -0.0243537622
C   C24       1.0  0.91930  0.73350  0.00680  1.0000 -0.0243537622
C   C25       1.0  0.98100  0.76680  0.49840  1.0000 -0.0940286196
C   C26       1.0  0.01900  0.26680  0.00160  1.0000 -0.0940286196
C   C27       1.0  0.01900  0.23320  0.50160  1.0000 -0.0940286196
C   C28       1.0  0.98100  0.73320  0.99840  1.0000 -0.0940286196
C   C29       1.0  0.98870  0.68960  0.45480  1.0000 -0.1323980418
C   C30       1.0  0.01130  0.18960  0.04520  1.0000 -0.1323980418
C   C31       1.0  0.01130  0.31040  0.54520  1.0000 -0.1323980418
C   C32       1.0  0.98870  0.81040  0.95480  1.0000 -0.1323980418
C   C33       1.0  0.91120  0.84810  0.55510  1.0000 0.548932644
C   C34       1.0  0.08880  0.34810  0.94490  1.0000 0.548932644
C   C35       1.0  0.08880  0.15190  0.44490  1.0000 0.548932644
C   C36       1.0  0.91120  0.65190  0.05510  1.0000 0.548932644
C   C37       1.0  0.66160  0.92820  0.63760  1.0000 -0.430086521
C   C38       1.0  0.33840  0.42820  0.86240  1.0000 -0.430086521
C   C39       1.0  0.33840  0.07180  0.36240  1.0000 -0.430086521
C   C40       1.0  0.66160  0.57180  0.13760  1.0000 -0.430086521
C   C41       1.0  0.54060  0.92140  0.63220  1.0000 -0.1323980418
C   C42       1.0  0.45940  0.42140  0.86780  1.0000 -0.1323980418
C   C43       1.0  0.45940  0.07860  0.36780  1.0000 -0.1323980418
C   C44       1.0  0.54060  0.57860  0.13220  1.0000 -0.1323980418
C   C45       1.0  0.49150  0.92060  0.66260  1.0000 0.0994456182
C   C46       1.0  0.50850  0.42060  0.83740  1.0000 0.0994456182
C   C47       1.0  0.50850  0.07940  0.33740  1.0000 0.0994456182
C   C48       1.0  0.49150  0.57940  0.16260  1.0000 0.0994456182
C   C49       1.0  0.47690  0.75380  0.68210  1.0000 -0.1643859945
C   C50       1.0  0.52310  0.25380  0.81790  1.0000 -0.1643859945
C   C51       1.0  0.52310  0.24620  0.31790  1.0000 -0.1643859945
C   C52       1.0  0.47690  0.74620  0.18210  1.0000 -0.1643859945
C   C53       1.0  0.43900  0.75290  0.71500  1.0000 -0.0940286196
C   C54       1.0  0.56100  0.25290  0.78500  1.0000 -0.0940286196
C   C55       1.0  0.56100  0.24710  0.28500  1.0000 -0.0940286196
C   C56       1.0  0.43900  0.74710  0.21500  1.0000 -0.0940286196
C   C57       1.0  0.41520  0.92120  0.72870  1.0000 -0.0394047271
C   C58       1.0  0.58480  0.42120  0.77130  1.0000 -0.0394047271
C   C59       1.0  0.58480  0.07880  0.27130  1.0000 -0.0394047271
C   C60       1.0  0.41520  0.57880  0.22870  1.0000 -0.0394047271
C   C61       1.0  0.42580  0.08690  0.70550  1.0000 -0.0998404227
C   C62       1.0  0.57420  0.58690  0.79450  1.0000 -0.0998404227
C   C63       1.0  0.57420  0.91310  0.29450  1.0000 -0.0998404227
C   C64       1.0  0.42580  0.41310  0.20550  1.0000 -0.0998404227
C   C65       1.0  0.46470  0.08610  0.67350  1.0000 -0.1643859945
C   C66       1.0  0.53530  0.58610  0.82650  1.0000 -0.1643859945
C   C67       1.0  0.53530  0.91390  0.32650  1.0000 -0.1643859945
C   C68       1.0  0.46470  0.41390  0.17350  1.0000 -0.1643859945
C   C69       1.0  0.37850  0.92380  0.76690  1.0000 0.5426694475
C   C70       1.0  0.62150  0.42380  0.73310  1.0000 0.5426694475
C   C71       1.0  0.62150  0.07620  0.23310  1.0000 0.5426694475
C   C72       1.0  0.37850  0.57620  0.26690  1.0000 0.5426694475
C   C73       1.0  0.74380  0.28190  0.31920  1.0000 0.5687805735
C   C74       1.0  0.25620  0.78190  0.18080  1.0000 0.5687805735
C   C75       1.0  0.25620  0.71810  0.68080  1.0000 0.5687805735
C   C76       1.0  0.74380  0.21810  0.81920  1.0000 0.5687805735
C   C77       1.0  0.73230  0.26240  0.36940  1.0000 -0.0394047271
C   C78       1.0  0.26770  0.76240  0.13060  1.0000 -0.0394047271
C   C79       1.0  0.26770  0.73760  0.63060  1.0000 -0.0394047271
C   C80       1.0  0.73230  0.23760  0.86940  1.0000 -0.0394047271
C   C81       1.0  0.74700  0.09320  0.39380  1.0000 -0.0750457398
C   C82       1.0  0.25300  0.59320  0.10620  1.0000 -0.0750457398
C   C83       1.0  0.25300  0.90680  0.60620  1.0000 -0.0750457398
C   C84       1.0  0.74700  0.40680  0.89380  1.0000 -0.0750457398
C   C85       1.0  0.73780  0.07270  0.44080  1.0000 -0.1643859945
C   C86       1.0  0.26220  0.57270  0.05920  1.0000 -0.1643859945
C   C87       1.0  0.26220  0.92730  0.55920  1.0000 -0.1643859945
C   C88       1.0  0.73780  0.42730  0.94080  1.0000 -0.1643859945
C   C89       1.0  0.71360  0.21940  0.46230  1.0000 0.0994456182
C   C90       1.0  0.28640  0.71940  0.03770  1.0000 0.0994456182
C   C91       1.0  0.28640  0.78060  0.53770  1.0000 0.0994456182
C   C92       1.0  0.71360  0.28060  0.96230  1.0000 0.0994456182
C   C93       1.0  0.70530  0.19400  0.51410  1.0000 -0.1411603554
C   C94       1.0  0.29470  0.69400  0.98590  1.0000 -0.1411603554
C   C95       1.0  0.29470  0.80600  0.48590  1.0000 -0.1411603554
C   C96       1.0  0.70530  0.30600  0.01410  1.0000 -0.1411603554
C   C97       1.0  0.81710  0.34500  0.55770  1.0000 -0.3976821429
C   C98       1.0  0.18290  0.84500  0.94230  1.0000 -0.3976821429
C   C99       1.0  0.18290  0.65500  0.44230  1.0000 -0.3976821429
C   C100      1.0  0.81710  0.15500  0.05770  1.0000 -0.3976821429
C   C101      1.0  0.69650  0.38400  0.43650  1.0000 -0.1701474614
C   C102      1.0  0.30350  0.88400  0.06350  1.0000 -0.1701474614
C   C103      1.0  0.30350  0.61600  0.56350  1.0000 -0.1701474614
C   C104      1.0  0.69650  0.11600  0.93650  1.0000 -0.1701474614
C   C105      1.0  0.70670  0.40860  0.38980  1.0000 -0.0940286196
C   C106      1.0  0.29330  0.90860  0.11020  1.0000 -0.0940286196
C   C107      1.0  0.29330  0.59140  0.61020  1.0000 -0.0940286196
C   C108      1.0  0.70670  0.09140  0.88980  1.0000 -0.0940286196
N   N1        1.0  0.95370  0.65350  0.33505  1.0000 -0.2089587613
N   N2        1.0  0.04630  0.15350  0.16495  1.0000 -0.2089587613
N   N3        1.0  0.04630  0.34650  0.66495  1.0000 -0.2089587613
N   N4        1.0  0.95370  0.84650  0.83505  1.0000 -0.2089587613
N   N5        1.0  0.61210  0.92190  0.66620  1.0000 -0.1323980418
N   N6        1.0  0.38790  0.42190  0.83380  1.0000 -0.1323980418
N   N7        1.0  0.38790  0.07810  0.33380  1.0000 -0.1323980418
N   N8        1.0  0.61210  0.57810  0.16620  1.0000 -0.1323980418
N   N9        1.0  0.77170  0.18000  0.55383  1.0000 -0.1411603554
N   N10       1.0  0.22830  0.68000  0.94617  1.0000 -0.1411603554
N   N11       1.0  0.22830  0.82000  0.44617  1.0000 -0.1411603554
N   N12       1.0  0.77170  0.32000  0.05383  1.0000 -0.1411603554
O   O1        1.0  0.96320  0.87620  0.59126  1.0000 -0.6047435678
O   O2        1.0  0.03680  0.37620  0.90874  1.0000 -0.6047435678
O   O3        1.0  0.03680  0.12380  0.40874  1.0000 -0.6047435678
O   O4        1.0  0.96320  0.62380  0.09126  1.0000 -0.6047435678
O   O5        1.0  0.85250  0.87380  0.55728  1.0000 -0.6213452644
O   O6        1.0  0.14750  0.37380  0.94272  1.0000 -0.6213452644
O   O7        1.0  0.14750  0.12620  0.44272  1.0000 -0.6213452644
O   O8        1.0  0.85250  0.62620  0.05728  1.0000 -0.6213452644
O   O9        1.0  0.97970  0.06790  0.29863  1.0000 -0.8638467766
O   O10       1.0  0.02030  0.56790  0.20137  1.0000 -0.8638467766
O   O11       1.0  0.02030  0.93210  0.70137  1.0000 -0.8638467766
O   O12       1.0  0.97970  0.43210  0.79863  1.0000 -0.8638467766
O   O13       1.0  0.85720  0.08180  0.25501  1.0000 -0.8638467766
O   O14       1.0  0.14280  0.58180  0.24499  1.0000 -0.8638467766
O   O15       1.0  0.14280  0.91820  0.74499  1.0000 -0.8638467766
O   O16       1.0  0.85720  0.41820  0.75501  1.0000 -0.8638467766
O   O17       1.0  0.92960  0.82600  0.23270  1.0000 -0.8902794994
O   O18       1.0  0.07040  0.32600  0.26730  1.0000 -0.8902794994
O   O19       1.0  0.07040  0.17400  0.76730  1.0000 -0.8902794994
O   O20       1.0  0.92960  0.67400  0.73270  1.0000 -0.8902794994
O   O21       1.0  0.78980  0.93490  0.64171  1.0000 -0.9128775946
O   O22       1.0  0.21020  0.43490  0.85829  1.0000 -0.9128775946
O   O23       1.0  0.21020  0.06510  0.35829  1.0000 -0.9128775946
O   O24       1.0  0.78980  0.56510  0.14171  1.0000 -0.9128775946
O   O25       1.0  0.75800  0.73720  0.70615  1.0000 -0.9128775946
O   O26       1.0  0.24200  0.23720  0.79385  1.0000 -0.9128775946
O   O27       1.0  0.24200  0.26280  0.29385  1.0000 -0.9128775946
O   O28       1.0  0.75800  0.76280  0.20615  1.0000 -0.9128775946
O   O29       1.0  0.75690  0.08510  0.71347  1.0000 -0.8954134561
O   O30       1.0  0.24310  0.58510  0.78653  1.0000 -0.8954134561
O   O31       1.0  0.24310  0.91490  0.28653  1.0000 -0.8954134561
O   O32       1.0  0.75690  0.41490  0.21347  1.0000 -0.8954134561
O   O33       1.0  0.36620  0.77120  0.78549  1.0000 -0.6482941783
O   O34       1.0  0.63380  0.27120  0.71451  1.0000 -0.6482941783
O   O35       1.0  0.63380  0.22880  0.21451  1.0000 -0.6482941783
O   O36       1.0  0.36620  0.72880  0.28549  1.0000 -0.6482941783
O   O37       1.0  0.35740  0.07720  0.77870  1.0000 -0.6434324957
O   O38       1.0  0.64260  0.57720  0.72130  1.0000 -0.6434324957
O   O39       1.0  0.64260  0.92280  0.22130  1.0000 -0.6434324957
O   O40       1.0  0.35740  0.42280  0.27870  1.0000 -0.6434324957
O   O41       1.0  0.74380  0.45320  0.30310  1.0000 -0.4543860829
O   O42       1.0  0.25620  0.95320  0.19690  1.0000 -0.456193117
O   O43       1.0  0.25620  0.54680  0.69690  1.0000 -0.4543860829
O   O44       1.0  0.74380  0.04680  0.80310  1.0000 -0.4543860829
O   O45       1.0  0.75280  0.14190  0.29633  1.0000 -0.5829172409
O   O46       1.0  0.24720  0.64190  0.20367  1.0000 -0.5829172409
O   O47       1.0  0.24720  0.85810  0.70367  1.0000 -0.5829172409
O   O48       1.0  0.75280  0.35810  0.79633  1.0000 -0.5829172409
O   O49       1.0  0.90070  0.56120  0.62830  1.0000 -0.8797644428
O   O50       1.0  0.09930  0.06120  0.87170  1.0000 -0.8797644428
O   O51       1.0  0.09930  0.43880  0.37170  1.0000 -0.8797644428
O   O52       1.0  0.90070  0.93880  0.12830  1.0000 -0.8797644428
O   O53       1.0  0.90900  0.21270  0.64029  1.0000 -0.8797644428
O   O54       1.0  0.09100  0.71270  0.85971  1.0000 -0.8797644428
O   O55       1.0  0.09100  0.78730  0.35971  1.0000 -0.8797644428
O   O56       1.0  0.90900  0.28730  0.14029  1.0000 -0.8797644428
O   O57       1.0  0.80570  0.38430  0.64755  1.0000 -0.9293537415
O   O58       1.0  0.19430  0.88430  0.85245  1.0000 -0.9293537415
O   O59       1.0  0.19430  0.61570  0.35245  1.0000 -0.9293537415
O   O60       1.0  0.80570  0.11570  0.14755  1.0000 -0.9293537415
