# DDEC6 charges by PACMAN v1.1 (https://github.com/mtap-research/PACMAN-charge/)
data_2009[Zn][nan]3[ASR]12
_chemical_formula_sum              "Zn6 H48 C102 O24 F36"
_cell_length_a       21.26
_cell_length_b       21.26
_cell_length_c       7.73
_cell_angle_alpha    90
_cell_angle_beta     90
_cell_angle_gamma    120

_symmetry_space_group_name_H-M    "P 1"
_symmetry_Int_Tables_number       1

loop_
  _symmetry_equiv_pos_as_xyz
  'x, y, z'

loop_
  _atom_site_type_symbol
  _atom_site_label
  _atom_site_symmetry_multiplicity
  _atom_site_fract_x
  _atom_site_fract_y
  _atom_site_fract_z
  _atom_site_occupancy
  _atom_site_charge
Zn  Zn1       1.0  0.70092  0.40183  0.00000  1.0000 0.9226132451
Zn  Zn2       1.0  0.59817  0.29908  0.33333  1.0000 0.9226132451
Zn  Zn3       1.0  0.70092  0.29908  0.66667  1.0000 0.9226132451
Zn  Zn4       1.0  0.29908  0.59817  0.00000  1.0000 0.9226132451
Zn  Zn5       1.0  0.40183  0.70091  0.33333  1.0000 0.9226132451
Zn  Zn6       1.0  0.29908  0.70091  0.66667  1.0000 0.9226132451
H   H1        1.0  0.84660  0.25420  0.89040  1.0000 0.1271878623
H   H2        1.0  0.74580  0.59240  0.22373  1.0000 0.1271878623
H   H3        1.0  0.40760  0.15340  0.55707  1.0000 0.1271878623
H   H4        1.0  0.15340  0.74580  0.89040  1.0000 0.1271878623
H   H5        1.0  0.25420  0.40760  0.22373  1.0000 0.1271878623
H   H6        1.0  0.59240  0.84660  0.55707  1.0000 0.1271878623
H   H7        1.0  0.25420  0.84660  0.44293  1.0000 0.1271878623
H   H8        1.0  0.59240  0.74580  0.10960  1.0000 0.1271878623
H   H9        1.0  0.15340  0.40760  0.77627  1.0000 0.1271878623
H   H10       1.0  0.74580  0.15340  0.44293  1.0000 0.1271878623
H   H11       1.0  0.40760  0.25420  0.10960  1.0000 0.1271878623
H   H12       1.0  0.84660  0.59240  0.77627  1.0000 0.1271878623
H   H13       1.0  0.92950  0.34270  0.43470  1.0000 0.1236186256
H   H14       1.0  0.65730  0.58680  0.76803  1.0000 0.1236186256
H   H15       1.0  0.41320  0.07050  0.10137  1.0000 0.1236186256
H   H16       1.0  0.07050  0.65730  0.43470  1.0000 0.1236186256
H   H17       1.0  0.34270  0.41320  0.76803  1.0000 0.1236186256
H   H18       1.0  0.58680  0.92950  0.10137  1.0000 0.1236186256
H   H19       1.0  0.34270  0.92950  0.89863  1.0000 0.1236186256
H   H20       1.0  0.58680  0.65730  0.56530  1.0000 0.1236186256
H   H21       1.0  0.07050  0.41320  0.23197  1.0000 0.1236186256
H   H22       1.0  0.65730  0.07050  0.89863  1.0000 0.1236186256
H   H23       1.0  0.41320  0.34270  0.56530  1.0000 0.1236186256
H   H24       1.0  0.92950  0.58680  0.23197  1.0000 0.1236186256
H   H25       1.0  0.84290  0.36220  0.30750  1.0000 0.1271878623
H   H26       1.0  0.63780  0.48070  0.64083  1.0000 0.1271878623
H   H27       1.0  0.51930  0.15710  0.97417  1.0000 0.1271878623
H   H28       1.0  0.15710  0.63780  0.30750  1.0000 0.1271878623
H   H29       1.0  0.36220  0.51930  0.64083  1.0000 0.1271878623
H   H30       1.0  0.48070  0.84290  0.97417  1.0000 0.1271878623
H   H31       1.0  0.36220  0.84290  0.02583  1.0000 0.1271878623
H   H32       1.0  0.48070  0.63780  0.69250  1.0000 0.1271878623
H   H33       1.0  0.15710  0.51930  0.35917  1.0000 0.1271878623
H   H34       1.0  0.63780  0.15710  0.02583  1.0000 0.1271878623
H   H35       1.0  0.51930  0.36220  0.69250  1.0000 0.1271878623
H   H36       1.0  0.84290  0.48070  0.35917  1.0000 0.1271878623
H   H37       1.0  0.93520  0.23670  0.01080  1.0000 0.1144350437
H   H38       1.0  0.76330  0.69850  0.34413  1.0000 0.1144350437
H   H39       1.0  0.30150  0.06480  0.67747  1.0000 0.1144350437
H   H40       1.0  0.06480  0.76330  0.01080  1.0000 0.1144350437
H   H41       1.0  0.23670  0.30150  0.34413  1.0000 0.1144350437
H   H42       1.0  0.69850  0.93520  0.67747  1.0000 0.1144350437
H   H43       1.0  0.23670  0.93520  0.32253  1.0000 0.1144350437
H   H44       1.0  0.69850  0.76330  0.98920  1.0000 0.1144350437
H   H45       1.0  0.06480  0.30150  0.65587  1.0000 0.1144350437
H   H46       1.0  0.76330  0.06480  0.32253  1.0000 0.1144350437
H   H47       1.0  0.30150  0.23670  0.98920  1.0000 0.1144350437
H   H48       1.0  0.93520  0.69850  0.65587  1.0000 0.1144350437
C   C1        1.0  0.78110  0.32240  0.99620  1.0000 0.5912914195
C   C2        1.0  0.67760  0.45870  0.32953  1.0000 0.5912914195
C   C3        1.0  0.54130  0.21890  0.66287  1.0000 0.5912914195
C   C4        1.0  0.21890  0.67760  0.99620  1.0000 0.5912914195
C   C5        1.0  0.32240  0.54130  0.32953  1.0000 0.5912914195
C   C6        1.0  0.45870  0.78110  0.66287  1.0000 0.5912914195
C   C7        1.0  0.32240  0.78110  0.33713  1.0000 0.5912914195
C   C8        1.0  0.45870  0.67760  0.00380  1.0000 0.5912914195
C   C9        1.0  0.21890  0.54130  0.67047  1.0000 0.5912914195
C   C10       1.0  0.67760  0.21890  0.33713  1.0000 0.5912914195
C   C11       1.0  0.54130  0.32240  0.00380  1.0000 0.5912914195
C   C12       1.0  0.78110  0.45870  0.67047  1.0000 0.5912914195
C   C13       1.0  0.86420  0.27300  0.99980  1.0000 -0.0850191893
C   C14       1.0  0.72700  0.59120  0.33313  1.0000 -0.0850191893
C   C15       1.0  0.40880  0.13580  0.66647  1.0000 -0.0850191893
C   C16       1.0  0.13580  0.72700  0.99980  1.0000 -0.0850191893
C   C17       1.0  0.27300  0.40880  0.33313  1.0000 -0.0850191893
C   C18       1.0  0.59120  0.86420  0.66647  1.0000 -0.0850191893
C   C19       1.0  0.27300  0.86420  0.33353  1.0000 -0.0850191893
C   C20       1.0  0.59120  0.72700  0.00020  1.0000 -0.0850191893
C   C21       1.0  0.13580  0.40880  0.66687  1.0000 -0.0850191893
C   C22       1.0  0.72700  0.13580  0.33353  1.0000 -0.0850191893
C   C23       1.0  0.40880  0.27300  0.00020  1.0000 -0.0850191893
C   C24       1.0  0.86420  0.59120  0.66687  1.0000 -0.0850191893
C   C25       1.0  0.91370  0.32520  0.32360  1.0000 -0.1369893881
C   C26       1.0  0.67480  0.58850  0.65693  1.0000 -0.1369893881
C   C27       1.0  0.41150  0.08630  0.99027  1.0000 -0.1369893881
C   C28       1.0  0.08630  0.67480  0.32360  1.0000 -0.1369893881
C   C29       1.0  0.32520  0.41150  0.65693  1.0000 -0.1369893881
C   C30       1.0  0.58850  0.91370  0.99027  1.0000 -0.1369893881
C   C31       1.0  0.32520  0.91370  0.00973  1.0000 -0.1369893881
C   C32       1.0  0.58850  0.67480  0.67640  1.0000 -0.1369893881
C   C33       1.0  0.08630  0.41150  0.34307  1.0000 -0.1369893881
C   C34       1.0  0.67480  0.08630  0.00973  1.0000 -0.1369893881
C   C35       1.0  0.41150  0.32520  0.67640  1.0000 -0.1369893881
C   C36       1.0  0.91370  0.58850  0.34307  1.0000 -0.1369893881
C   C37       1.0  0.86130  0.33700  0.24790  1.0000 -0.081875022
C   C38       1.0  0.66300  0.52430  0.58123  1.0000 -0.081875022
C   C39       1.0  0.47570  0.13870  0.91457  1.0000 -0.081875022
C   C40       1.0  0.13870  0.66300  0.24790  1.0000 -0.081875022
C   C41       1.0  0.33700  0.47570  0.58123  1.0000 -0.081875022
C   C42       1.0  0.52430  0.86130  0.91457  1.0000 -0.081875022
C   C43       1.0  0.33700  0.86130  0.08543  1.0000 -0.081875022
C   C44       1.0  0.52430  0.66300  0.75210  1.0000 -0.081875022
C   C45       1.0  0.13870  0.47570  0.41877  1.0000 -0.081875022
C   C46       1.0  0.66300  0.13870  0.08543  1.0000 -0.081875022
C   C47       1.0  0.47570  0.33700  0.75210  1.0000 -0.081875022
C   C48       1.0  0.86130  0.52430  0.41877  1.0000 -0.081875022
C   C49       1.0  0.83650  0.31080  0.08260  1.0000 -0.039035664
C   C50       1.0  0.68920  0.52570  0.41593  1.0000 -0.039035664
C   C51       1.0  0.47430  0.16350  0.74927  1.0000 -0.039035664
C   C52       1.0  0.16350  0.68920  0.08260  1.0000 -0.039035664
C   C53       1.0  0.31080  0.47430  0.41593  1.0000 -0.039035664
C   C54       1.0  0.52570  0.83650  0.74927  1.0000 -0.039035664
C   C55       1.0  0.31080  0.83650  0.25073  1.0000 -0.039035664
C   C56       1.0  0.52570  0.68920  0.91740  1.0000 -0.039035664
C   C57       1.0  0.16350  0.47430  0.58407  1.0000 -0.039035664
C   C58       1.0  0.68920  0.16350  0.25073  1.0000 -0.039035664
C   C59       1.0  0.47430  0.31080  0.91740  1.0000 -0.039035664
C   C60       1.0  0.83650  0.52570  0.58407  1.0000 -0.039035664
C   C61       1.0  0.00000  0.27650  0.33333  1.0000 -0.2838342072
C   C62       1.0  0.72350  0.72350  0.66667  1.0000 -0.2838342072
C   C63       1.0  0.27650  0.00000  0.00000  1.0000 -0.2838342072
C   C64       1.0  0.00000  0.72350  0.33333  1.0000 -0.2838342072
C   C65       1.0  0.27650  0.27650  0.66667  1.0000 -0.2838342072
C   C66       1.0  0.72350  0.00000  0.00000  1.0000 -0.2838342072
C   C67       1.0  0.91690  0.26180  0.07190  1.0000 -0.1514778765
C   C68       1.0  0.73820  0.65510  0.40523  1.0000 -0.1514778765
C   C69       1.0  0.34490  0.08310  0.73857  1.0000 -0.1514778765
C   C70       1.0  0.08310  0.73820  0.07190  1.0000 -0.1514778765
C   C71       1.0  0.26180  0.34490  0.40523  1.0000 -0.1514778765
C   C72       1.0  0.65510  0.91690  0.73857  1.0000 -0.1514778765
C   C73       1.0  0.26180  0.91690  0.26143  1.0000 -0.1514778765
C   C74       1.0  0.65510  0.73820  0.92810  1.0000 -0.1514778765
C   C75       1.0  0.08310  0.34490  0.59477  1.0000 -0.1514778765
C   C76       1.0  0.73820  0.08310  0.26143  1.0000 -0.1514778765
C   C77       1.0  0.34490  0.26180  0.92810  1.0000 -0.1514778765
C   C78       1.0  0.91690  0.65510  0.59477  1.0000 -0.1514778765
C   C79       1.0  0.94310  0.28870  0.24080  1.0000 0.0748502506
C   C80       1.0  0.71130  0.65440  0.57413  1.0000 0.0758373109
C   C81       1.0  0.34560  0.05690  0.90747  1.0000 0.0748502506
C   C82       1.0  0.05690  0.71130  0.24080  1.0000 0.0758373109
C   C83       1.0  0.28870  0.34560  0.57413  1.0000 0.0758373109
C   C84       1.0  0.65440  0.94310  0.90747  1.0000 0.0748502506
C   C85       1.0  0.28870  0.94310  0.09253  1.0000 0.0748502506
C   C86       1.0  0.65440  0.71130  0.75920  1.0000 0.0748502506
C   C87       1.0  0.05690  0.34560  0.42587  1.0000 0.0758373109
C   C88       1.0  0.71130  0.05690  0.09253  1.0000 0.0748502506
C   C89       1.0  0.34560  0.28870  0.75920  1.0000 0.0748502506
C   C90       1.0  0.94310  0.65440  0.42587  1.0000 0.0758373109
C   C91       1.0  0.95760  0.21260  0.45910  1.0000 0.6577120243
C   C92       1.0  0.78740  0.74500  0.79243  1.0000 0.6577120243
C   C93       1.0  0.25500  0.04240  0.12577  1.0000 0.6577120243
C   C94       1.0  0.04240  0.78740  0.45910  1.0000 0.6577120243
C   C95       1.0  0.21260  0.25500  0.79243  1.0000 0.6577120243
C   C96       1.0  0.74500  0.95760  0.12577  1.0000 0.6577120243
C   C97       1.0  0.21260  0.95760  0.87423  1.0000 0.6577120243
C   C98       1.0  0.74500  0.78740  0.54090  1.0000 0.6577120243
C   C99       1.0  0.04240  0.25500  0.20757  1.0000 0.6577120243
C   C100      1.0  0.78740  0.04240  0.87423  1.0000 0.6577120243
C   C101      1.0  0.25500  0.21260  0.54090  1.0000 0.6577120243
C   C102      1.0  0.95760  0.74500  0.20757  1.0000 0.6577120243
O   O1        1.0  0.76100  0.36160  0.07420  1.0000 -0.5535402777
O   O2        1.0  0.63840  0.39940  0.40753  1.0000 -0.5535402777
O   O3        1.0  0.60060  0.23900  0.74087  1.0000 -0.5535402777
O   O4        1.0  0.23900  0.63840  0.07420  1.0000 -0.5535402777
O   O5        1.0  0.36160  0.60060  0.40753  1.0000 -0.5535402777
O   O6        1.0  0.39940  0.76100  0.74087  1.0000 -0.5535402777
O   O7        1.0  0.36160  0.76100  0.25913  1.0000 -0.5535402777
O   O8        1.0  0.39940  0.63840  0.92580  1.0000 -0.5535402777
O   O9        1.0  0.23900  0.60060  0.59247  1.0000 -0.5535402777
O   O10       1.0  0.63840  0.23900  0.25913  1.0000 -0.5535402777
O   O11       1.0  0.60060  0.36160  0.92580  1.0000 -0.5535402777
O   O12       1.0  0.76100  0.39940  0.59247  1.0000 -0.5535402777
O   O13       1.0  0.75790  0.29350  0.85380  1.0000 -0.5217876615
O   O14       1.0  0.70650  0.46440  0.18713  1.0000 -0.5217876615
O   O15       1.0  0.53560  0.24210  0.52047  1.0000 -0.5217876615
O   O16       1.0  0.24210  0.70650  0.85380  1.0000 -0.5217876615
O   O17       1.0  0.29350  0.53560  0.18713  1.0000 -0.5217876615
O   O18       1.0  0.46440  0.75790  0.52047  1.0000 -0.5217876615
O   O19       1.0  0.29350  0.75790  0.47953  1.0000 -0.5217876615
O   O20       1.0  0.46440  0.70650  0.14620  1.0000 -0.5217876615
O   O21       1.0  0.24210  0.53560  0.81287  1.0000 -0.5217876615
O   O22       1.0  0.70650  0.24210  0.47953  1.0000 -0.5217876615
O   O23       1.0  0.53560  0.29350  0.14620  1.0000 -0.5217876615
O   O24       1.0  0.75790  0.46440  0.81287  1.0000 -0.5217876615
F   F1        1.0  0.92870  0.23050  0.58430  1.0000 -0.1812837404
F   F2        1.0  0.76950  0.69820  0.91763  1.0000 -0.1812837404
F   F3        1.0  0.30180  0.07130  0.25097  1.0000 -0.1812837404
F   F4        1.0  0.07130  0.76950  0.58430  1.0000 -0.1812837404
F   F5        1.0  0.23050  0.30180  0.91763  1.0000 -0.1812837404
F   F6        1.0  0.69820  0.92870  0.25097  1.0000 -0.1812837404
F   F7        1.0  0.23050  0.92870  0.74903  1.0000 -0.1812837404
F   F8        1.0  0.69820  0.76950  0.41570  1.0000 -0.1812837404
F   F9        1.0  0.07130  0.30180  0.08237  1.0000 -0.1812837404
F   F10       1.0  0.76950  0.07130  0.74903  1.0000 -0.1812837404
F   F11       1.0  0.30180  0.23050  0.41570  1.0000 -0.1812837404
F   F12       1.0  0.92870  0.69820  0.08237  1.0000 -0.1812837404
F   F13       1.0  0.99640  0.18640  0.53090  1.0000 -0.1925375313
F   F14       1.0  0.81360  0.81000  0.86423  1.0000 -0.1925375313
F   F15       1.0  0.19000  0.00360  0.19757  1.0000 -0.1925375313
F   F16       1.0  0.00360  0.81360  0.53090  1.0000 -0.1925375313
F   F17       1.0  0.18640  0.19000  0.86423  1.0000 -0.1925375313
F   F18       1.0  0.81000  0.99640  0.19757  1.0000 -0.1925375313
F   F19       1.0  0.18640  0.99640  0.80243  1.0000 -0.1925375313
F   F20       1.0  0.81000  0.81360  0.46910  1.0000 -0.1925375313
F   F21       1.0  0.00360  0.19000  0.13577  1.0000 -0.1925375313
F   F22       1.0  0.81360  0.00360  0.80243  1.0000 -0.1925375313
F   F23       1.0  0.19000  0.18640  0.46910  1.0000 -0.1925375313
F   F24       1.0  0.99640  0.81000  0.13577  1.0000 -0.1925375313
F   F25       1.0  0.90240  0.15580  0.37470  1.0000 -0.1925375313
F   F26       1.0  0.84420  0.74660  0.70803  1.0000 -0.1925375313
F   F27       1.0  0.25340  0.09760  0.04137  1.0000 -0.1925375313
F   F28       1.0  0.09760  0.84420  0.37470  1.0000 -0.1925375313
F   F29       1.0  0.15580  0.25340  0.70803  1.0000 -0.1925375313
F   F30       1.0  0.74660  0.90240  0.04137  1.0000 -0.1925375313
F   F31       1.0  0.15580  0.90240  0.95863  1.0000 -0.1925375313
F   F32       1.0  0.74660  0.84420  0.62530  1.0000 -0.1925375313
F   F33       1.0  0.09760  0.25340  0.29197  1.0000 -0.1925375313
F   F34       1.0  0.84420  0.09760  0.95863  1.0000 -0.1925375313
F   F35       1.0  0.25340  0.15580  0.62530  1.0000 -0.1925375313
F   F36       1.0  0.90240  0.74660  0.29197  1.0000 -0.1925375313
