# DDEC6 charges by PACMAN v1.1 (https://github.com/mtap-research/PACMAN-charge/)
data_2009[Mn][nan]3[ASR]6
_chemical_formula_sum              "Mn4 H40 C56 N8 O16"
_cell_length_a       11.8647
_cell_length_b       11.8647
_cell_length_c       16.343
_cell_angle_alpha    73.3114
_cell_angle_beta     106.689
_cell_angle_gamma    101.249

_symmetry_space_group_name_H-M    "P 1"
_symmetry_Int_Tables_number       1

loop_
  _symmetry_equiv_pos_as_xyz
  'x, y, z'

loop_
  _atom_site_type_symbol
  _atom_site_label
  _atom_site_symmetry_multiplicity
  _atom_site_fract_x
  _atom_site_fract_y
  _atom_site_fract_z
  _atom_site_occupancy
  _atom_site_charge
Mn  Mn1       1.0  0.61570  0.16672  0.45312  1.0000 0.9315942145
Mn  Mn2       1.0  0.16672  0.61570  0.04688  1.0000 0.9315942145
Mn  Mn3       1.0  0.38430  0.83328  0.54688  1.0000 0.9315942145
Mn  Mn4       1.0  0.83328  0.38430  0.95312  1.0000 0.9315942145
H   H1        1.0  0.45320  0.83480  0.96340  1.0000 0.2624164439
H   H2        1.0  0.83480  0.45320  0.53660  1.0000 0.2624164439
H   H3        1.0  0.54680  0.16520  0.03660  1.0000 0.2624164439
H   H4        1.0  0.16520  0.54680  0.46340  1.0000 0.2624164439
H   H5        1.0  0.66350  0.18730  0.72520  1.0000 0.1199107162
H   H6        1.0  0.18730  0.66350  0.77480  1.0000 0.1199107162
H   H7        1.0  0.33650  0.81270  0.27480  1.0000 0.1199107162
H   H8        1.0  0.81270  0.33650  0.22520  1.0000 0.1199107162
H   H9        1.0  0.48530  0.85870  0.75480  1.0000 0.1278398159
H   H10       1.0  0.85870  0.48530  0.74520  1.0000 0.1278398159
H   H11       1.0  0.51470  0.14130  0.24520  1.0000 0.1278398159
H   H12       1.0  0.14130  0.51470  0.25480  1.0000 0.1278398159
H   H13       1.0  0.36190  0.67370  0.92380  1.0000 0.1278398159
H   H14       1.0  0.67370  0.36190  0.57620  1.0000 0.1278398159
H   H15       1.0  0.63810  0.32630  0.07620  1.0000 0.1278398159
H   H16       1.0  0.32630  0.63810  0.42380  1.0000 0.1278398159
H   H17       1.0  0.37640  0.73480  0.82830  1.0000 0.1199107162
H   H18       1.0  0.73480  0.37640  0.67170  1.0000 0.1199107162
H   H19       1.0  0.62360  0.26520  0.17170  1.0000 0.1199107162
H   H20       1.0  0.26520  0.62360  0.32830  1.0000 0.1199107162
H   H21       1.0  0.57680  0.02040  0.95420  1.0000 0.1199107162
H   H22       1.0  0.02040  0.57680  0.54580  1.0000 0.1199107162
H   H23       1.0  0.42320  0.97960  0.04580  1.0000 0.1199107162
H   H24       1.0  0.97960  0.42320  0.45420  1.0000 0.1199107162
H   H25       1.0  0.42250  0.54270  0.81990  1.0000 0.1415690299
H   H26       1.0  0.54270  0.42250  0.68010  1.0000 0.1415690299
H   H27       1.0  0.57750  0.45730  0.18010  1.0000 0.1415690299
H   H28       1.0  0.45730  0.57750  0.31990  1.0000 0.1415690299
H   H29       1.0  0.63710  0.70690  0.99850  1.0000 0.1415690299
H   H30       1.0  0.70690  0.63710  0.50150  1.0000 0.1415690299
H   H31       1.0  0.36290  0.29310  0.00150  1.0000 0.1415690299
H   H32       1.0  0.29310  0.36290  0.49850  1.0000 0.1415690299
H   H33       1.0  0.56570  0.42430  0.84740  1.0000 0.1017091936
H   H34       1.0  0.42430  0.56570  0.65260  1.0000 0.1017091936
H   H35       1.0  0.43430  0.57570  0.15260  1.0000 0.1017091936
H   H36       1.0  0.57570  0.43430  0.34740  1.0000 0.1017091936
H   H37       1.0  0.77550  0.58910  0.01560  1.0000 0.1199107162
H   H38       1.0  0.58910  0.77550  0.48440  1.0000 0.1199107162
H   H39       1.0  0.22450  0.41090  0.98440  1.0000 0.1199107162
H   H40       1.0  0.41090  0.22450  0.51560  1.0000 0.1199107162
C   C1        1.0  0.57420  0.02420  0.72580  1.0000 -0.0179796994
C   C2        1.0  0.02420  0.57420  0.77420  1.0000 -0.0179796994
C   C3        1.0  0.42580  0.97580  0.27420  1.0000 -0.0179796994
C   C4        1.0  0.97580  0.42580  0.22580  1.0000 -0.0179796994
C   C5        1.0  0.51780  0.92220  0.86380  1.0000 0.2315993673
C   C6        1.0  0.92220  0.51780  0.63620  1.0000 0.2315993673
C   C7        1.0  0.48220  0.07780  0.13620  1.0000 0.2315993673
C   C8        1.0  0.07780  0.48220  0.36380  1.0000 0.2315993673
C   C9        1.0  0.62720  0.11940  0.84520  1.0000 -0.0013660939
C   C10       1.0  0.11940  0.62720  0.65480  1.0000 -0.0013660939
C   C11       1.0  0.37280  0.88060  0.15480  1.0000 -0.0013660939
C   C12       1.0  0.88060  0.37280  0.34520  1.0000 -0.0013660939
C   C13       1.0  0.62760  0.12120  0.75940  1.0000 -0.1581778125
C   C14       1.0  0.12120  0.62760  0.74060  1.0000 -0.1581778125
C   C15       1.0  0.37240  0.87880  0.24060  1.0000 -0.1581778125
C   C16       1.0  0.87880  0.37240  0.25940  1.0000 -0.1581778125
C   C17       1.0  0.69080  0.22240  0.88340  1.0000 0.5399654127
C   C18       1.0  0.22240  0.69080  0.61660  1.0000 0.5399654127
C   C19       1.0  0.30920  0.77760  0.11660  1.0000 0.5399654127
C   C20       1.0  0.77760  0.30920  0.38340  1.0000 0.5399654127
C   C21       1.0  0.51270  0.64150  0.90370  1.0000 0.1415690299
C   C22       1.0  0.64150  0.51270  0.59630  1.0000 0.1415690299
C   C23       1.0  0.48730  0.35850  0.09630  1.0000 0.1415690299
C   C24       1.0  0.35850  0.48730  0.40370  1.0000 0.1415690299
C   C25       1.0  0.52000  0.92420  0.77760  1.0000 -0.2109332503
C   C26       1.0  0.92420  0.52000  0.72240  1.0000 -0.2109332503
C   C27       1.0  0.48000  0.07580  0.22240  1.0000 -0.2109332503
C   C28       1.0  0.07580  0.48000  0.27760  1.0000 -0.2109332503
C   C29       1.0  0.57380  0.02440  0.63390  1.0000 0.5859657741
C   C30       1.0  0.02440  0.57380  0.86610  1.0000 0.5859657741
C   C31       1.0  0.42620  0.97560  0.36610  1.0000 0.5859657741
C   C32       1.0  0.97560  0.42620  0.13390  1.0000 0.5859657741
C   C33       1.0  0.41850  0.71790  0.89000  1.0000 -0.1372718932
C   C34       1.0  0.71790  0.41850  0.61000  1.0000 -0.1372718932
C   C35       1.0  0.58150  0.28210  0.11000  1.0000 -0.1372718932
C   C36       1.0  0.28210  0.58150  0.39000  1.0000 -0.1372718932
C   C37       1.0  0.57450  0.02090  0.89670  1.0000 -0.2231805706
C   C38       1.0  0.02090  0.57450  0.60330  1.0000 -0.2231805706
C   C39       1.0  0.42550  0.97910  0.10330  1.0000 -0.2231805706
C   C40       1.0  0.97910  0.42550  0.39670  1.0000 -0.2231805706
C   C41       1.0  0.49410  0.55470  0.86050  1.0000 -0.2109332503
C   C42       1.0  0.55470  0.49410  0.63950  1.0000 -0.2109332503
C   C43       1.0  0.50590  0.44530  0.13950  1.0000 -0.2109332503
C   C44       1.0  0.44530  0.50590  0.36050  1.0000 -0.2109332503
C   C45       1.0  0.62100  0.65160  0.96500  1.0000 -0.1923203849
C   C46       1.0  0.65160  0.62100  0.53500  1.0000 -0.1923203849
C   C47       1.0  0.37900  0.34840  0.03500  1.0000 -0.1923203849
C   C48       1.0  0.34840  0.37900  0.46500  1.0000 -0.1923203849
C   C49       1.0  0.58210  0.48410  0.87690  1.0000 0.0764010651
C   C50       1.0  0.48410  0.58210  0.62310  1.0000 0.0764010651
C   C51       1.0  0.41790  0.51590  0.12310  1.0000 0.0764010651
C   C52       1.0  0.51590  0.41790  0.37690  1.0000 0.0764010651
C   C53       1.0  0.70310  0.57950  0.97520  1.0000 0.062440646
C   C54       1.0  0.57950  0.70310  0.52480  1.0000 0.062440646
C   C55       1.0  0.29690  0.42050  0.02480  1.0000 0.062440646
C   C56       1.0  0.42050  0.29690  0.47520  1.0000 0.062440646
N   N1        1.0  0.46220  0.82780  0.91470  1.0000 -0.3007505545
N   N2        1.0  0.82780  0.46220  0.58530  1.0000 -0.3007505545
N   N3        1.0  0.53780  0.17220  0.08530  1.0000 -0.3007505545
N   N4        1.0  0.17220  0.53780  0.41470  1.0000 -0.3007505545
N   N5        1.0  0.68730  0.49550  0.93120  1.0000 -0.2374407732
N   N6        1.0  0.49550  0.68730  0.56880  1.0000 -0.2374407732
N   N7        1.0  0.31270  0.50450  0.06880  1.0000 -0.2374407732
N   N8        1.0  0.50450  0.31270  0.43120  1.0000 -0.2374407732
O   O1        1.0  0.73890  0.31150  0.83620  1.0000 -0.5582589441
O   O2        1.0  0.31150  0.73890  0.66380  1.0000 -0.5582589441
O   O3        1.0  0.26110  0.68850  0.16380  1.0000 -0.5582589441
O   O4        1.0  0.68850  0.26110  0.33620  1.0000 -0.5582589441
O   O5        1.0  0.69780  0.21600  0.96400  1.0000 -0.5761256599
O   O6        1.0  0.21600  0.69780  0.53600  1.0000 -0.5761256599
O   O7        1.0  0.30220  0.78400  0.03600  1.0000 -0.5714578016
O   O8        1.0  0.78400  0.30220  0.46400  1.0000 -0.5714578016
O   O9        1.0  0.61350  0.12050  0.58810  1.0000 -0.5582589441
O   O10       1.0  0.12050  0.61350  0.91190  1.0000 -0.5582589441
O   O11       1.0  0.38650  0.87950  0.41190  1.0000 -0.5582589441
O   O12       1.0  0.87950  0.38650  0.08810  1.0000 -0.5582589441
O   O13       1.0  0.53620  0.93060  0.60860  1.0000 -0.5714578016
O   O14       1.0  0.93060  0.53620  0.89140  1.0000 -0.5714578016
O   O15       1.0  0.46380  0.06940  0.39140  1.0000 -0.5714578016
O   O16       1.0  0.06940  0.46380  0.10860  1.0000 -0.5714578016
