# DDEC6 charges by PACMAN v1.1 (https://github.com/mtap-research/PACMAN-charge/)
data_2009[Pr][pcu]3[ASR]1
_chemical_formula_sum              "Pr4 H52 C84 O44"
_cell_length_a       9.0167
_cell_length_b       16.8284
_cell_length_c       15.1313
_cell_angle_alpha    90
_cell_angle_beta     103.841
_cell_angle_gamma    90

_symmetry_space_group_name_H-M    "P 1"
_symmetry_Int_Tables_number       1

loop_
  _symmetry_equiv_pos_as_xyz
  'x, y, z'

loop_
  _atom_site_type_symbol
  _atom_site_label
  _atom_site_symmetry_multiplicity
  _atom_site_fract_x
  _atom_site_fract_y
  _atom_site_fract_z
  _atom_site_occupancy
  _atom_site_charge
Pr  Pr1       1.0  0.43271  0.89087  0.03854  1.0000 2.0610581717
Pr  Pr2       1.0  0.06729  0.39087  0.96146  1.0000 2.0610581717
Pr  Pr3       1.0  0.56729  0.10913  0.96146  1.0000 2.0610581717
Pr  Pr4       1.0  0.93271  0.60913  0.03854  1.0000 2.0610581717
H   H1        1.0  0.99560  0.99120  0.86150  1.0000 0.1197488411
H   H2        1.0  0.50440  0.49120  0.13850  1.0000 0.1197488411
H   H3        1.0  0.00440  0.00880  0.13850  1.0000 0.1197488411
H   H4        1.0  0.49560  0.50880  0.86150  1.0000 0.1197488411
H   H5        1.0  0.96690  0.06900  0.91190  1.0000 0.1522793254
H   H6        1.0  0.53310  0.56900  0.08810  1.0000 0.1522793254
H   H7        1.0  0.03310  0.93100  0.08810  1.0000 0.1522793254
H   H8        1.0  0.46690  0.43100  0.91190  1.0000 0.1522793254
H   H9        1.0  0.14630  0.94670  0.78370  1.0000 0.1289069652
H   H10       1.0  0.35370  0.44670  0.21630  1.0000 0.1289069652
H   H11       1.0  0.85370  0.05330  0.21630  1.0000 0.1289069652
H   H12       1.0  0.64630  0.55330  0.78370  1.0000 0.1289069652
H   H13       1.0  0.24230  0.90000  0.66560  1.0000 0.1289069652
H   H14       1.0  0.25770  0.40000  0.33440  1.0000 0.1289069652
H   H15       1.0  0.75770  0.10000  0.33440  1.0000 0.1289069652
H   H16       1.0  0.74230  0.60000  0.66560  1.0000 0.1289069652
H   H17       1.0  0.13460  0.10510  0.53220  1.0000 0.1096571876
H   H18       1.0  0.36540  0.60510  0.46780  1.0000 0.1096571876
H   H19       1.0  0.86540  0.89490  0.46780  1.0000 0.1096571876
H   H20       1.0  0.63460  0.39490  0.53220  1.0000 0.1096571876
H   H21       1.0  0.03480  0.15100  0.64870  1.0000 0.1197488411
H   H22       1.0  0.46520  0.65100  0.35130  1.0000 0.1197488411
H   H23       1.0  0.96520  0.84900  0.35130  1.0000 0.1197488411
H   H24       1.0  0.53480  0.34900  0.64870  1.0000 0.1197488411
H   H25       1.0  0.15120  0.04360  0.42050  1.0000 0.1197488411
H   H26       1.0  0.34880  0.54360  0.57950  1.0000 0.1197488411
H   H27       1.0  0.84880  0.95640  0.57950  1.0000 0.1197488411
H   H28       1.0  0.65120  0.45640  0.42050  1.0000 0.1197488411
H   H29       1.0  0.65160  0.76000  0.36570  1.0000 0.1289069652
H   H30       1.0  0.84840  0.26000  0.63430  1.0000 0.1289069652
H   H31       1.0  0.34840  0.24000  0.63430  1.0000 0.1289069652
H   H32       1.0  0.15160  0.74000  0.36570  1.0000 0.1289069652
H   H33       1.0  0.56820  0.79170  0.49270  1.0000 0.1289069652
H   H34       1.0  0.93180  0.29170  0.50730  1.0000 0.1289069652
H   H35       1.0  0.43180  0.20830  0.50730  1.0000 0.1289069652
H   H36       1.0  0.06820  0.70830  0.49270  1.0000 0.1289069652
H   H37       1.0  0.45030  0.05310  0.26960  1.0000 0.1289069652
H   H38       1.0  0.04970  0.55310  0.73040  1.0000 0.1289069652
H   H39       1.0  0.54970  0.94690  0.73040  1.0000 0.1289069652
H   H40       1.0  0.95030  0.44690  0.26960  1.0000 0.1289069652
H   H41       1.0  0.28860  0.05840  0.20180  1.0000 0.1443647301
H   H42       1.0  0.21140  0.55840  0.79820  1.0000 0.1443647301
H   H43       1.0  0.71140  0.94160  0.79820  1.0000 0.1443647301
H   H44       1.0  0.78860  0.44160  0.20180  1.0000 0.1443647301
H   H45       1.0  0.65210  0.72160  0.24020  1.0000 0.1197488411
H   H46       1.0  0.84790  0.22160  0.75980  1.0000 0.1197488411
H   H47       1.0  0.34790  0.27840  0.75980  1.0000 0.1197488411
H   H48       1.0  0.15210  0.77840  0.24020  1.0000 0.1197488411
H   H49       1.0  0.77810  0.78120  0.22550  1.0000 0.1289069652
H   H50       1.0  0.72190  0.28120  0.77450  1.0000 0.1289069652
H   H51       1.0  0.22190  0.21880  0.77450  1.0000 0.1289069652
H   H52       1.0  0.27810  0.71880  0.22550  1.0000 0.1289069652
C   C1        1.0  0.19400  0.03970  0.93770  1.0000 0.656996437
C   C2        1.0  0.30600  0.53970  0.06230  1.0000 0.656996437
C   C3        1.0  0.80600  0.96030  0.06230  1.0000 0.656996437
C   C4        1.0  0.69400  0.46030  0.93770  1.0000 0.656996437
C   C5        1.0  0.03280  0.04470  0.87740  1.0000 -0.1708959335
C   C6        1.0  0.46720  0.54470  0.12260  1.0000 -0.1708959335
C   C7        1.0  0.96720  0.95530  0.12260  1.0000 -0.1708959335
C   C8        1.0  0.53280  0.45530  0.87740  1.0000 -0.1708959335
C   C9        1.0  0.08290  0.05460  0.72960  1.0000 0.244369336
C   C10       1.0  0.41710  0.55460  0.27040  1.0000 0.244369336
C   C11       1.0  0.91710  0.94540  0.27040  1.0000 0.244369336
C   C12       1.0  0.58290  0.44540  0.72960  1.0000 0.244369336
C   C13       1.0  0.14410  0.97890  0.73340  1.0000 -0.232089776
C   C14       1.0  0.35590  0.47890  0.26660  1.0000 -0.232089776
C   C15       1.0  0.85590  0.02110  0.26660  1.0000 -0.232089776
C   C16       1.0  0.64410  0.52110  0.73340  1.0000 -0.232089776
C   C17       1.0  0.20210  0.95110  0.66210  1.0000 -0.1265049869
C   C18       1.0  0.29790  0.45110  0.33790  1.0000 -0.1265049869
C   C19       1.0  0.79790  0.04890  0.33790  1.0000 -0.1265049869
C   C20       1.0  0.70210  0.54890  0.66210  1.0000 -0.1265049869
C   C21       1.0  0.20220  0.99690  0.58560  1.0000 0.0782773351
C   C22       1.0  0.29780  0.49690  0.41440  1.0000 0.0782773351
C   C23       1.0  0.79780  0.00310  0.41440  1.0000 0.0782773351
C   C24       1.0  0.70220  0.50310  0.58560  1.0000 0.0782773351
C   C25       1.0  0.13770  0.07280  0.58240  1.0000 -0.1597417215
C   C26       1.0  0.36230  0.57280  0.41760  1.0000 -0.1597417215
C   C27       1.0  0.86230  0.92720  0.41760  1.0000 -0.1597417215
C   C28       1.0  0.63770  0.42720  0.58240  1.0000 -0.1597417215
C   C29       1.0  0.07840  0.10060  0.65280  1.0000 -0.2239868263
C   C30       1.0  0.42160  0.60060  0.34720  1.0000 -0.2239868263
C   C31       1.0  0.92160  0.89940  0.34720  1.0000 -0.2239868263
C   C32       1.0  0.57840  0.39940  0.65280  1.0000 -0.2239868263
C   C33       1.0  0.37770  0.90390  0.52050  1.0000 0.3443957647
C   C34       1.0  0.12230  0.40390  0.47950  1.0000 0.3443957647
C   C35       1.0  0.62230  0.09610  0.47950  1.0000 0.3443957647
C   C36       1.0  0.87770  0.59610  0.52050  1.0000 0.3443957647
C   C37       1.0  0.26640  0.96840  0.50910  1.0000 -0.1426811734
C   C38       1.0  0.23360  0.46840  0.49090  1.0000 -0.1426811734
C   C39       1.0  0.73360  0.03160  0.49090  1.0000 -0.1426811734
C   C40       1.0  0.76640  0.53160  0.50910  1.0000 -0.1426811734
C   C41       1.0  0.22320  0.00310  0.42680  1.0000 0.0423639422
C   C42       1.0  0.27680  0.50310  0.57320  1.0000 0.0423639422
C   C43       1.0  0.77680  0.99690  0.57320  1.0000 0.0423639422
C   C44       1.0  0.72320  0.49690  0.42680  1.0000 0.0423639422
C   C45       1.0  0.37780  0.92480  0.35770  1.0000 0.1443647301
C   C46       1.0  0.12220  0.42480  0.64230  1.0000 0.1443647301
C   C47       1.0  0.62220  0.07520  0.64230  1.0000 0.1443647301
C   C48       1.0  0.87780  0.57520  0.35770  1.0000 0.1443647301
C   C49       1.0  0.43190  0.90890  0.28010  1.0000 0.057702935
C   C50       1.0  0.06810  0.40890  0.71990  1.0000 0.057702935
C   C51       1.0  0.56810  0.09110  0.71990  1.0000 0.057702935
C   C52       1.0  0.93190  0.59110  0.28010  1.0000 0.057702935
C   C53       1.0  0.53040  0.84490  0.28310  1.0000 0.1693934916
C   C54       1.0  0.96960  0.34490  0.71690  1.0000 0.1693934916
C   C55       1.0  0.46960  0.15510  0.71690  1.0000 0.1693934916
C   C56       1.0  0.03040  0.65510  0.28310  1.0000 0.1693934916
C   C57       1.0  0.58280  0.80150  0.36370  1.0000 -0.2413587862
C   C58       1.0  0.91720  0.30150  0.63630  1.0000 -0.2413587862
C   C59       1.0  0.41720  0.19850  0.63630  1.0000 -0.2413587862
C   C60       1.0  0.08280  0.69850  0.36370  1.0000 -0.2413587862
C   C61       1.0  0.53230  0.82050  0.43940  1.0000 -0.0917355636
C   C62       1.0  0.96770  0.32050  0.56060  1.0000 -0.0917355636
C   C63       1.0  0.46770  0.17950  0.56060  1.0000 -0.0917355636
C   C64       1.0  0.03230  0.67950  0.43940  1.0000 -0.0917355636
C   C65       1.0  0.42850  0.88170  0.43840  1.0000 -0.1179478088
C   C66       1.0  0.07150  0.38170  0.56160  1.0000 -0.1179478088
C   C67       1.0  0.57150  0.11830  0.56160  1.0000 -0.1179478088
C   C68       1.0  0.92850  0.61830  0.43840  1.0000 -0.1179478088
C   C69       1.0  0.39170  0.03820  0.20940  1.0000 -0.1708959335
C   C70       1.0  0.10830  0.53820  0.79060  1.0000 -0.1708959335
C   C71       1.0  0.60830  0.96180  0.79060  1.0000 -0.1708959335
C   C72       1.0  0.89170  0.46180  0.20940  1.0000 -0.1708959335
C   C73       1.0  0.46370  0.07370  0.13770  1.0000 0.6227021298
C   C74       1.0  0.03630  0.57370  0.86230  1.0000 0.6227021298
C   C75       1.0  0.53630  0.92630  0.86230  1.0000 0.6227021298
C   C76       1.0  0.96370  0.42630  0.13770  1.0000 0.6227021298
C   C77       1.0  0.67350  0.76410  0.20170  1.0000 -0.1915317992
C   C78       1.0  0.82650  0.26410  0.79830  1.0000 -0.1915317992
C   C79       1.0  0.32650  0.23590  0.79830  1.0000 -0.1915317992
C   C80       1.0  0.17350  0.73590  0.20170  1.0000 -0.1915317992
C   C81       1.0  0.65460  0.73370  0.10590  1.0000 0.6822010359
C   C82       1.0  0.84540  0.23370  0.89410  1.0000 0.6822010359
C   C83       1.0  0.34540  0.26630  0.89410  1.0000 0.6822010359
C   C84       1.0  0.15460  0.76630  0.10590  1.0000 0.6822010359
O   O1        1.0  0.21820  0.98290  0.99270  1.0000 -0.662539951
O   O2        1.0  0.28180  0.48290  0.00730  1.0000 -0.662539951
O   O3        1.0  0.78180  0.01710  0.00730  1.0000 -0.662539951
O   O4        1.0  0.71820  0.51710  0.99270  1.0000 -0.662539951
O   O5        1.0  0.28670  0.09330  0.93010  1.0000 -0.6193424383
O   O6        1.0  0.21330  0.59330  0.06990  1.0000 -0.6193424383
O   O7        1.0  0.71330  0.90670  0.06990  1.0000 -0.6193424383
O   O8        1.0  0.78670  0.40670  0.93010  1.0000 -0.6193424383
O   O9        1.0  0.02210  0.08925  0.79530  1.0000 -0.1833584824
O   O10       1.0  0.47790  0.58925  0.20470  1.0000 -0.1833584824
O   O11       1.0  0.97790  0.91075  0.20470  1.0000 -0.1833584824
O   O12       1.0  0.52210  0.41075  0.79530  1.0000 -0.1833584824
O   O13       1.0  0.42960  0.86910  0.59290  1.0000 -0.4109527761
O   O14       1.0  0.07040  0.36910  0.40710  1.0000 -0.4109527761
O   O15       1.0  0.57040  0.13090  0.40710  1.0000 -0.4109527761
O   O16       1.0  0.92960  0.63090  0.59290  1.0000 -0.4109527761
O   O17       1.0  0.27460  0.98453  0.35200  1.0000 -0.0968194971
O   O18       1.0  0.22540  0.48453  0.64800  1.0000 -0.0968194971
O   O19       1.0  0.72540  0.01547  0.64800  1.0000 -0.0968194971
O   O20       1.0  0.77460  0.51547  0.35200  1.0000 -0.0968194971
O   O21       1.0  0.38800  0.95140  0.20080  1.0000 -0.2113319704
O   O22       1.0  0.11200  0.45140  0.79920  1.0000 -0.2113319704
O   O23       1.0  0.61200  0.04860  0.79920  1.0000 -0.2113319704
O   O24       1.0  0.88800  0.54860  0.20080  1.0000 -0.2113319704
O   O25       1.0  0.46300  0.14560  0.12930  1.0000 -0.4974312702
O   O26       1.0  0.03700  0.64560  0.87070  1.0000 -0.4974312702
O   O27       1.0  0.53700  0.85440  0.87070  1.0000 -0.4974312702
O   O28       1.0  0.96300  0.35440  0.12930  1.0000 -0.4974312702
O   O29       1.0  0.52210  0.02730  0.09040  1.0000 -0.7144597093
O   O30       1.0  0.97790  0.52730  0.90960  1.0000 -0.7144597093
O   O31       1.0  0.47790  0.97270  0.90960  1.0000 -0.7144597093
O   O32       1.0  0.02210  0.47270  0.09040  1.0000 -0.7144597093
O   O33       1.0  0.57210  0.82935  0.20345  1.0000 -0.232089776
O   O34       1.0  0.92790  0.32935  0.79655  1.0000 -0.232089776
O   O35       1.0  0.42790  0.17065  0.79655  1.0000 -0.232089776
O   O36       1.0  0.07210  0.67065  0.20345  1.0000 -0.232089776
O   O37       1.0  0.74800  0.68040  0.09890  1.0000 -0.662539951
O   O38       1.0  0.75200  0.18040  0.90110  1.0000 -0.662539951
O   O39       1.0  0.25200  0.31960  0.90110  1.0000 -0.662539951
O   O40       1.0  0.24800  0.81960  0.09890  1.0000 -0.662539951
O   O41       1.0  0.54820  0.75841  0.04420  1.0000 -0.6023275772
O   O42       1.0  0.95180  0.25841  0.95580  1.0000 -0.6023275772
O   O43       1.0  0.45180  0.24159  0.95580  1.0000 -0.6023275772
O   O44       1.0  0.04820  0.74159  0.04420  1.0000 -0.6023275772
