# DDEC6 charges by PACMAN v1.1 (https://github.com/mtap-research/PACMAN-charge/)
data_2009[Cu][nbo]3[ASR]2
_chemical_formula_sum              "Cu6 H48 C84 O24"
_cell_length_a       18.9017
_cell_length_b       18.9017
_cell_length_c       18.9017
_cell_angle_alpha    113.869
_cell_angle_beta     113.869
_cell_angle_gamma    113.869

_symmetry_space_group_name_H-M    "P 1"
_symmetry_Int_Tables_number       1

loop_
  _symmetry_equiv_pos_as_xyz
  'x, y, z'

loop_
  _atom_site_type_symbol
  _atom_site_label
  _atom_site_symmetry_multiplicity
  _atom_site_fract_x
  _atom_site_fract_y
  _atom_site_fract_z
  _atom_site_occupancy
  _atom_site_charge
Cu  Cu1       1.0  0.44809  0.47308  0.02806  1.0000 0.8229775231
Cu  Cu2       1.0  0.47308  0.02806  0.44809  1.0000 0.8229775231
Cu  Cu3       1.0  0.02806  0.44809  0.47308  1.0000 0.8229775231
Cu  Cu4       1.0  0.55191  0.52692  0.97194  1.0000 0.8229775231
Cu  Cu5       1.0  0.52692  0.97194  0.55191  1.0000 0.8229775231
Cu  Cu6       1.0  0.97194  0.55191  0.52692  1.0000 0.8229775231
H   H1        1.0  0.74530  0.13520  0.29300  1.0000 0.1181265216
H   H2        1.0  0.13520  0.29300  0.74530  1.0000 0.1181265216
H   H3        1.0  0.29300  0.74530  0.13520  1.0000 0.1181265216
H   H4        1.0  0.25470  0.86480  0.70700  1.0000 0.1181265216
H   H5        1.0  0.86480  0.70700  0.25470  1.0000 0.1181265216
H   H6        1.0  0.70700  0.25470  0.86480  1.0000 0.1181265216
H   H7        1.0  0.47040  0.98670  0.21870  1.0000 0.1266073636
H   H8        1.0  0.98670  0.21870  0.47040  1.0000 0.1266073636
H   H9        1.0  0.21870  0.47040  0.98670  1.0000 0.1266073636
H   H10       1.0  0.52960  0.01330  0.78130  1.0000 0.1266073636
H   H11       1.0  0.01330  0.78130  0.52960  1.0000 0.1266073636
H   H12       1.0  0.78130  0.52960  0.01330  1.0000 0.1266073636
H   H13       1.0  0.50370  0.14060  0.29190  1.0000 0.1181265216
H   H14       1.0  0.14060  0.29190  0.50370  1.0000 0.1181265216
H   H15       1.0  0.29190  0.50370  0.14060  1.0000 0.1181265216
H   H16       1.0  0.49630  0.85940  0.70810  1.0000 0.1181265216
H   H17       1.0  0.85940  0.70810  0.49630  1.0000 0.1181265216
H   H18       1.0  0.70810  0.49630  0.85940  1.0000 0.1181265216
H   H19       1.0  0.65890  0.29220  0.37090  1.0000 0.1266073636
H   H20       1.0  0.29220  0.37090  0.65890  1.0000 0.1266073636
H   H21       1.0  0.37090  0.65890  0.29220  1.0000 0.1266073636
H   H22       1.0  0.34110  0.70780  0.62910  1.0000 0.1266073636
H   H23       1.0  0.70780  0.62910  0.34110  1.0000 0.1266073636
H   H24       1.0  0.62910  0.34110  0.70780  1.0000 0.1266073636
H   H25       1.0  0.65320  0.96500  0.14640  1.0000 0.1181265216
H   H26       1.0  0.96500  0.14640  0.65320  1.0000 0.1181265216
H   H27       1.0  0.14640  0.65320  0.96500  1.0000 0.1181265216
H   H28       1.0  0.34680  0.03500  0.85360  1.0000 0.1181265216
H   H29       1.0  0.03500  0.85360  0.34680  1.0000 0.1181265216
H   H30       1.0  0.85360  0.34680  0.03500  1.0000 0.1181265216
H   H31       1.0  0.62000  0.81280  0.07440  1.0000 0.1266073636
H   H32       1.0  0.81280  0.07440  0.62000  1.0000 0.1266073636
H   H33       1.0  0.07440  0.62000  0.81280  1.0000 0.1266073636
H   H34       1.0  0.38000  0.18720  0.92560  1.0000 0.1266073636
H   H35       1.0  0.18720  0.92560  0.38000  1.0000 0.1266073636
H   H36       1.0  0.92560  0.38000  0.18720  1.0000 0.1266073636
H   H37       1.0  0.47790  0.74140  0.17480  1.0000 0.1132533092
H   H38       1.0  0.74140  0.17480  0.47790  1.0000 0.1132533092
H   H39       1.0  0.17480  0.47790  0.74140  1.0000 0.1132533092
H   H40       1.0  0.52210  0.25860  0.82520  1.0000 0.1132533092
H   H41       1.0  0.25860  0.82520  0.52210  1.0000 0.1132533092
H   H42       1.0  0.82520  0.52210  0.25860  1.0000 0.1132533092
H   H43       1.0  0.50920  0.89340  0.24560  1.0000 0.1132533092
H   H44       1.0  0.89340  0.24560  0.50920  1.0000 0.1132533092
H   H45       1.0  0.24560  0.50920  0.89340  1.0000 0.1132533092
H   H46       1.0  0.49080  0.10660  0.75440  1.0000 0.1132533092
H   H47       1.0  0.10660  0.75440  0.49080  1.0000 0.1132533092
H   H48       1.0  0.75440  0.49080  0.10660  1.0000 0.1132533092
C   C1        1.0  0.82312  0.32922  0.39802  1.0000 0.5660887759
C   C2        1.0  0.32922  0.39802  0.82312  1.0000 0.5660887759
C   C3        1.0  0.39802  0.82312  0.32922  1.0000 0.5660887759
C   C4        1.0  0.17688  0.67078  0.60198  1.0000 0.5660887759
C   C5        1.0  0.67078  0.60198  0.17688  1.0000 0.5660887759
C   C6        1.0  0.60198  0.17688  0.67078  1.0000 0.5660887759
C   C7        1.0  0.71793  0.22878  0.34097  1.0000 -0.0247963336
C   C8        1.0  0.22878  0.34097  0.71793  1.0000 -0.0247963336
C   C9        1.0  0.34097  0.71793  0.22878  1.0000 -0.0247963336
C   C10       1.0  0.28207  0.77122  0.65903  1.0000 -0.0254943773
C   C11       1.0  0.77122  0.65903  0.28207  1.0000 -0.0247963336
C   C12       1.0  0.65903  0.28207  0.77122  1.0000 -0.0247963336
C   C13       1.0  0.69683  0.13629  0.29397  1.0000 -0.1484302645
C   C14       1.0  0.13629  0.29397  0.69683  1.0000 -0.1484302645
C   C15       1.0  0.29397  0.69683  0.13629  1.0000 -0.1484302645
C   C16       1.0  0.30317  0.86371  0.70603  1.0000 -0.1484302645
C   C17       1.0  0.86371  0.70603  0.30317  1.0000 -0.1484302645
C   C18       1.0  0.70603  0.30317  0.86371  1.0000 -0.1484302645
C   C19       1.0  0.60304  0.04388  0.24770  1.0000 0.059211674
C   C20       1.0  0.04388  0.24770  0.60304  1.0000 0.059211674
C   C21       1.0  0.24770  0.60304  0.04388  1.0000 0.059211674
C   C22       1.0  0.39696  0.95612  0.75230  1.0000 0.059211674
C   C23       1.0  0.95612  0.75230  0.39696  1.0000 0.059211674
C   C24       1.0  0.75230  0.39696  0.95612  1.0000 0.059211674
C   C25       1.0  0.53267  0.04723  0.24854  1.0000 -0.1374349792
C   C26       1.0  0.04723  0.24854  0.53267  1.0000 -0.1374349792
C   C27       1.0  0.24854  0.53267  0.04723  1.0000 -0.1374349792
C   C28       1.0  0.46733  0.95277  0.75146  1.0000 -0.1374349792
C   C29       1.0  0.95277  0.75146  0.46733  1.0000 -0.1374349792
C   C30       1.0  0.75146  0.46733  0.95277  1.0000 -0.1374349792
C   C31       1.0  0.55325  0.14006  0.29359  1.0000 -0.0904722362
C   C32       1.0  0.14006  0.29359  0.55325  1.0000 -0.0904722362
C   C33       1.0  0.29359  0.55325  0.14006  1.0000 -0.0904722362
C   C34       1.0  0.44675  0.85994  0.70641  1.0000 -0.0904722362
C   C35       1.0  0.85994  0.70641  0.44675  1.0000 -0.0904722362
C   C36       1.0  0.70641  0.44675  0.85994  1.0000 -0.0904722362
C   C37       1.0  0.64511  0.23004  0.33999  1.0000 -0.1099931795
C   C38       1.0  0.23004  0.33999  0.64511  1.0000 -0.1099931795
C   C39       1.0  0.33999  0.64511  0.23004  1.0000 -0.1099931795
C   C40       1.0  0.35489  0.76996  0.66001  1.0000 -0.1099931795
C   C41       1.0  0.76996  0.66001  0.35489  1.0000 -0.1099931795
C   C42       1.0  0.66001  0.35489  0.76996  1.0000 -0.1099931795
C   C43       1.0  0.58360  0.94621  0.20272  1.0000 0.0743496295
C   C44       1.0  0.94621  0.20272  0.58360  1.0000 0.0743496295
C   C45       1.0  0.20272  0.58360  0.94621  1.0000 0.0743496295
C   C46       1.0  0.41640  0.05379  0.79728  1.0000 0.0743496295
C   C47       1.0  0.05379  0.79728  0.41640  1.0000 0.0743496295
C   C48       1.0  0.79728  0.41640  0.05379  1.0000 0.0743496295
C   C49       1.0  0.61677  0.91964  0.15172  1.0000 -0.1484302645
C   C50       1.0  0.91964  0.15172  0.61677  1.0000 -0.1484302645
C   C51       1.0  0.15172  0.61677  0.91964  1.0000 -0.1484302645
C   C52       1.0  0.38323  0.08036  0.84828  1.0000 -0.1484302645
C   C53       1.0  0.08036  0.84828  0.38323  1.0000 -0.1484302645
C   C54       1.0  0.84828  0.38323  0.08036  1.0000 -0.1484302645
C   C55       1.0  0.59763  0.82894  0.10910  1.0000 -0.0962066848
C   C56       1.0  0.82894  0.10910  0.59763  1.0000 -0.0962066848
C   C57       1.0  0.10910  0.59763  0.82894  1.0000 -0.0962066848
C   C58       1.0  0.40237  0.17106  0.89090  1.0000 -0.0962066848
C   C59       1.0  0.17106  0.89090  0.40237  1.0000 -0.0962066848
C   C60       1.0  0.89090  0.40237  0.17106  1.0000 -0.0962066848
C   C61       1.0  0.54516  0.76046  0.11725  1.0000 -0.0247963336
C   C62       1.0  0.76046  0.11725  0.54516  1.0000 -0.0247963336
C   C63       1.0  0.11725  0.54516  0.76046  1.0000 -0.0247963336
C   C64       1.0  0.45484  0.23954  0.88275  1.0000 -0.0247963336
C   C65       1.0  0.23954  0.88275  0.45484  1.0000 -0.0247963336
C   C66       1.0  0.88275  0.45484  0.23954  1.0000 -0.0247963336
C   C67       1.0  0.51296  0.78634  0.16857  1.0000 -0.0962066848
C   C68       1.0  0.78634  0.16857  0.51296  1.0000 -0.0962066848
C   C69       1.0  0.16857  0.51296  0.78634  1.0000 -0.0962066848
C   C70       1.0  0.48704  0.21366  0.83143  1.0000 -0.0962066848
C   C71       1.0  0.21366  0.83143  0.48704  1.0000 -0.0962066848
C   C72       1.0  0.83143  0.48704  0.21366  1.0000 -0.0962066848
C   C73       1.0  0.53157  0.87761  0.21106  1.0000 -0.1484302645
C   C74       1.0  0.87761  0.21106  0.53157  1.0000 -0.1484302645
C   C75       1.0  0.21106  0.53157  0.87761  1.0000 -0.1484302645
C   C76       1.0  0.46843  0.12239  0.78894  1.0000 -0.1484302645
C   C77       1.0  0.12239  0.78894  0.46843  1.0000 -0.1484302645
C   C78       1.0  0.78894  0.46843  0.12239  1.0000 -0.1484302645
C   C79       1.0  0.52518  0.66113  0.07183  1.0000 0.564458112
C   C80       1.0  0.66113  0.07183  0.52518  1.0000 0.564458112
C   C81       1.0  0.07183  0.52518  0.66113  1.0000 0.564458112
C   C82       1.0  0.47482  0.33887  0.92817  1.0000 0.564458112
C   C83       1.0  0.33887  0.92817  0.47482  1.0000 0.564458112
C   C84       1.0  0.92817  0.47482  0.33887  1.0000 0.564458112
O   O1        1.0  0.88675  0.32390  0.39863  1.0000 -0.5070530705
O   O2        1.0  0.32390  0.39863  0.88675  1.0000 -0.5070530705
O   O3        1.0  0.39863  0.88675  0.32390  1.0000 -0.5070530705
O   O4        1.0  0.11325  0.67610  0.60137  1.0000 -0.5070530705
O   O5        1.0  0.67610  0.60137  0.11325  1.0000 -0.5070530705
O   O6        1.0  0.60137  0.11325  0.67610  1.0000 -0.5070530705
O   O7        1.0  0.83810  0.41149  0.44246  1.0000 -0.5070530705
O   O8        1.0  0.41149  0.44246  0.83810  1.0000 -0.5070530705
O   O9        1.0  0.44246  0.83810  0.41149  1.0000 -0.5070530705
O   O10       1.0  0.16190  0.58851  0.55754  1.0000 -0.5070530705
O   O11       1.0  0.58851  0.55754  0.16190  1.0000 -0.5070530705
O   O12       1.0  0.55754  0.16190  0.58851  1.0000 -0.5070530705
O   O13       1.0  0.56237  0.64730  0.03161  1.0000 -0.5013212114
O   O14       1.0  0.64730  0.03161  0.56237  1.0000 -0.5013212114
O   O15       1.0  0.03161  0.56237  0.64730  1.0000 -0.5013212114
O   O16       1.0  0.43763  0.35270  0.96839  1.0000 -0.5013212114
O   O17       1.0  0.35270  0.96839  0.43763  1.0000 -0.5013212114
O   O18       1.0  0.96839  0.43763  0.35270  1.0000 -0.5013212114
O   O19       1.0  0.47530  0.60187  0.07975  1.0000 -0.5070530705
O   O20       1.0  0.60187  0.07975  0.47530  1.0000 -0.5070530705
O   O21       1.0  0.07975  0.47530  0.60187  1.0000 -0.5070530705
O   O22       1.0  0.52470  0.39813  0.92025  1.0000 -0.5070530705
O   O23       1.0  0.39813  0.92025  0.52470  1.0000 -0.5070530705
O   O24       1.0  0.92025  0.52470  0.39813  1.0000 -0.5070530705
