# DDEC6 charges by PACMAN v1.1 (https://github.com/mtap-research/PACMAN-charge/)
data_2009[Al][bpq]3[ASR]1
_chemical_formula_sum              "Al4 H20 C32 O20"
_cell_length_a       6.654
_cell_length_b       16.448
_cell_length_c       13.375
_cell_angle_alpha    90
_cell_angle_beta     90
_cell_angle_gamma    90

_symmetry_space_group_name_H-M    "P 1"
_symmetry_Int_Tables_number       1

loop_
  _symmetry_equiv_pos_as_xyz
  'x, y, z'

loop_
  _atom_site_type_symbol
  _atom_site_label
  _atom_site_symmetry_multiplicity
  _atom_site_fract_x
  _atom_site_fract_y
  _atom_site_fract_z
  _atom_site_occupancy
  _atom_site_charge
Al  Al1       1.0  0.24614  0.25262  0.75041  1.0000 1.6200295002
Al  Al2       1.0  0.74628  0.25263  0.75048  1.0000 1.6200295002
Al  Al3       1.0  0.74603  0.75263  0.25041  1.0000 1.6200295002
Al  Al4       1.0  0.24611  0.75261  0.25049  1.0000 1.6200295002
H   H1        1.0  0.67291  0.06165  0.94464  1.0000 0.1088363309
H   H2        1.0  0.17298  0.56126  0.44398  1.0000 0.1088363309
H   H3        1.0  0.31980  0.44308  0.94563  1.0000 0.1088363309
H   H4        1.0  0.81968  0.94247  0.44641  1.0000 0.1088363309
H   H5        1.0  0.31966  0.56200  0.05592  1.0000 0.1088363309
H   H6        1.0  0.81978  0.06140  0.55667  1.0000 0.1088363309
H   H7        1.0  0.67296  0.94268  0.05483  1.0000 0.1088363309
H   H8        1.0  0.17289  0.44240  0.55436  1.0000 0.1088363309
H   H9        1.0  0.31976  0.94269  0.05478  1.0000 0.1088363309
H   H10       1.0  0.81969  0.44239  0.55442  1.0000 0.1088363309
H   H11       1.0  0.67290  0.56173  0.05619  1.0000 0.1088363309
H   H12       1.0  0.17303  0.06166  0.55640  1.0000 0.1088363309
H   H13       1.0  0.67301  0.44281  0.94591  1.0000 0.1088363309
H   H14       1.0  0.17288  0.94273  0.44615  1.0000 0.1088363309
H   H15       1.0  0.31967  0.06167  0.94458  1.0000 0.1088363309
H   H16       1.0  0.81973  0.56125  0.44404  1.0000 0.1088363309
H   H17       1.0  0.49601  0.75308  0.13241  1.0000 0.4486250789
H   H18       1.0  0.49620  0.25299  0.86849  1.0000 0.4486250789
H   H19       1.0  0.99620  0.25278  0.63237  1.0000 0.4486250789
H   H20       1.0  0.99600  0.75284  0.36854  1.0000 0.4486250789
C   C1        1.0  0.81541  0.03664  0.96825  1.0000 -0.0940947863
C   C2        1.0  0.31543  0.53626  0.46768  1.0000 -0.0940947863
C   C3        1.0  0.17730  0.46815  0.96911  1.0000 -0.0940947863
C   C4        1.0  0.67722  0.96767  0.46974  1.0000 -0.0940947863
C   C5        1.0  0.17722  0.53692  0.03234  1.0000 -0.0940947863
C   C6        1.0  0.67730  0.03643  0.53298  1.0000 -0.0940947863
C   C7        1.0  0.81542  0.96785  0.03145  1.0000 -0.0940947863
C   C8        1.0  0.31540  0.46754  0.53097  1.0000 -0.0940947863
C   C9        1.0  0.17726  0.96785  0.03143  1.0000 -0.0940947863
C   C10       1.0  0.67724  0.46754  0.53100  1.0000 -0.0940947863
C   C11       1.0  0.81538  0.53676  0.03249  1.0000 -0.0940947863
C   C12       1.0  0.31546  0.03657  0.53284  1.0000 -0.0940947863
C   C13       1.0  0.81546  0.46800  0.96926  1.0000 -0.0940947863
C   C14       1.0  0.31538  0.96782  0.46961  1.0000 -0.0940947863
C   C15       1.0  0.17724  0.03664  0.96823  1.0000 -0.0940947863
C   C16       1.0  0.67726  0.53626  0.46770  1.0000 -0.0940947863
C   C17       1.0  0.99630  0.07259  0.93560  1.0000 -0.0310960705
C   C18       1.0  0.99625  0.14506  0.86573  1.0000 0.6634976254
C   C19       1.0  0.49635  0.57221  0.43504  1.0000 -0.0310960705
C   C20       1.0  0.49637  0.64475  0.36530  1.0000 0.6634976254
C   C21       1.0  0.99642  0.43233  0.93620  1.0000 -0.0310960705
C   C22       1.0  0.99643  0.36016  0.86586  1.0000 0.6634976254
C   C23       1.0  0.49625  0.93200  0.43667  1.0000 -0.0310960705
C   C24       1.0  0.49618  0.85994  0.36617  1.0000 0.6634976254
C   C25       1.0  0.99625  0.57273  0.06514  1.0000 -0.0310960705
C   C26       1.0  0.99618  0.64511  0.13512  1.0000 0.6634976254
C   C27       1.0  0.49641  0.07245  0.56556  1.0000 -0.0310960705
C   C28       1.0  0.49643  0.14491  0.63541  1.0000 0.6634976254
C   C29       1.0  0.99636  0.93210  0.06443  1.0000 -0.0310960705
C   C30       1.0  0.99636  0.86001  0.13487  1.0000 0.6634976254
C   C31       1.0  0.49631  0.43186  0.56408  1.0000 -0.0310960705
C   C32       1.0  0.49625  0.35989  0.63470  1.0000 0.6634976254
O   O1        1.0  0.16735  0.17417  0.83647  1.0000 -0.6123638241
O   O2        1.0  0.66743  0.67392  0.33614  1.0000 -0.6123638241
O   O3        1.0  0.82541  0.33109  0.83651  1.0000 -0.6123638241
O   O4        1.0  0.32510  0.83100  0.33667  1.0000 -0.6123638241
O   O5        1.0  0.82513  0.67420  0.16440  1.0000 -0.6123638241
O   O6        1.0  0.32533  0.17411  0.66451  1.0000 -0.6123638241
O   O7        1.0  0.16741  0.83104  0.16436  1.0000 -0.6123638241
O   O8        1.0  0.66723  0.33095  0.66427  1.0000 -0.6123638241
O   O9        1.0  0.82533  0.83100  0.16430  1.0000 -0.6123638241
O   O10       1.0  0.32524  0.33093  0.66418  1.0000 -0.6123638241
O   O11       1.0  0.16720  0.67425  0.16437  1.0000 -0.6123638241
O   O12       1.0  0.66751  0.17402  0.66465  1.0000 -0.6123638241
O   O13       1.0  0.16744  0.33118  0.83638  1.0000 -0.6123638241
O   O14       1.0  0.66723  0.83094  0.33670  1.0000 -0.6123638241
O   O15       1.0  0.82512  0.17419  0.83656  1.0000 -0.6123638241
O   O16       1.0  0.32531  0.67396  0.33621  1.0000 -0.6123638241
O   O17       1.0  0.99621  0.25268  0.69682  1.0000 -0.9429685711
O   O18       1.0  0.49605  0.75281  0.19687  1.0000 -0.9429685711
O   O19       1.0  0.99604  0.75271  0.30409  1.0000 -0.9429685711
O   O20       1.0  0.49620  0.25278  0.80404  1.0000 -0.9429685711
