# DDEC6 charges by PACMAN v1.1 (https://github.com/mtap-research/PACMAN-charge/)
data_2009[Cu][kag]3[ASR]1
_chemical_formula_sum              "Cu3 H36 C38 N6 O6"
_cell_length_a       9.3139
_cell_length_b       9.3139
_cell_length_c       13.3133
_cell_angle_alpha    90
_cell_angle_beta     90
_cell_angle_gamma    120

_symmetry_space_group_name_H-M    "P 1"
_symmetry_Int_Tables_number       1

loop_
  _symmetry_equiv_pos_as_xyz
  'x, y, z'

loop_
  _atom_site_type_symbol
  _atom_site_label
  _atom_site_symmetry_multiplicity
  _atom_site_fract_x
  _atom_site_fract_y
  _atom_site_fract_z
  _atom_site_occupancy
  _atom_site_charge
Cu  Cu1       1.0  0.17247  0.84447  0.99943  1.0000 0.756903479
Cu  Cu2       1.0  0.15607  0.32224  0.99828  1.0000 0.756903479
Cu  Cu3       1.0  0.67577  0.83093  0.99870  1.0000 0.756903479
H   H1        1.0  0.33710  0.11132  0.85188  1.0000 0.0896018132
H   H2        1.0  0.37838  0.12844  0.66368  1.0000 0.0992009597
H   H3        1.0  0.04008  0.59726  0.65208  1.0000 0.0992009597
H   H4        1.0  0.02759  0.60199  0.84192  1.0000 0.0896018132
H   H5        1.0  0.37497  0.97822  0.51588  1.0000 0.0807233665
H   H6        1.0  0.10146  0.96034  0.48030  1.0000 0.0807233665
H   H7        1.0  0.89397  0.25713  0.84730  1.0000 0.0896018132
H   H8        1.0  0.87510  0.21416  0.66000  1.0000 0.0992009597
H   H9        1.0  0.40683  0.40467  0.66031  1.0000 0.0992009597
H   H10       1.0  0.40284  0.45411  0.84717  1.0000 0.0992009597
H   H11       1.0  0.04329  0.42153  0.48254  1.0000 0.0896018132
H   H12       1.0  0.23449  0.23531  0.51576  1.0000 0.0896018132
H   H13       1.0  0.77165  0.66115  0.84670  1.0000 0.0896018132
H   H14       1.0  0.73817  0.61983  0.65712  1.0000 0.0992009597
H   H15       1.0  0.54944  0.95937  0.65401  1.0000 0.0992009597
H   H16       1.0  0.57458  0.97333  0.84379  1.0000 0.0896018132
H   H17       1.0  0.56870  0.62188  0.51473  1.0000 0.0896018132
H   H18       1.0  0.84897  0.86786  0.48405  1.0000 0.0896018132
H   H19       1.0  0.36115  0.10706  0.15483  1.0000 0.0896018132
H   H20       1.0  0.33237  0.11758  0.34250  1.0000 0.0992009597
H   H21       1.0  0.99643  0.58458  0.33436  1.0000 0.0992009597
H   H22       1.0  0.05089  0.59713  0.14732  1.0000 0.0896018132
H   H23       1.0  0.27342  0.75858  0.51716  1.0000 0.0896018132
H   H24       1.0  0.99967  0.74150  0.48341  1.0000 0.0807233665
H   H25       1.0  0.88883  0.22620  0.14859  1.0000 0.0896018132
H   H26       1.0  0.87479  0.24985  0.33590  1.0000 0.0992009597
H   H27       1.0  0.40713  0.44195  0.34344  1.0000 0.0992009597
H   H28       1.0  0.39822  0.42517  0.15474  1.0000 0.0896018132
H   H29       1.0  0.25991  0.51349  0.48327  1.0000 0.0896018132
H   H30       1.0  0.01613  0.14151  0.51882  1.0000 0.0807233665
H   H31       1.0  0.74459  0.63768  0.15255  1.0000 0.0896018132
H   H32       1.0  0.78748  0.66389  0.33932  1.0000 0.0992009597
H   H33       1.0  0.59744  0.00453  0.33843  1.0000 0.0992009597
H   H34       1.0  0.54699  0.94894  0.15111  1.0000 0.0896018132
H   H35       1.0  0.47963  0.75052  0.51689  1.0000 0.0896018132
H   H36       1.0  0.76421  0.00005  0.48254  1.0000 0.0896018132
C   C1        1.0  0.27657  0.00113  0.80415  1.0000 0.0807233665
C   C2        1.0  0.29641  0.00915  0.70015  1.0000 -0.1971167299
C   C3        1.0  0.21729  0.86306  0.64322  1.0000 0.1462144082
C   C4        1.0  0.10973  0.71480  0.69338  1.0000 -0.1937855026
C   C5        1.0  0.09923  0.71552  0.79792  1.0000 0.0896018132
C   C6        1.0  0.25535  0.86482  0.53297  1.0000 -0.1971167299
C   C7        1.0  0.00423  0.28967  0.80230  1.0000 0.0807233665
C   C8        1.0  0.99488  0.26424  0.69864  1.0000 -0.1937855026
C   C9        1.0  0.13869  0.29816  0.64509  1.0000 0.1462144082
C   C10       1.0  0.28928  0.37098  0.69834  1.0000 -0.1971167299
C   C11       1.0  0.28997  0.39753  0.80153  1.0000 0.0807233665
C   C12       1.0  0.13215  0.25852  0.53497  1.0000 -0.1937855026
C   C13       1.0  0.72112  0.72233  0.80012  1.0000 0.0807233665
C   C14       1.0  0.70491  0.70313  0.69599  1.0000 -0.1971167299
C   C15       1.0  0.63531  0.78249  0.64204  1.0000 0.1462144082
C   C16       1.0  0.59851  0.89055  0.69432  1.0000 -0.1971167299
C   C17       1.0  0.61387  0.90066  0.79864  1.0000 0.0896018132
C   C18       1.0  0.59550  0.74931  0.53228  1.0000 -0.1971167299
C   C19       1.0  0.28193  0.99478  0.19870  1.0000 0.0807233665
C   C20       1.0  0.26369  0.99898  0.30249  1.0000 -0.1937855026
C   C21       1.0  0.15503  0.85221  0.35382  1.0000 0.1462144082
C   C22       1.0  0.07878  0.70402  0.29806  1.0000 -0.1971167299
C   C23       1.0  0.10554  0.70887  0.19485  1.0000 0.0896018132
C   C24       1.0  0.11907  0.85366  0.46382  1.0000 -0.1937855026
C   C25       1.0  0.00014  0.27668  0.19530  1.0000 0.0807233665
C   C26       1.0  0.99493  0.29079  0.29939  1.0000 -0.1971167299
C   C27       1.0  0.14276  0.35969  0.35530  1.0000 0.1441331898
C   C28       1.0  0.28903  0.39774  0.30328  1.0000 -0.1937855026
C   C29       1.0  0.28531  0.38451  0.19893  1.0000 0.0896018132
C   C30       1.0  0.14531  0.39654  0.46556  1.0000 -0.1937855026
C   C31       1.0  0.71181  0.71578  0.19730  1.0000 0.0807233665
C   C32       1.0  0.73600  0.73203  0.30081  1.0000 -0.1971167299
C   C33       1.0  0.70130  0.84163  0.35393  1.0000 0.1462144082
C   C34       1.0  0.62977  0.91976  0.30036  1.0000 -0.1971167299
C   C35       1.0  0.60396  0.89383  0.19729  1.0000 0.0807233665
C   C36       1.0  0.73690  0.87257  0.46428  1.0000 -0.1971167299
C   C37       1.0  0.33550  0.66720  0.99869  1.0000 0.7907862609
C   C38       1.0  0.99903  0.99839  0.00000  1.0000 0.756903479
N   N1        1.0  0.18489  0.85552  0.85295  1.0000 -0.2230796347
N   N2        1.0  0.14854  0.35211  0.85415  1.0000 -0.2264047841
N   N3        1.0  0.66937  0.81391  0.85151  1.0000 -0.2230796347
N   N4        1.0  0.20237  0.85215  0.14509  1.0000 -0.2230796347
N   N5        1.0  0.14460  0.33151  0.14473  1.0000 -0.2230796347
N   N6        1.0  0.65059  0.79830  0.14481  1.0000 -0.2264047841
O   O1        1.0  0.17406  0.60460  0.99958  1.0000 -0.7007733042
O   O2        1.0  0.92556  0.83621  0.00074  1.0000 -0.6767312144
O   O3        1.0  0.39887  0.56908  0.99949  1.0000 -0.7059311921
O   O4        1.0  0.16157  0.08788  0.99973  1.0000 -0.6767312144
O   O5        1.0  0.43392  0.82912  0.99709  1.0000 -0.7059311921
O   O6        1.0  0.91059  0.07245  0.99949  1.0000 -0.6767312144
