# DDEC6 charges by PACMAN v1.1 (https://github.com/mtap-research/PACMAN-charge/)
data_2009[Cd][pcu]3[ASR]2
_chemical_formula_sum              "Cd6 H64 C112 S16 O32"
_cell_length_a       12.236
_cell_length_b       27.179
_cell_length_c       14.2137
_cell_angle_alpha    90
_cell_angle_beta     124.361
_cell_angle_gamma    90

_symmetry_space_group_name_H-M    "P 1"
_symmetry_Int_Tables_number       1

loop_
  _symmetry_equiv_pos_as_xyz
  'x, y, z'

loop_
  _atom_site_type_symbol
  _atom_site_label
  _atom_site_symmetry_multiplicity
  _atom_site_fract_x
  _atom_site_fract_y
  _atom_site_fract_z
  _atom_site_occupancy
  _atom_site_charge
Cd  Cd1       1.0  0.80490  0.10873  0.90083  1.0000 0.9885534664
Cd  Cd2       1.0  0.19510  0.60873  0.59917  1.0000 0.9885534664
Cd  Cd3       1.0  0.19510  0.89127  0.09917  1.0000 0.9885534664
Cd  Cd4       1.0  0.80490  0.39127  0.40083  1.0000 0.9885534664
Cd  Cd5       1.0  0.00000  0.50000  0.50000  1.0000 1.0991917869
Cd  Cd6       1.0  0.00000  0.00000  0.00000  1.0000 1.0991917869
H   H1        1.0  0.76310  0.25880  0.72110  1.0000 0.1196809518
H   H2        1.0  0.23690  0.75880  0.77890  1.0000 0.1196809518
H   H3        1.0  0.23690  0.74120  0.27890  1.0000 0.1196809518
H   H4        1.0  0.76310  0.24120  0.22110  1.0000 0.1196809518
H   H5        1.0  0.79890  0.34130  0.70020  1.0000 0.132039115
H   H6        1.0  0.20110  0.84130  0.79980  1.0000 0.132039115
H   H7        1.0  0.20110  0.65870  0.29980  1.0000 0.132039115
H   H8        1.0  0.79890  0.15870  0.20020  1.0000 0.132039115
H   H9        1.0  0.89680  0.39150  0.85830  1.0000 0.1099918147
H   H10       1.0  0.10320  0.89150  0.64170  1.0000 0.1099918147
H   H11       1.0  0.10320  0.60850  0.14170  1.0000 0.1099918147
H   H12       1.0  0.89680  0.10850  0.35830  1.0000 0.1099918147
H   H13       1.0  0.94580  0.36170  0.02860  1.0000 0.1099918147
H   H14       1.0  0.05420  0.86170  0.47140  1.0000 0.1099918147
H   H15       1.0  0.05420  0.63830  0.97140  1.0000 0.1099918147
H   H16       1.0  0.94580  0.13830  0.52860  1.0000 0.1099918147
H   H17       1.0  0.16020  0.30830  0.19750  1.0000 0.1099918147
H   H18       1.0  0.83980  0.80830  0.30250  1.0000 0.1099918147
H   H19       1.0  0.83980  0.69170  0.80250  1.0000 0.1099918147
H   H20       1.0  0.16020  0.19170  0.69750  1.0000 0.1099918147
H   H21       1.0  0.37180  0.33820  0.28930  1.0000 0.132039115
H   H22       1.0  0.62820  0.83820  0.21070  1.0000 0.132039115
H   H23       1.0  0.62820  0.66180  0.71070  1.0000 0.132039115
H   H24       1.0  0.37180  0.16180  0.78930  1.0000 0.132039115
H   H25       1.0  0.44010  0.40000  0.42490  1.0000 0.1196809518
H   H26       1.0  0.55990  0.90000  0.07510  1.0000 0.1196809518
H   H27       1.0  0.55990  0.60000  0.57510  1.0000 0.1196809518
H   H28       1.0  0.44010  0.10000  0.92490  1.0000 0.1196809518
H   H29       1.0  0.29510  0.43000  0.46420  1.0000 0.1196809518
H   H30       1.0  0.70490  0.93000  0.03580  1.0000 0.1196809518
H   H31       1.0  0.70490  0.57000  0.53580  1.0000 0.1196809518
H   H32       1.0  0.29510  0.07000  0.96420  1.0000 0.1196809518
H   H33       1.0  0.93320  0.52100  0.25530  1.0000 0.132039115
H   H34       1.0  0.06680  0.02100  0.24470  1.0000 0.132039115
H   H35       1.0  0.06680  0.47900  0.74470  1.0000 0.132039115
H   H36       1.0  0.93320  0.97900  0.75530  1.0000 0.132039115
H   H37       1.0  0.86900  0.47280  0.10090  1.0000 0.1196809518
H   H38       1.0  0.13100  0.97280  0.39910  1.0000 0.1196809518
H   H39       1.0  0.13100  0.52720  0.89910  1.0000 0.1196809518
H   H40       1.0  0.86900  0.02720  0.60090  1.0000 0.1196809518
H   H41       1.0  0.02260  0.45380  0.06010  1.0000 0.1196809518
H   H42       1.0  0.97740  0.95380  0.43990  1.0000 0.1196809518
H   H43       1.0  0.97740  0.54620  0.93990  1.0000 0.1196809518
H   H44       1.0  0.02260  0.04620  0.56010  1.0000 0.1196809518
H   H45       1.0  0.23350  0.48300  0.17130  1.0000 0.1099918147
H   H46       1.0  0.76650  0.98300  0.32870  1.0000 0.1099918147
H   H47       1.0  0.76650  0.51700  0.82870  1.0000 0.1099918147
H   H48       1.0  0.23350  0.01700  0.67130  1.0000 0.1099918147
H   H49       1.0  0.31240  0.57310  0.15520  1.0000 0.1099918147
H   H50       1.0  0.68760  0.07310  0.34480  1.0000 0.1099918147
H   H51       1.0  0.68760  0.42690  0.84480  1.0000 0.1099918147
H   H52       1.0  0.31240  0.92690  0.65520  1.0000 0.1099918147
H   H53       1.0  0.31380  0.60980  0.01060  1.0000 0.1196809518
H   H54       1.0  0.68620  0.10980  0.48940  1.0000 0.1196809518
H   H55       1.0  0.68620  0.39020  0.98940  1.0000 0.1196809518
H   H56       1.0  0.31380  0.89020  0.51060  1.0000 0.1196809518
H   H57       1.0  0.47700  0.59050  0.98360  1.0000 0.1369048824
H   H58       1.0  0.52300  0.09050  0.51640  1.0000 0.1369048824
H   H59       1.0  0.52300  0.40950  0.01640  1.0000 0.1369048824
H   H60       1.0  0.47700  0.90950  0.48360  1.0000 0.1369048824
H   H61       1.0  0.63870  0.53570  0.10010  1.0000 0.132039115
H   H62       1.0  0.36130  0.03570  0.39990  1.0000 0.132039115
H   H63       1.0  0.36130  0.46430  0.89990  1.0000 0.132039115
H   H64       1.0  0.63870  0.96430  0.60010  1.0000 0.132039115
C   C1        1.0  0.81370  0.20640  0.89620  1.0000 0.5631688257
C   C2        1.0  0.18630  0.70640  0.60380  1.0000 0.5631688257
C   C3        1.0  0.18630  0.79360  0.10380  1.0000 0.5631688257
C   C4        1.0  0.81370  0.29360  0.39620  1.0000 0.5631688257
C   C5        1.0  0.83170  0.26050  0.88610  1.0000 -0.0507719161
C   C6        1.0  0.16830  0.76050  0.61390  1.0000 -0.0507719161
C   C7        1.0  0.16830  0.73950  0.11390  1.0000 -0.0507719161
C   C8        1.0  0.83170  0.23950  0.38610  1.0000 -0.0507719161
C   C9        1.0  0.80030  0.27960  0.78390  1.0000 -0.0795797216
C   C10       1.0  0.19970  0.77960  0.71610  1.0000 -0.0795797216
C   C11       1.0  0.19970  0.72040  0.21610  1.0000 -0.0795797216
C   C12       1.0  0.80030  0.22040  0.28390  1.0000 -0.0795797216
C   C13       1.0  0.82230  0.32920  0.77050  1.0000 -0.0878199989
C   C14       1.0  0.17770  0.82920  0.72950  1.0000 -0.0878199989
C   C15       1.0  0.17770  0.67080  0.22950  1.0000 -0.0878199989
C   C16       1.0  0.82230  0.17080  0.27050  1.0000 -0.0878199989
C   C17       1.0  0.87870  0.35880  0.86380  1.0000 -0.07254678
C   C18       1.0  0.12130  0.85880  0.63620  1.0000 -0.07254678
C   C19       1.0  0.12130  0.64120  0.13620  1.0000 -0.07254678
C   C20       1.0  0.87870  0.14120  0.36380  1.0000 -0.07254678
C   C21       1.0  0.90930  0.34060  0.96630  1.0000 -0.1651153247
C   C22       1.0  0.09070  0.84060  0.53370  1.0000 -0.1641335467
C   C23       1.0  0.09070  0.65940  0.03370  1.0000 -0.1641335467
C   C24       1.0  0.90930  0.15940  0.46630  1.0000 -0.1641335467
C   C25       1.0  0.88720  0.29150  0.97980  1.0000 0.0516783839
C   C26       1.0  0.11280  0.79150  0.52020  1.0000 0.0516783839
C   C27       1.0  0.11280  0.70850  0.02020  1.0000 0.0516783839
C   C28       1.0  0.88720  0.20850  0.47980  1.0000 0.0516783839
C   C29       1.0  0.05120  0.40960  0.38880  1.0000 0.6034300943
C   C30       1.0  0.94880  0.90960  0.11120  1.0000 0.6034300943
C   C31       1.0  0.94880  0.59040  0.61120  1.0000 0.6034300943
C   C32       1.0  0.05120  0.09040  0.88880  1.0000 0.6034300943
C   C33       1.0  0.13890  0.38790  0.35830  1.0000 -0.0795797216
C   C34       1.0  0.86110  0.88790  0.14170  1.0000 -0.0795797216
C   C35       1.0  0.86110  0.61210  0.64170  1.0000 -0.0795797216
C   C36       1.0  0.13890  0.11210  0.85830  1.0000 -0.0795797216
C   C37       1.0  0.09640  0.35140  0.27470  1.0000 0.0516783839
C   C38       1.0  0.90360  0.85140  0.22530  1.0000 0.0516783839
C   C39       1.0  0.90360  0.64860  0.72530  1.0000 0.0516783839
C   C40       1.0  0.09640  0.14860  0.77470  1.0000 0.0516783839
C   C41       1.0  0.18740  0.33300  0.25150  1.0000 -0.1651153247
C   C42       1.0  0.81260  0.83300  0.24850  1.0000 -0.1651153247
C   C43       1.0  0.81260  0.66700  0.74850  1.0000 -0.1651153247
C   C44       1.0  0.18740  0.16700  0.75150  1.0000 -0.1651153247
C   C45       1.0  0.31400  0.35070  0.30620  1.0000 -0.0507719161
C   C46       1.0  0.68600  0.85070  0.19380  1.0000 -0.0507719161
C   C47       1.0  0.68600  0.64930  0.69380  1.0000 -0.0507719161
C   C48       1.0  0.31400  0.14930  0.80620  1.0000 -0.0507719161
C   C49       1.0  0.35460  0.38740  0.38690  1.0000 -0.0992872173
C   C50       1.0  0.64540  0.88740  0.11310  1.0000 -0.0992872173
C   C51       1.0  0.64540  0.61260  0.61310  1.0000 -0.0992872173
C   C52       1.0  0.35460  0.11260  0.88690  1.0000 -0.0992872173
C   C53       1.0  0.26660  0.40510  0.41030  1.0000 -0.0795797216
C   C54       1.0  0.73340  0.90510  0.08970  1.0000 -0.0795797216
C   C55       1.0  0.73340  0.59490  0.58970  1.0000 -0.0795797216
C   C56       1.0  0.26660  0.09490  0.91030  1.0000 -0.0795797216
C   C57       1.0  0.15280  0.56320  0.40760  1.0000 0.5856499096
C   C58       1.0  0.84720  0.06320  0.09240  1.0000 0.5856499096
C   C59       1.0  0.84720  0.43680  0.59240  1.0000 0.5856499096
C   C60       1.0  0.15280  0.93680  0.90760  1.0000 0.5856499096
C   C61       1.0  0.11920  0.53310  0.30570  1.0000 -0.0507719161
C   C62       1.0  0.88080  0.03310  0.19430  1.0000 -0.0507719161
C   C63       1.0  0.88080  0.46690  0.69430  1.0000 -0.0507719161
C   C64       1.0  0.11920  0.96690  0.80570  1.0000 -0.0507719161
C   C65       1.0  0.99420  0.51380  0.23780  1.0000 -0.0992872173
C   C66       1.0  0.00580  0.01380  0.26220  1.0000 -0.0992872173
C   C67       1.0  0.00580  0.48620  0.76220  1.0000 -0.0992872173
C   C68       1.0  0.99420  0.98620  0.73780  1.0000 -0.0992872173
C   C69       1.0  0.95510  0.48480  0.14620  1.0000 -0.0992872173
C   C70       1.0  0.04490  0.98480  0.35380  1.0000 -0.0992872173
C   C71       1.0  0.04490  0.51520  0.85380  1.0000 -0.0992872173
C   C72       1.0  0.95510  0.01520  0.64620  1.0000 -0.0992872173
C   C73       1.0  0.04720  0.47360  0.12250  1.0000 -0.0795797216
C   C74       1.0  0.95280  0.97360  0.37750  1.0000 -0.0795797216
C   C75       1.0  0.95280  0.52640  0.87750  1.0000 -0.0795797216
C   C76       1.0  0.04720  0.02640  0.62250  1.0000 -0.0795797216
C   C77       1.0  0.17290  0.49110  0.18870  1.0000 -0.1504555601
C   C78       1.0  0.82710  0.99110  0.31130  1.0000 -0.1504555601
C   C79       1.0  0.82710  0.50890  0.81130  1.0000 -0.1504555601
C   C80       1.0  0.17290  0.00890  0.68870  1.0000 -0.1445949803
C   C81       1.0  0.21220  0.52110  0.28310  1.0000 0.0516783839
C   C82       1.0  0.78780  0.02110  0.21690  1.0000 0.0516783839
C   C83       1.0  0.78780  0.47890  0.71690  1.0000 0.0516783839
C   C84       1.0  0.21220  0.97890  0.78310  1.0000 0.0516783839
C   C85       1.0  0.47540  0.53090  0.21750  1.0000 0.0396611384
C   C86       1.0  0.52460  0.03090  0.28250  1.0000 0.0396611384
C   C87       1.0  0.52460  0.46910  0.78250  1.0000 0.0396611384
C   C88       1.0  0.47540  0.96910  0.71750  1.0000 0.0396611384
C   C89       1.0  0.37880  0.56510  0.14470  1.0000 -0.1504555601
C   C90       1.0  0.62120  0.06510  0.35530  1.0000 -0.1504555601
C   C91       1.0  0.62120  0.43490  0.85530  1.0000 -0.1504555601
C   C92       1.0  0.37880  0.93490  0.64470  1.0000 -0.1504555601
C   C93       1.0  0.37930  0.58720  0.05820  1.0000 -0.07254678
C   C94       1.0  0.62070  0.08720  0.44180  1.0000 -0.07254678
C   C95       1.0  0.62070  0.41280  0.94180  1.0000 -0.07254678
C   C96       1.0  0.37930  0.91280  0.55820  1.0000 -0.07254678
C   C97       1.0  0.47660  0.57570  0.04240  1.0000 -0.0795797216
C   C98       1.0  0.52340  0.07570  0.45760  1.0000 -0.0795797216
C   C99       1.0  0.52340  0.42430  0.95760  1.0000 -0.0795797216
C   C100      1.0  0.47660  0.92430  0.54240  1.0000 -0.0795797216
C   C101      1.0  0.57280  0.54300  0.11160  1.0000 -0.0992872173
C   C102      1.0  0.42720  0.04300  0.38840  1.0000 -0.0992872173
C   C103      1.0  0.42720  0.45700  0.88840  1.0000 -0.0992872173
C   C104      1.0  0.57280  0.95700  0.61160  1.0000 -0.0992872173
C   C105      1.0  0.57380  0.52020  0.19970  1.0000 -0.0432836207
C   C106      1.0  0.42620  0.02020  0.30030  1.0000 -0.0432836207
C   C107      1.0  0.42620  0.47980  0.80030  1.0000 -0.0432836207
C   C108      1.0  0.57380  0.97980  0.69970  1.0000 -0.0432836207
C   C109      1.0  0.68160  0.48380  0.27510  1.0000 0.5856499096
C   C110      1.0  0.31840  0.98380  0.22490  1.0000 0.5856499096
C   C111      1.0  0.31840  0.51620  0.72490  1.0000 0.5856499096
C   C112      1.0  0.68160  0.01620  0.77510  1.0000 0.5856499096
S   S1        1.0  0.48440  0.50155  0.33300  1.0000 0.0346704741
S   S2        1.0  0.51560  0.00155  0.16700  1.0000 0.0346704741
S   S3        1.0  0.51560  0.49845  0.66700  1.0000 0.0346704741
S   S4        1.0  0.48440  0.99845  0.83300  1.0000 0.0346704741
S   S5        1.0  0.37680  0.54436  0.37010  1.0000 0.0141498094
S   S6        1.0  0.62320  0.04436  0.12990  1.0000 0.0141498094
S   S7        1.0  0.62320  0.45564  0.62990  1.0000 0.0141498094
S   S8        1.0  0.37680  0.95564  0.87010  1.0000 0.0141498094
S   S9        1.0  0.93140  0.32799  0.20300  1.0000 0.016061634
S   S10       1.0  0.06860  0.82799  0.29700  1.0000 0.0141498094
S   S11       1.0  0.06860  0.67201  0.79700  1.0000 0.0141498094
S   S12       1.0  0.93140  0.17201  0.70300  1.0000 0.016061634
S   S13       1.0  0.92850  0.26829  0.11350  1.0000 0.0396611384
S   S14       1.0  0.07150  0.76829  0.38650  1.0000 0.0396611384
S   S15       1.0  0.07150  0.73171  0.88650  1.0000 0.0396611384
S   S16       1.0  0.92850  0.23171  0.61350  1.0000 0.0396611384
O   O1        1.0  0.72100  0.18440  0.81050  1.0000 -0.5327242295
O   O2        1.0  0.27900  0.68440  0.68950  1.0000 -0.5327242295
O   O3        1.0  0.27900  0.81560  0.18950  1.0000 -0.5327242295
O   O4        1.0  0.72100  0.31560  0.31050  1.0000 -0.5327242295
O   O5        1.0  0.89680  0.18560  0.98570  1.0000 -0.5098642687
O   O6        1.0  0.10320  0.68560  0.51430  1.0000 -0.5098642687
O   O7        1.0  0.10320  0.81440  0.01430  1.0000 -0.5098642687
O   O8        1.0  0.89680  0.31440  0.48570  1.0000 -0.5098642687
O   O9        1.0  0.25280  0.58960  0.45600  1.0000 -0.4951187948
O   O10       1.0  0.74720  0.08960  0.04400  1.0000 -0.4951187948
O   O11       1.0  0.74720  0.41040  0.54400  1.0000 -0.4951187948
O   O12       1.0  0.25280  0.91040  0.95600  1.0000 -0.4951187948
O   O13       1.0  0.07550  0.56090  0.44080  1.0000 -0.5756881217
O   O14       1.0  0.92450  0.06090  0.05920  1.0000 -0.5756881217
O   O15       1.0  0.92450  0.43910  0.55920  1.0000 -0.5756881217
O   O16       1.0  0.07550  0.93910  0.94080  1.0000 -0.5756881217
O   O17       1.0  0.79820  0.49710  0.32350  1.0000 -0.5576243455
O   O18       1.0  0.20180  0.99710  0.17650  1.0000 -0.5576243455
O   O19       1.0  0.20180  0.50290  0.67650  1.0000 -0.5576243455
O   O20       1.0  0.79820  0.00290  0.82350  1.0000 -0.5576243455
O   O21       1.0  0.64560  0.44160  0.28240  1.0000 -0.5098642687
O   O22       1.0  0.35440  0.94160  0.21760  1.0000 -0.5098642687
O   O23       1.0  0.35440  0.55840  0.71760  1.0000 -0.5098642687
O   O24       1.0  0.64560  0.05840  0.78240  1.0000 -0.5098642687
O   O25       1.0  0.93670  0.39220  0.33900  1.0000 -0.5164285878
O   O26       1.0  0.06330  0.89220  0.16100  1.0000 -0.5164285878
O   O27       1.0  0.06330  0.60780  0.66100  1.0000 -0.5164285878
O   O28       1.0  0.93670  0.10780  0.83900  1.0000 -0.5164285878
O   O29       1.0  0.09990  0.44310  0.46380  1.0000 -0.5576243455
O   O30       1.0  0.90010  0.94310  0.03620  1.0000 -0.5576243455
O   O31       1.0  0.90010  0.55690  0.53620  1.0000 -0.5576243455
O   O32       1.0  0.09990  0.05690  0.96380  1.0000 -0.5576243455
