# DDEC6 charges by PACMAN v1.1 (https://github.com/mtap-research/PACMAN-charge/)
data_2009[ZnSi][pcu]3[ASR]3
_chemical_formula_sum              "Zn2 Si2 H32 C48 N8 F12"
_cell_length_a       15.7706
_cell_length_b       15.7706
_cell_length_c       15.7706
_cell_angle_alpha    103.19
_cell_angle_beta     103.19
_cell_angle_gamma    122.932

_symmetry_space_group_name_H-M    "P 1"
_symmetry_Int_Tables_number       1

loop_
  _symmetry_equiv_pos_as_xyz
  'x, y, z'

loop_
  _atom_site_type_symbol
  _atom_site_label
  _atom_site_symmetry_multiplicity
  _atom_site_fract_x
  _atom_site_fract_y
  _atom_site_fract_z
  _atom_site_occupancy
  _atom_site_charge
Zn  Zn1       1.0  0.75000  0.75000  0.00000  1.0000 0.754682127
Zn  Zn2       1.0  0.25000  0.25000  0.00000  1.0000 0.7578815255
Si  Si1       1.0  0.00000  0.00000  0.00000  1.0000 1.6862481866
Si  Si2       1.0  0.50000  0.50000  0.00000  1.0000 1.6862481866
H   H1        1.0  0.59450  0.51760  0.83210  1.0000 0.1211147491
H   H2        1.0  0.76240  0.59450  0.07690  1.0000 0.1211147491
H   H3        1.0  0.51760  0.68550  0.92310  1.0000 0.1211147491
H   H4        1.0  0.73760  0.81450  0.83210  1.0000 0.1211147491
H   H5        1.0  0.68550  0.76240  0.16790  1.0000 0.1211147491
H   H6        1.0  0.90550  0.73760  0.92310  1.0000 0.1211147491
H   H7        1.0  0.81450  0.98240  0.07690  1.0000 0.1211147491
H   H8        1.0  0.98240  0.90550  0.16790  1.0000 0.1211147491
H   H9        1.0  0.40550  0.48240  0.16790  1.0000 0.1211147491
H   H10       1.0  0.23760  0.40550  0.92310  1.0000 0.1211147491
H   H11       1.0  0.48240  0.31450  0.07690  1.0000 0.1211147491
H   H12       1.0  0.26240  0.18550  0.16790  1.0000 0.1211147491
H   H13       1.0  0.31450  0.23760  0.83210  1.0000 0.1211147491
H   H14       1.0  0.09450  0.26240  0.07690  1.0000 0.1211147491
H   H15       1.0  0.18550  0.01760  0.92310  1.0000 0.1211147491
H   H16       1.0  0.01760  0.09450  0.83210  1.0000 0.1211147491
H   H17       1.0  0.50970  0.43020  0.66450  1.0000 0.1381559108
H   H18       1.0  0.84520  0.50970  0.07950  1.0000 0.1381559108
H   H19       1.0  0.43020  0.76570  0.92050  1.0000 0.1381559108
H   H20       1.0  0.65480  0.73430  0.66450  1.0000 0.1381559108
H   H21       1.0  0.76570  0.84520  0.33550  1.0000 0.1381559108
H   H22       1.0  0.99030  0.65480  0.92050  1.0000 0.1381559108
H   H23       1.0  0.73430  0.06980  0.07950  1.0000 0.1381559108
H   H24       1.0  0.06980  0.99030  0.33550  1.0000 0.1381559108
H   H25       1.0  0.49030  0.56980  0.33550  1.0000 0.1381559108
H   H26       1.0  0.15480  0.49030  0.92050  1.0000 0.1381559108
H   H27       1.0  0.56980  0.23430  0.07950  1.0000 0.1381559108
H   H28       1.0  0.34520  0.26570  0.33550  1.0000 0.1381559108
H   H29       1.0  0.23430  0.15480  0.66450  1.0000 0.1381559108
H   H30       1.0  0.00970  0.34520  0.07950  1.0000 0.1381559108
H   H31       1.0  0.26570  0.93020  0.92050  1.0000 0.1381559108
H   H32       1.0  0.93020  0.00970  0.66450  1.0000 0.1381559108
C   C1        1.0  0.60700  0.56200  0.79740  1.0000 0.0938573094
C   C2        1.0  0.80960  0.60700  0.04500  1.0000 0.0938573094
C   C3        1.0  0.56200  0.76460  0.95500  1.0000 0.0938573094
C   C4        1.0  0.69040  0.73540  0.79740  1.0000 0.0938573094
C   C5        1.0  0.76460  0.80960  0.20260  1.0000 0.0938573094
C   C6        1.0  0.89300  0.69040  0.95500  1.0000 0.0938573094
C   C7        1.0  0.73540  0.93800  0.04500  1.0000 0.0938573094
C   C8        1.0  0.93800  0.89300  0.20260  1.0000 0.0938573094
C   C9        1.0  0.39300  0.43800  0.20260  1.0000 0.0938573094
C   C10       1.0  0.19040  0.39300  0.95500  1.0000 0.0938573094
C   C11       1.0  0.43800  0.23540  0.04500  1.0000 0.0938573094
C   C12       1.0  0.30960  0.26460  0.20260  1.0000 0.0938573094
C   C13       1.0  0.23540  0.19040  0.79740  1.0000 0.0938573094
C   C14       1.0  0.10700  0.30960  0.04500  1.0000 0.0938573094
C   C15       1.0  0.26460  0.06200  0.95500  1.0000 0.0938573094
C   C16       1.0  0.06200  0.10700  0.79740  1.0000 0.0938573094
C   C17       1.0  0.55600  0.50940  0.69760  1.0000 -0.1780505985
C   C18       1.0  0.85840  0.55600  0.04660  1.0000 -0.1780505985
C   C19       1.0  0.50940  0.81180  0.95340  1.0000 -0.1780505985
C   C20       1.0  0.64160  0.68820  0.69760  1.0000 -0.1780505985
C   C21       1.0  0.81180  0.85840  0.30240  1.0000 -0.1780505985
C   C22       1.0  0.94400  0.64160  0.95340  1.0000 -0.1780505985
C   C23       1.0  0.68820  0.99060  0.04660  1.0000 -0.1780505985
C   C24       1.0  0.99060  0.94400  0.30240  1.0000 -0.1780505985
C   C25       1.0  0.44400  0.49060  0.30240  1.0000 -0.1780505985
C   C26       1.0  0.14160  0.44400  0.95340  1.0000 -0.1780505985
C   C27       1.0  0.49060  0.18820  0.04660  1.0000 -0.1780505985
C   C28       1.0  0.35840  0.31180  0.30240  1.0000 -0.1780505985
C   C29       1.0  0.18820  0.14160  0.69760  1.0000 -0.1780505985
C   C30       1.0  0.05600  0.35840  0.04660  1.0000 -0.1780505985
C   C31       1.0  0.31180  0.00940  0.95340  1.0000 -0.1780505985
C   C32       1.0  0.00940  0.05600  0.69760  1.0000 -0.1780505985
C   C33       1.0  0.57330  0.57330  0.64660  1.0000 0.1569239363
C   C34       1.0  0.92670  0.57330  0.00000  1.0000 0.1569239363
C   C35       1.0  0.57330  0.92670  0.00000  1.0000 0.1569239363
C   C36       1.0  0.92670  0.92670  0.35340  1.0000 0.1569239363
C   C37       1.0  0.42670  0.42670  0.35340  1.0000 0.1569239363
C   C38       1.0  0.07330  0.42670  0.00000  1.0000 0.1569239363
C   C39       1.0  0.42670  0.07330  0.00000  1.0000 0.1569239363
C   C40       1.0  0.07330  0.07330  0.64660  1.0000 0.1569239363
C   C41       1.0  0.52090  0.52090  0.54180  1.0000 -0.0718041727
C   C42       1.0  0.97910  0.52090  0.00000  1.0000 -0.0718041727
C   C43       1.0  0.52090  0.97910  0.00000  1.0000 -0.0718041727
C   C44       1.0  0.97910  0.97910  0.45820  1.0000 -0.0718041727
C   C45       1.0  0.47910  0.47910  0.45820  1.0000 -0.0718041727
C   C46       1.0  0.02090  0.47910  0.00000  1.0000 -0.0718041727
C   C47       1.0  0.47910  0.02090  0.00000  1.0000 -0.0718041727
C   C48       1.0  0.02090  0.02090  0.54180  1.0000 -0.0718041727
N   N1        1.0  0.67330  0.67330  0.84660  1.0000 -0.2327839214
N   N2        1.0  0.82670  0.67330  0.00000  1.0000 -0.2327839214
N   N3        1.0  0.67330  0.82670  0.00000  1.0000 -0.2327839214
N   N4        1.0  0.82670  0.82670  0.15340  1.0000 -0.2327839214
N   N5        1.0  0.32670  0.32670  0.15340  1.0000 -0.2327839214
N   N6        1.0  0.17330  0.32670  0.00000  1.0000 -0.2327839214
N   N7        1.0  0.32670  0.17330  0.00000  1.0000 -0.2327839214
N   N8        1.0  0.17330  0.17330  0.84660  1.0000 -0.2327839214
F   F1        1.0  0.88730  0.88730  0.00000  1.0000 -0.5115164485
F   F2        1.0  0.61270  0.61270  0.00000  1.0000 -0.5115164485
F   F3        1.0  0.11270  0.11270  0.00000  1.0000 -0.5115164485
F   F4        1.0  0.38730  0.38730  0.00000  1.0000 -0.5115164485
F   F5        1.0  0.08310  0.98160  0.06470  1.0000 -0.5573648628
F   F6        1.0  0.01840  0.08310  0.10150  1.0000 -0.5573648628
F   F7        1.0  0.98160  0.91690  0.89850  1.0000 -0.5573648628
F   F8        1.0  0.48160  0.58310  0.06470  1.0000 -0.5573648628
F   F9        1.0  0.91690  0.01840  0.93530  1.0000 -0.5573648628
F   F10       1.0  0.41690  0.48160  0.89850  1.0000 -0.5573648628
F   F11       1.0  0.58310  0.51840  0.10150  1.0000 -0.5573648628
F   F12       1.0  0.51840  0.41690  0.93530  1.0000 -0.5573648628
