# DDEC6 charges by PACMAN v1.1 (https://github.com/mtap-research/PACMAN-charge/)
data_2009[Mg][lvt]3[ASR]1
_chemical_formula_sum              "Mg4 H96 C160 N8 O32"
_cell_length_a       23.555
_cell_length_b       23.555
_cell_length_c       23.555
_cell_angle_alpha    140.996
_cell_angle_beta     115.438
_cell_angle_gamma    78.0745

_symmetry_space_group_name_H-M    "P 1"
_symmetry_Int_Tables_number       1

loop_
  _symmetry_equiv_pos_as_xyz
  'x, y, z'

loop_
  _atom_site_type_symbol
  _atom_site_label
  _atom_site_symmetry_multiplicity
  _atom_site_fract_x
  _atom_site_fract_y
  _atom_site_fract_z
  _atom_site_occupancy
  _atom_site_charge
Mg  Mg1       1.0  0.49487  0.15875  0.66388  1.0000 1.3825079726
Mg  Mg2       1.0  0.00513  0.66901  0.66388  1.0000 1.3825079726
Mg  Mg3       1.0  0.50513  0.84125  0.33612  1.0000 1.3825079726
Mg  Mg4       1.0  0.99487  0.33099  0.33612  1.0000 1.3825079726
H   H1        1.0  0.24660  0.83270  0.18890  1.0000 0.1365847497
H   H2        1.0  0.25340  0.44230  0.58610  1.0000 0.1365847497
H   H3        1.0  0.64380  0.83270  0.58610  1.0000 0.1365847497
H   H4        1.0  0.85620  0.44230  0.18890  1.0000 0.1365847497
H   H5        1.0  0.33630  0.93870  0.34040  1.0000 0.1365847497
H   H6        1.0  0.16370  0.50410  0.60240  1.0000 0.1365847497
H   H7        1.0  0.59830  0.93870  0.60240  1.0000 0.1365847497
H   H8        1.0  0.90170  0.50410  0.34040  1.0000 0.1365847497
H   H9        1.0  0.23670  0.00130  0.47800  1.0000 0.1133552897
H   H10       1.0  0.26330  0.74130  0.76460  1.0000 0.1133552897
H   H11       1.0  0.52330  0.00130  0.76460  1.0000 0.1133552897
H   H12       1.0  0.97670  0.74130  0.47800  1.0000 0.1133552897
H   H13       1.0  0.14660  0.89340  0.32480  1.0000 0.1304996091
H   H14       1.0  0.35340  0.67820  0.74680  1.0000 0.1304996091
H   H15       1.0  0.56860  0.89340  0.74680  1.0000 0.1304996091
H   H16       1.0  0.93140  0.67820  0.32480  1.0000 0.1304996091
H   H17       1.0  0.13670  0.92120  0.18650  1.0000 0.1304996091
H   H18       1.0  0.36330  0.54980  0.78450  1.0000 0.1304996091
H   H19       1.0  0.73470  0.92120  0.78450  1.0000 0.1304996091
H   H20       1.0  0.76530  0.54980  0.18650  1.0000 0.1304996091
H   H21       1.0  0.11670  0.92070  0.07980  1.0000 0.1304996091
H   H22       1.0  0.38330  0.46310  0.80400  1.0000 0.120564884
H   H23       1.0  0.84090  0.92070  0.80400  1.0000 0.120564884
H   H24       1.0  0.65910  0.46310  0.07980  1.0000 0.120564884
H   H25       1.0  0.04990  0.64620  0.84450  1.0000 0.120564884
H   H26       1.0  0.45010  0.29460  0.59630  1.0000 0.120564884
H   H27       1.0  0.80170  0.64620  0.59630  1.0000 0.120564884
H   H28       1.0  0.69830  0.29460  0.84450  1.0000 0.120564884
H   H29       1.0  0.07660  0.64710  0.95170  1.0000 0.1133552897
H   H30       1.0  0.42340  0.37510  0.57050  1.0000 0.120564884
H   H31       1.0  0.69540  0.64710  0.57050  1.0000 0.1133552897
H   H32       1.0  0.80460  0.37510  0.95170  1.0000 0.120564884
H   H33       1.0  0.16220  0.70280  0.18500  1.0000 0.1304996091
H   H34       1.0  0.33780  0.52280  0.54060  1.0000 0.1304996091
H   H35       1.0  0.51780  0.70280  0.54060  1.0000 0.1304996091
H   H36       1.0  0.98220  0.52280  0.18500  1.0000 0.1304996091
H   H37       1.0  0.09760  0.62080  0.16180  1.0000 0.1133552897
H   H38       1.0  0.40240  0.56420  0.52320  1.0000 0.1133552897
H   H39       1.0  0.45900  0.62080  0.52320  1.0000 0.1133552897
H   H40       1.0  0.04100  0.56420  0.16180  1.0000 0.1133552897
H   H41       1.0  0.94230  0.66240  0.05010  1.0000 0.1133552897
H   H42       1.0  0.55770  0.60780  0.72010  1.0000 0.1133552897
H   H43       1.0  0.61230  0.66240  0.72010  1.0000 0.1133552897
H   H44       1.0  0.88770  0.60780  0.05010  1.0000 0.1133552897
H   H45       1.0  0.00740  0.74970  0.07470  1.0000 0.1365847497
H   H46       1.0  0.49260  0.56730  0.74230  1.0000 0.1365847497
H   H47       1.0  0.67500  0.74970  0.74230  1.0000 0.1365847497
H   H48       1.0  0.82500  0.56730  0.07470  1.0000 0.1365847497
H   H49       1.0  0.35620  0.16730  0.41390  1.0000 0.1365847497
H   H50       1.0  0.14380  0.55770  0.81110  1.0000 0.1365847497
H   H51       1.0  0.75340  0.16730  0.81110  1.0000 0.1365847497
H   H52       1.0  0.74660  0.55770  0.41390  1.0000 0.1365847497
H   H53       1.0  0.40170  0.06130  0.39760  1.0000 0.1365847497
H   H54       1.0  0.09830  0.49590  0.65960  1.0000 0.1365847497
H   H55       1.0  0.66370  0.06130  0.65960  1.0000 0.1365847497
H   H56       1.0  0.83630  0.49590  0.39760  1.0000 0.1365847497
H   H57       1.0  0.47670  0.99870  0.23540  1.0000 0.1133552897
H   H58       1.0  0.02330  0.25870  0.52200  1.0000 0.1133552897
H   H59       1.0  0.76330  0.99870  0.52200  1.0000 0.1133552897
H   H60       1.0  0.73670  0.25870  0.23540  1.0000 0.1133552897
H   H61       1.0  0.43140  0.10660  0.25320  1.0000 0.1304996091
H   H62       1.0  0.06860  0.32180  0.67520  1.0000 0.1304996091
H   H63       1.0  0.85340  0.10660  0.67520  1.0000 0.1304996091
H   H64       1.0  0.64660  0.32180  0.25320  1.0000 0.1304996091
H   H65       1.0  0.26530  0.07880  0.21550  1.0000 0.1304996091
H   H66       1.0  0.23470  0.45020  0.81350  1.0000 0.1304996091
H   H67       1.0  0.86330  0.07880  0.81350  1.0000 0.1304996091
H   H68       1.0  0.63670  0.45020  0.21550  1.0000 0.1304996091
H   H69       1.0  0.15910  0.07930  0.19600  1.0000 0.120564884
H   H70       1.0  0.34090  0.53690  0.92020  1.0000 0.120564884
H   H71       1.0  0.88330  0.07930  0.92020  1.0000 0.120564884
H   H72       1.0  0.61670  0.53690  0.19600  1.0000 0.120564884
H   H73       1.0  0.19830  0.35380  0.40370  1.0000 0.120564884
H   H74       1.0  0.30170  0.70540  0.15550  1.0000 0.120564884
H   H75       1.0  0.95010  0.35380  0.15550  1.0000 0.120564884
H   H76       1.0  0.54990  0.70540  0.40370  1.0000 0.120564884
H   H77       1.0  0.30460  0.35290  0.42950  1.0000 0.120564884
H   H78       1.0  0.19540  0.62490  0.04830  1.0000 0.1133552897
H   H79       1.0  0.92340  0.35290  0.04830  1.0000 0.1133552897
H   H80       1.0  0.57660  0.62490  0.42950  1.0000 0.1133552897
H   H81       1.0  0.48220  0.29720  0.45940  1.0000 0.1304996091
H   H82       1.0  0.01780  0.47720  0.81500  1.0000 0.1304996091
H   H83       1.0  0.83780  0.29720  0.81500  1.0000 0.1304996091
H   H84       1.0  0.66220  0.47720  0.45940  1.0000 0.1304996091
H   H85       1.0  0.54100  0.37920  0.47680  1.0000 0.1133552897
H   H86       1.0  0.95900  0.43580  0.83820  1.0000 0.1133552897
H   H87       1.0  0.90240  0.37920  0.83820  1.0000 0.1133552897
H   H88       1.0  0.59760  0.43580  0.47680  1.0000 0.1133552897
H   H89       1.0  0.38770  0.33760  0.27990  1.0000 0.1133552897
H   H90       1.0  0.11230  0.39220  0.94990  1.0000 0.1133552897
H   H91       1.0  0.05770  0.33760  0.94990  1.0000 0.1133552897
H   H92       1.0  0.44230  0.39220  0.27990  1.0000 0.1133552897
H   H93       1.0  0.32500  0.25030  0.25770  1.0000 0.1365847497
H   H94       1.0  0.17500  0.43270  0.92530  1.0000 0.1365847497
H   H95       1.0  0.99260  0.25030  0.92530  1.0000 0.1365847497
H   H96       1.0  0.50740  0.43270  0.25770  1.0000 0.1365847497
C   C1        1.0  0.18819  0.85254  0.24205  1.0000 0.1591291663
C   C2        1.0  0.31181  0.55386  0.66435  1.0000 0.1591291663
C   C3        1.0  0.61049  0.85254  0.66435  1.0000 0.1591291663
C   C4        1.0  0.88951  0.55386  0.24205  1.0000 0.1591291663
C   C5        1.0  0.24447  0.86623  0.24704  1.0000 -0.172112315
C   C6        1.0  0.25553  0.50257  0.62176  1.0000 -0.172112315
C   C7        1.0  0.61919  0.86623  0.62176  1.0000 -0.172112315
C   C8        1.0  0.88081  0.50257  0.24704  1.0000 -0.172112315
C   C9        1.0  0.29843  0.93000  0.33843  1.0000 -0.0581363032
C   C10       1.0  0.20157  0.54000  0.63157  1.0000 -0.0581363032
C   C11       1.0  0.59157  0.93000  0.63157  1.0000 -0.0581363032
C   C12       1.0  0.90843  0.54000  0.33843  1.0000 -0.0581363032
C   C13       1.0  0.29762  0.98012  0.42510  1.0000 -0.0214182294
C   C14       1.0  0.20238  0.62748  0.68250  1.0000 -0.0214182294
C   C15       1.0  0.55502  0.98012  0.68250  1.0000 -0.0214182294
C   C16       1.0  0.94498  0.62748  0.42510  1.0000 -0.0214182294
C   C17       1.0  0.23913  0.96683  0.41970  1.0000 -0.077493352
C   C18       1.0  0.26087  0.68057  0.72770  1.0000 -0.0684890637
C   C19       1.0  0.54713  0.96683  0.72770  1.0000 -0.077493352
C   C20       1.0  0.95287  0.68057  0.41970  1.0000 -0.077493352
C   C21       1.0  0.18497  0.90247  0.32790  1.0000 -0.1802526561
C   C22       1.0  0.31503  0.64293  0.71750  1.0000 -0.1802526561
C   C23       1.0  0.57457  0.90247  0.71750  1.0000 -0.1802526561
C   C24       1.0  0.92543  0.64293  0.32790  1.0000 -0.1802526561
C   C25       1.0  0.35221  0.05051  0.52630  1.0000 0.5640906747
C   C26       1.0  0.14779  0.67409  0.69830  1.0000 0.5677741064
C   C27       1.0  0.52421  0.05051  0.69830  1.0000 0.5640906747
C   C28       1.0  0.97579  0.67409  0.52630  1.0000 0.5640906747
C   C29       1.0  0.11411  0.78381  0.07890  1.0000 0.1591291663
C   C30       1.0  0.38589  0.46479  0.66970  1.0000 0.1591291663
C   C31       1.0  0.70491  0.78381  0.66970  1.0000 0.1591291663
C   C32       1.0  0.79509  0.46479  0.07890  1.0000 0.1591291663
C   C33       1.0  0.12184  0.86564  0.11780  1.0000 -0.172112315
C   C34       1.0  0.37816  0.49596  0.74380  1.0000 -0.172112315
C   C35       1.0  0.74784  0.86564  0.74380  1.0000 -0.172112315
C   C36       1.0  0.75216  0.49596  0.11780  1.0000 -0.172112315
C   C37       1.0  0.10725  0.86545  0.05320  1.0000 -0.0684890637
C   C38       1.0  0.39275  0.44595  0.75820  1.0000 -0.0684890637
C   C39       1.0  0.81225  0.86545  0.75820  1.0000 -0.0684890637
C   C40       1.0  0.68775  0.44595  0.05320  1.0000 -0.0684890637
C   C41       1.0  0.07893  0.78377  0.95036  1.0000 -0.0135874906
C   C42       1.0  0.42107  0.37143  0.70484  1.0000 -0.0135874906
C   C43       1.0  0.83341  0.78377  0.70484  1.0000 -0.0135874906
C   C44       1.0  0.66659  0.37143  0.95036  1.0000 -0.0135874906
C   C45       1.0  0.06845  0.70196  0.91349  1.0000 -0.0856265783
C   C46       1.0  0.43155  0.34504  0.63351  1.0000 -0.077493352
C   C47       1.0  0.78847  0.70196  0.63351  1.0000 -0.0856265783
C   C48       1.0  0.71153  0.34504  0.91349  1.0000 -0.077493352
C   C49       1.0  0.08500  0.70190  0.97730  1.0000 -0.1877363434
C   C50       1.0  0.41500  0.39230  0.61690  1.0000 -0.1877363434
C   C51       1.0  0.72460  0.70190  0.61690  1.0000 -0.1877363434
C   C52       1.0  0.77540  0.39230  0.97730  1.0000 -0.1877363434
C   C53       1.0  0.05853  0.77633  0.87440  1.0000 0.5677741064
C   C54       1.0  0.44147  0.31587  0.71780  1.0000 0.5677741064
C   C55       1.0  0.90193  0.77633  0.71780  1.0000 0.5677741064
C   C56       1.0  0.59807  0.31587  0.87440  1.0000 0.5677741064
C   C57       1.0  0.09245  0.73345  0.13140  1.0000 0.1668565686
C   C58       1.0  0.40755  0.53895  0.64100  1.0000 0.1668565686
C   C59       1.0  0.60205  0.73345  0.64100  1.0000 0.1668565686
C   C60       1.0  0.89795  0.53895  0.13140  1.0000 0.1668565686
C   C61       1.0  0.11781  0.69611  0.15830  1.0000 -0.1802526561
C   C62       1.0  0.38219  0.54049  0.57830  1.0000 -0.1802526561
C   C63       1.0  0.53781  0.69611  0.57830  1.0000 -0.1802526561
C   C64       1.0  0.96219  0.54049  0.15830  1.0000 -0.1802526561
C   C65       1.0  0.07877  0.64857  0.14640  1.0000 -0.13121053
C   C66       1.0  0.42123  0.56763  0.56980  1.0000 -0.13121053
C   C67       1.0  0.50217  0.64857  0.56980  1.0000 -0.13121053
C   C68       1.0  0.99783  0.56763  0.14640  1.0000 -0.13121053
C   C69       1.0  0.01212  0.64042  0.11230  1.0000 0.0547446723
C   C70       1.0  0.48788  0.60018  0.62830  1.0000 0.0547446723
C   C71       1.0  0.52812  0.64042  0.62830  1.0000 0.0547446723
C   C72       1.0  0.97188  0.60018  0.11230  1.0000 0.0547446723
C   C73       1.0  0.98690  0.67310  0.08080  1.0000 -0.1492499595
C   C74       1.0  0.51310  0.59390  0.68620  1.0000 -0.1492499595
C   C75       1.0  0.59230  0.67310  0.68620  1.0000 -0.1492499595
C   C76       1.0  0.90770  0.59390  0.08080  1.0000 -0.1492499595
C   C77       1.0  0.02610  0.72400  0.09270  1.0000 -0.172112315
C   C78       1.0  0.47390  0.56660  0.69790  1.0000 -0.172112315
C   C79       1.0  0.63130  0.72400  0.69790  1.0000 -0.172112315
C   C80       1.0  0.86870  0.56660  0.09270  1.0000 -0.172112315
C   C81       1.0  0.38951  0.14746  0.33565  1.0000 0.1591291663
C   C82       1.0  0.11049  0.44614  0.75795  1.0000 0.1591291663
C   C83       1.0  0.81181  0.14746  0.75795  1.0000 0.1591291663
C   C84       1.0  0.68819  0.44614  0.33565  1.0000 0.1591291663
C   C85       1.0  0.38081  0.13377  0.37824  1.0000 -0.172112315
C   C86       1.0  0.11919  0.49743  0.75296  1.0000 -0.172112315
C   C87       1.0  0.75553  0.13377  0.75296  1.0000 -0.172112315
C   C88       1.0  0.74447  0.49743  0.37824  1.0000 -0.172112315
C   C89       1.0  0.40843  0.07000  0.36843  1.0000 -0.0581363032
C   C90       1.0  0.09157  0.46000  0.66157  1.0000 -0.0581363032
C   C91       1.0  0.70157  0.07000  0.66157  1.0000 -0.0581363032
C   C92       1.0  0.79843  0.46000  0.36843  1.0000 -0.0581363032
C   C93       1.0  0.44498  0.01988  0.31750  1.0000 -0.0214182294
C   C94       1.0  0.05502  0.37252  0.57490  1.0000 -0.0214182294
C   C95       1.0  0.70238  0.01988  0.57490  1.0000 -0.0214182294
C   C96       1.0  0.79762  0.37252  0.31750  1.0000 -0.0214182294
C   C97       1.0  0.45287  0.03317  0.27230  1.0000 -0.077493352
C   C98       1.0  0.04713  0.31943  0.58030  1.0000 -0.077493352
C   C99       1.0  0.76087  0.03317  0.58030  1.0000 -0.077493352
C   C100      1.0  0.73913  0.31943  0.27230  1.0000 -0.077493352
C   C101      1.0  0.42543  0.09753  0.28250  1.0000 -0.1802526561
C   C102      1.0  0.07457  0.35707  0.67210  1.0000 -0.1802526561
C   C103      1.0  0.81503  0.09753  0.67210  1.0000 -0.1802526561
C   C104      1.0  0.68497  0.35707  0.28250  1.0000 -0.1802526561
C   C105      1.0  0.47579  0.94949  0.30170  1.0000 0.5640906747
C   C106      1.0  0.02421  0.32591  0.47370  1.0000 0.5640906747
C   C107      1.0  0.64779  0.94949  0.47370  1.0000 0.5640906747
C   C108      1.0  0.85221  0.32591  0.30170  1.0000 0.5640906747
C   C109      1.0  0.29509  0.21619  0.33030  1.0000 0.1591291663
C   C110      1.0  0.20491  0.53521  0.92110  1.0000 0.1591291663
C   C111      1.0  0.88589  0.21619  0.92110  1.0000 0.1591291663
C   C112      1.0  0.61411  0.53521  0.33030  1.0000 0.1591291663
C   C113      1.0  0.25216  0.13436  0.25620  1.0000 -0.172112315
C   C114      1.0  0.24784  0.50404  0.88220  1.0000 -0.172112315
C   C115      1.0  0.87816  0.13436  0.88220  1.0000 -0.172112315
C   C116      1.0  0.62184  0.50404  0.25620  1.0000 -0.172112315
C   C117      1.0  0.18775  0.13455  0.24180  1.0000 -0.0684890637
C   C118      1.0  0.31225  0.55405  0.94680  1.0000 -0.0684890637
C   C119      1.0  0.89275  0.13455  0.94680  1.0000 -0.0684890637
C   C120      1.0  0.60725  0.55405  0.24180  1.0000 -0.0684890637
C   C121      1.0  0.16659  0.21623  0.29516  1.0000 -0.0135874906
C   C122      1.0  0.33341  0.62857  0.04964  1.0000 -0.0135874906
C   C123      1.0  0.92107  0.21623  0.04964  1.0000 -0.0135874906
C   C124      1.0  0.57893  0.62857  0.29516  1.0000 -0.0135874906
C   C125      1.0  0.21153  0.29804  0.36649  1.0000 -0.0856265783
C   C126      1.0  0.28847  0.65496  0.08651  1.0000 -0.0856265783
C   C127      1.0  0.93155  0.29804  0.08651  1.0000 -0.0856265783
C   C128      1.0  0.56845  0.65496  0.36649  1.0000 -0.0856265783
C   C129      1.0  0.27540  0.29810  0.38310  1.0000 -0.1877363434
C   C130      1.0  0.22460  0.60770  0.02270  1.0000 -0.1877363434
C   C131      1.0  0.91500  0.29810  0.02270  1.0000 -0.1877363434
C   C132      1.0  0.58500  0.60770  0.38310  1.0000 -0.1877363434
C   C133      1.0  0.09807  0.22367  0.28220  1.0000 0.5677741064
C   C134      1.0  0.40193  0.68413  0.12560  1.0000 0.5677741064
C   C135      1.0  0.94147  0.22367  0.12560  1.0000 0.5677741064
C   C136      1.0  0.55853  0.68413  0.28220  1.0000 0.5677741064
C   C137      1.0  0.39795  0.26655  0.35900  1.0000 0.1668565686
C   C138      1.0  0.10205  0.46105  0.86860  1.0000 0.1668565686
C   C139      1.0  0.90755  0.26655  0.86860  1.0000 0.1668565686
C   C140      1.0  0.59245  0.46105  0.35900  1.0000 0.1668565686
C   C141      1.0  0.46219  0.30389  0.42170  1.0000 -0.1802526561
C   C142      1.0  0.03781  0.45951  0.84170  1.0000 -0.1802526561
C   C143      1.0  0.88219  0.30389  0.84170  1.0000 -0.1802526561
C   C144      1.0  0.61781  0.45951  0.42170  1.0000 -0.1802526561
C   C145      1.0  0.49783  0.35143  0.43020  1.0000 -0.13121053
C   C146      1.0  0.00217  0.43237  0.85360  1.0000 -0.13121053
C   C147      1.0  0.92123  0.35143  0.85360  1.0000 -0.13121053
C   C148      1.0  0.57877  0.43237  0.43020  1.0000 -0.13121053
C   C149      1.0  0.47188  0.35958  0.37170  1.0000 0.0547446723
C   C150      1.0  0.02812  0.39982  0.88770  1.0000 0.0547446723
C   C151      1.0  0.98788  0.35958  0.88770  1.0000 0.0547446723
C   C152      1.0  0.51212  0.39982  0.37170  1.0000 0.0551290328
C   C153      1.0  0.40770  0.32690  0.31380  1.0000 -0.1492499595
C   C154      1.0  0.09230  0.40610  0.91920  1.0000 -0.1492499595
C   C155      1.0  0.01310  0.32690  0.91920  1.0000 -0.1492499595
C   C156      1.0  0.48690  0.40610  0.31380  1.0000 -0.1492499595
C   C157      1.0  0.36870  0.27600  0.30210  1.0000 -0.172112315
C   C158      1.0  0.13130  0.43340  0.90730  1.0000 -0.172112315
C   C159      1.0  0.97390  0.27600  0.90730  1.0000 -0.172112315
C   C160      1.0  0.52610  0.43340  0.30210  1.0000 -0.172112315
N   N1        1.0  0.13197  0.78717  0.14800  1.0000 -0.1589796764
N   N2        1.0  0.36803  0.51603  0.65520  1.0000 -0.1589796764
N   N3        1.0  0.63917  0.78717  0.65520  1.0000 -0.1589796764
N   N4        1.0  0.86083  0.51603  0.14800  1.0000 -0.1589796764
N   N5        1.0  0.36083  0.21283  0.34480  1.0000 -0.1589796764
N   N6        1.0  0.13917  0.48397  0.85200  1.0000 -0.1589796764
N   N7        1.0  0.86803  0.21283  0.85200  1.0000 -0.1589796764
N   N8        1.0  0.63197  0.48397  0.34480  1.0000 -0.1589796764
O   O1        1.0  0.03757  0.70456  0.78601  1.0000 -0.569287352
O   O2        1.0  0.46243  0.24844  0.66699  1.0000 -0.569287352
O   O3        1.0  0.91855  0.70456  0.66699  1.0000 -0.569287352
O   O4        1.0  0.58145  0.24844  0.78601  1.0000 -0.569287352
O   O5        1.0  0.06624  0.85942  0.92022  1.0000 -0.431727912
O   O6        1.0  0.43376  0.35398  0.79318  1.0000 -0.431727912
O   O7        1.0  0.93920  0.85942  0.79318  1.0000 -0.431727912
O   O8        1.0  0.56080  0.35398  0.92022  1.0000 -0.431727912
O   O9        1.0  0.40762  0.05780  0.53182  1.0000 -0.6170946581
O   O10       1.0  0.09238  0.62420  0.65018  1.0000 -0.6170946581
O   O11       1.0  0.52598  0.05780  0.65018  1.0000 -0.6170946581
O   O12       1.0  0.97402  0.62420  0.53182  1.0000 -0.6170946581
O   O13       1.0  0.34184  0.10054  0.60050  1.0000 -0.4195153935
O   O14       1.0  0.15816  0.75866  0.75870  1.0000 -0.4195153935
O   O15       1.0  0.50004  0.10054  0.75870  1.0000 -0.4195153935
O   O16       1.0  0.99996  0.75866  0.60050  1.0000 -0.4195153935
O   O17       1.0  0.08145  0.29544  0.33301  1.0000 -0.569287352
O   O18       1.0  0.41855  0.75156  0.21399  1.0000 -0.569287352
O   O19       1.0  0.96243  0.29544  0.21399  1.0000 -0.569287352
O   O20       1.0  0.53757  0.75156  0.33301  1.0000 -0.569287352
O   O21       1.0  0.06080  0.14058  0.20682  1.0000 -0.431727912
O   O22       1.0  0.43920  0.64602  0.07978  1.0000 -0.431727912
O   O23       1.0  0.93376  0.14058  0.07978  1.0000 -0.431727912
O   O24       1.0  0.56624  0.64602  0.20682  1.0000 -0.431727912
O   O25       1.0  0.47402  0.94220  0.34982  1.0000 -0.6170946581
O   O26       1.0  0.02598  0.37580  0.46818  1.0000 -0.6170946581
O   O27       1.0  0.59238  0.94220  0.46818  1.0000 -0.6170946581
O   O28       1.0  0.90762  0.37580  0.34982  1.0000 -0.6170946581
O   O29       1.0  0.49996  0.89946  0.24130  1.0000 -0.4195153935
O   O30       1.0  0.00004  0.24134  0.39950  1.0000 -0.4195153935
O   O31       1.0  0.65816  0.89946  0.39950  1.0000 -0.4195153935
O   O32       1.0  0.84184  0.24134  0.24130  1.0000 -0.4195153935
