# DDEC6 charges by PACMAN v1.1 (https://github.com/mtap-research/PACMAN-charge/)
data_2009[AgDy][rtl]3[ASR]1
_chemical_formula_sum              "Dy4 Ag4 H44 C56 N8 O24"
_cell_length_a       16.1682
_cell_length_b       15.102
_cell_length_c       7.9846
_cell_angle_alpha    90
_cell_angle_beta     92.845
_cell_angle_gamma    90

_symmetry_space_group_name_H-M    "P 1"
_symmetry_Int_Tables_number       1

loop_
  _symmetry_equiv_pos_as_xyz
  'x, y, z'

loop_
  _atom_site_type_symbol
  _atom_site_label
  _atom_site_symmetry_multiplicity
  _atom_site_fract_x
  _atom_site_fract_y
  _atom_site_fract_z
  _atom_site_occupancy
  _atom_site_charge
Dy  Dy1       1.0  0.45218  0.61103  0.04752  1.0000 2.1176159932
Dy  Dy2       1.0  0.54782  0.38897  0.95248  1.0000 2.1176159932
Dy  Dy3       1.0  0.54782  0.11103  0.45248  1.0000 2.1176159932
Dy  Dy4       1.0  0.45218  0.88897  0.54752  1.0000 2.1176159932
Ag  Ag1       1.0  0.97364  0.73653  0.59980  1.0000 0.2249914362
Ag  Ag2       1.0  0.02636  0.26347  0.40020  1.0000 0.2249914362
Ag  Ag3       1.0  0.02636  0.23653  0.90020  1.0000 0.2249914362
Ag  Ag4       1.0  0.97364  0.76347  0.09980  1.0000 0.2256445243
H   H1        1.0  0.24157  0.60609  0.89559  1.0000 0.1097614458
H   H2        1.0  0.75843  0.39391  0.10441  1.0000 0.1097614458
H   H3        1.0  0.75843  0.10609  0.60441  1.0000 0.1097614458
H   H4        1.0  0.24157  0.89391  0.39559  1.0000 0.1097614458
H   H5        1.0  0.10121  0.61277  0.00634  1.0000 0.0662957771
H   H6        1.0  0.89879  0.38723  0.99366  1.0000 0.0662957771
H   H7        1.0  0.89879  0.11277  0.49366  1.0000 0.0662957771
H   H8        1.0  0.10121  0.88723  0.50634  1.0000 0.0662957771
H   H9        1.0  0.10037  0.89200  0.98093  1.0000 0.0614724987
H   H10       1.0  0.89963  0.10800  0.01907  1.0000 0.0614724987
H   H11       1.0  0.89963  0.39200  0.51907  1.0000 0.0662957771
H   H12       1.0  0.10037  0.60800  0.48093  1.0000 0.0614724987
H   H13       1.0  0.23974  0.89315  0.86344  1.0000 0.1152263237
H   H14       1.0  0.76026  0.10685  0.13656  1.0000 0.1152263237
H   H15       1.0  0.76026  0.39315  0.63656  1.0000 0.1152263237
H   H16       1.0  0.23974  0.60685  0.36344  1.0000 0.1152263237
H   H17       1.0  0.66047  0.75646  0.76788  1.0000 0.1346791639
H   H18       1.0  0.33953  0.24354  0.23212  1.0000 0.1346791639
H   H19       1.0  0.33953  0.25646  0.73212  1.0000 0.1346791639
H   H20       1.0  0.66047  0.74354  0.26788  1.0000 0.1346791639
H   H21       1.0  0.79281  0.81722  0.67146  1.0000 0.0774753252
H   H22       1.0  0.20719  0.18278  0.32854  1.0000 0.0774753252
H   H23       1.0  0.20719  0.31722  0.82854  1.0000 0.0774753252
H   H24       1.0  0.79281  0.68278  0.17146  1.0000 0.0774753252
H   H25       1.0  0.91164  0.56999  0.74052  1.0000 0.0614724987
H   H26       1.0  0.08836  0.43001  0.25948  1.0000 0.0614724987
H   H27       1.0  0.08836  0.06999  0.75948  1.0000 0.0614724987
H   H28       1.0  0.91164  0.93001  0.24052  1.0000 0.0614724987
H   H29       1.0  0.78176  0.50112  0.83148  1.0000 0.1097614458
H   H30       1.0  0.21824  0.49888  0.16852  1.0000 0.1097614458
H   H31       1.0  0.21824  0.00112  0.66852  1.0000 0.1097614458
H   H32       1.0  0.78176  0.99888  0.33148  1.0000 0.1097614458
H   H33       1.0  0.67728  0.54878  0.45110  1.0000 0.142378266
H   H34       1.0  0.32272  0.45122  0.54890  1.0000 0.142378266
H   H35       1.0  0.32272  0.04878  0.04890  1.0000 0.142378266
H   H36       1.0  0.67728  0.95122  0.95110  1.0000 0.142378266
H   H37       1.0  0.65118  0.43859  0.37337  1.0000 0.1570545389
H   H38       1.0  0.34882  0.56141  0.62663  1.0000 0.1570545389
H   H39       1.0  0.34882  0.93859  0.12663  1.0000 0.1570545389
H   H40       1.0  0.65118  0.06141  0.87337  1.0000 0.1570545389
H   H41       1.0  0.59418  0.48934  0.53444  1.0000 0.1699166252
H   H42       1.0  0.40582  0.51066  0.46556  1.0000 0.1699166252
H   H43       1.0  0.40582  0.98934  0.96556  1.0000 0.1699166252
H   H44       1.0  0.59418  0.01066  0.03444  1.0000 0.1699166252
C   C1        1.0  0.25307  0.74972  0.86817  1.0000 -0.0139651661
C   C2        1.0  0.74693  0.25028  0.13183  1.0000 -0.0139651661
C   C3        1.0  0.74693  0.24972  0.63183  1.0000 -0.0139651661
C   C4        1.0  0.25307  0.75028  0.36817  1.0000 -0.0139651661
C   C5        1.0  0.21209  0.67081  0.91129  1.0000 -0.1317518977
C   C6        1.0  0.78791  0.32919  0.08871  1.0000 -0.1317518977
C   C7        1.0  0.78791  0.17081  0.58871  1.0000 -0.1317518977
C   C8        1.0  0.21209  0.82919  0.41129  1.0000 -0.1317518977
C   C9        1.0  0.13338  0.67400  0.97333  1.0000 0.0476111528
C   C10       1.0  0.86662  0.32600  0.02667  1.0000 0.0476111528
C   C11       1.0  0.86662  0.17400  0.52667  1.0000 0.0476111528
C   C12       1.0  0.13338  0.82600  0.47333  1.0000 0.0476111528
C   C13       1.0  0.13263  0.82932  0.95846  1.0000 0.0476111528
C   C14       1.0  0.86737  0.17068  0.04154  1.0000 0.0476111528
C   C15       1.0  0.86737  0.32932  0.54154  1.0000 0.0476111528
C   C16       1.0  0.13263  0.67068  0.45846  1.0000 0.0476111528
C   C17       1.0  0.21040  0.83000  0.89269  1.0000 -0.1317518977
C   C18       1.0  0.78960  0.17000  0.10731  1.0000 -0.1317518977
C   C19       1.0  0.78960  0.33000  0.60731  1.0000 -0.1317518977
C   C20       1.0  0.21040  0.67000  0.39269  1.0000 -0.1317518977
C   C21       1.0  0.33741  0.74909  0.80098  1.0000 0.6576777055
C   C22       1.0  0.66259  0.25091  0.19902  1.0000 0.6576777055
C   C23       1.0  0.66259  0.24909  0.69902  1.0000 0.6576777055
C   C24       1.0  0.33741  0.75091  0.30098  1.0000 0.6576777055
C   C25       1.0  0.63230  0.58303  0.86541  1.0000 0.6386197759
C   C26       1.0  0.36770  0.41697  0.13459  1.0000 0.6386197759
C   C27       1.0  0.36770  0.08303  0.63459  1.0000 0.6386197759
C   C28       1.0  0.63230  0.91697  0.36541  1.0000 0.6386197759
C   C29       1.0  0.70935  0.62288  0.80673  1.0000 -0.0197672061
C   C30       1.0  0.29065  0.37712  0.19327  1.0000 -0.0197672061
C   C31       1.0  0.29065  0.12288  0.69327  1.0000 -0.0197672061
C   C32       1.0  0.70935  0.87712  0.30673  1.0000 -0.0197672061
C   C33       1.0  0.71485  0.71331  0.76220  1.0000 -0.1228895755
C   C34       1.0  0.28515  0.28669  0.23780  1.0000 -0.1228895755
C   C35       1.0  0.28515  0.21331  0.73780  1.0000 -0.1228895755
C   C36       1.0  0.71485  0.78669  0.26220  1.0000 -0.1228895755
C   C37       1.0  0.78883  0.74730  0.70840  1.0000 0.0614724987
C   C38       1.0  0.21117  0.25270  0.29160  1.0000 0.0614724987
C   C39       1.0  0.21117  0.24730  0.79160  1.0000 0.0614724987
C   C40       1.0  0.78883  0.75270  0.20840  1.0000 0.0614724987
C   C41       1.0  0.85461  0.60957  0.74555  1.0000 0.0353684193
C   C42       1.0  0.14539  0.39043  0.25445  1.0000 0.0353684193
C   C43       1.0  0.14539  0.10957  0.75445  1.0000 0.0353684193
C   C44       1.0  0.85461  0.89043  0.24555  1.0000 0.0353684193
C   C45       1.0  0.78229  0.57148  0.79685  1.0000 -0.1457536416
C   C46       1.0  0.21771  0.42852  0.20315  1.0000 -0.1457536416
C   C47       1.0  0.21771  0.07148  0.70315  1.0000 -0.1457536416
C   C48       1.0  0.78229  0.92852  0.29685  1.0000 -0.1457536416
C   C49       1.0  0.56730  0.54203  0.28967  1.0000 0.7299361928
C   C50       1.0  0.43270  0.45797  0.71033  1.0000 0.7299361928
C   C51       1.0  0.43270  0.04203  0.21033  1.0000 0.7299361928
C   C52       1.0  0.56730  0.95797  0.78967  1.0000 0.7299361928
C   C53       1.0  0.62672  0.50176  0.41831  1.0000 -0.5105295823
C   C54       1.0  0.37328  0.49824  0.58169  1.0000 -0.5105295823
C   C55       1.0  0.37328  0.00176  0.08169  1.0000 -0.5105295823
C   C56       1.0  0.62672  0.99824  0.91831  1.0000 -0.5105295823
N   N1        1.0  0.09138  0.75230  0.99871  1.0000 -0.2305937064
N   N2        1.0  0.90862  0.24770  0.00129  1.0000 -0.2305937064
N   N3        1.0  0.90862  0.25230  0.50129  1.0000 -0.2305937064
N   N4        1.0  0.09138  0.74770  0.49871  1.0000 -0.2305937064
N   N5        1.0  0.86046  0.69785  0.69860  1.0000 -0.2305937064
N   N6        1.0  0.13954  0.30215  0.30140  1.0000 -0.2305937064
N   N7        1.0  0.13954  0.19785  0.80140  1.0000 -0.2305937064
N   N8        1.0  0.86046  0.80215  0.19860  1.0000 -0.2305937064
O   O1        1.0  0.36044  0.81494  0.71385  1.0000 -0.6854484723
O   O2        1.0  0.63956  0.18506  0.28615  1.0000 -0.6854484723
O   O3        1.0  0.63956  0.31494  0.78615  1.0000 -0.6854484723
O   O4        1.0  0.36044  0.68506  0.21385  1.0000 -0.6854484723
O   O5        1.0  0.38406  0.68144  0.83423  1.0000 -0.7118319468
O   O6        1.0  0.61594  0.31856  0.16577  1.0000 -0.7118319468
O   O7        1.0  0.61594  0.18144  0.66577  1.0000 -0.7118319468
O   O8        1.0  0.38406  0.81856  0.33423  1.0000 -0.7118319468
O   O9        1.0  0.57426  0.63388  0.91387  1.0000 -0.6688655214
O   O10       1.0  0.42574  0.36612  0.08613  1.0000 -0.6688655214
O   O11       1.0  0.42574  0.13388  0.58613  1.0000 -0.6688655214
O   O12       1.0  0.57426  0.86612  0.41387  1.0000 -0.6688655214
O   O13       1.0  0.62954  0.49730  0.86515  1.0000 -0.7118319468
O   O14       1.0  0.37046  0.50270  0.13485  1.0000 -0.7118319468
O   O15       1.0  0.37046  0.99730  0.63485  1.0000 -0.7118319468
O   O16       1.0  0.62954  0.00270  0.36515  1.0000 -0.7118319468
O   O17       1.0  0.53438  0.61786  0.30907  1.0000 -0.6445950018
O   O18       1.0  0.46562  0.38214  0.69093  1.0000 -0.6445950018
O   O19       1.0  0.46562  0.11786  0.19093  1.0000 -0.6445950018
O   O20       1.0  0.53438  0.88214  0.80907  1.0000 -0.6445950018
O   O21       1.0  0.54717  0.49748  0.15398  1.0000 -0.807598059
O   O22       1.0  0.45283  0.50252  0.84602  1.0000 -0.807598059
O   O23       1.0  0.45283  0.99748  0.34602  1.0000 -0.807598059
O   O24       1.0  0.54717  0.00252  0.65398  1.0000 -0.807598059
