# DDEC6 charges by PACMAN v1.1 (https://github.com/mtap-research/PACMAN-charge/)
data_2009[Zn][nan]3[ASR]11
_chemical_formula_sum              "Zn6 H48 C102 O24 F36"
_cell_length_a       21.25
_cell_length_b       21.25
_cell_length_c       7.72
_cell_angle_alpha    90
_cell_angle_beta     90
_cell_angle_gamma    120

_symmetry_space_group_name_H-M    "P 1"
_symmetry_Int_Tables_number       1

loop_
  _symmetry_equiv_pos_as_xyz
  'x, y, z'

loop_
  _atom_site_type_symbol
  _atom_site_label
  _atom_site_symmetry_multiplicity
  _atom_site_fract_x
  _atom_site_fract_y
  _atom_site_fract_z
  _atom_site_occupancy
  _atom_site_charge
Zn  Zn1       1.0  0.40194  0.70097  0.16667  1.0000 0.9154614184
Zn  Zn2       1.0  0.70097  0.40194  0.50000  1.0000 0.9154614184
Zn  Zn3       1.0  0.29903  0.70097  0.83333  1.0000 0.9154614184
Zn  Zn4       1.0  0.59806  0.29903  0.16667  1.0000 0.9154614184
Zn  Zn5       1.0  0.29903  0.59806  0.50000  1.0000 0.9154614184
Zn  Zn6       1.0  0.70097  0.29903  0.83333  1.0000 0.9154614184
H   H1        1.0  0.25360  0.40790  0.27560  1.0000 0.127966759
H   H2        1.0  0.84570  0.25360  0.60893  1.0000 0.127966759
H   H3        1.0  0.59210  0.84570  0.94227  1.0000 0.127966759
H   H4        1.0  0.74640  0.59210  0.27560  1.0000 0.127966759
H   H5        1.0  0.15430  0.74640  0.60893  1.0000 0.127966759
H   H6        1.0  0.40790  0.15430  0.94227  1.0000 0.127966759
H   H7        1.0  0.59210  0.74640  0.39107  1.0000 0.127966759
H   H8        1.0  0.84570  0.59210  0.72440  1.0000 0.127966759
H   H9        1.0  0.25360  0.84570  0.05773  1.0000 0.127966759
H   H10       1.0  0.40790  0.25360  0.39107  1.0000 0.127966759
H   H11       1.0  0.15430  0.40790  0.72440  1.0000 0.127966759
H   H12       1.0  0.74640  0.15430  0.05773  1.0000 0.127966759
H   H13       1.0  0.23600  0.30100  0.15290  1.0000 0.1143988041
H   H14       1.0  0.93500  0.23600  0.48623  1.0000 0.1143988041
H   H15       1.0  0.69900  0.93500  0.81957  1.0000 0.1143988041
H   H16       1.0  0.76400  0.69900  0.15290  1.0000 0.1143988041
H   H17       1.0  0.06500  0.76400  0.48623  1.0000 0.1143988041
H   H18       1.0  0.30100  0.06500  0.81957  1.0000 0.1143988041
H   H19       1.0  0.69900  0.76400  0.51377  1.0000 0.1143988041
H   H20       1.0  0.93500  0.69900  0.84710  1.0000 0.1143988041
H   H21       1.0  0.23600  0.93500  0.18043  1.0000 0.1143988041
H   H22       1.0  0.30100  0.23600  0.51377  1.0000 0.1143988041
H   H23       1.0  0.06500  0.30100  0.84710  1.0000 0.1143988041
H   H24       1.0  0.76400  0.06500  0.18043  1.0000 0.1143988041
H   H25       1.0  0.36240  0.51920  0.85920  1.0000 0.127966759
H   H26       1.0  0.84320  0.36240  0.19253  1.0000 0.127966759
H   H27       1.0  0.48080  0.84320  0.52587  1.0000 0.127966759
H   H28       1.0  0.63760  0.48080  0.85920  1.0000 0.127966759
H   H29       1.0  0.15680  0.63760  0.19253  1.0000 0.127966759
H   H30       1.0  0.51920  0.15680  0.52587  1.0000 0.127966759
H   H31       1.0  0.48080  0.63760  0.80747  1.0000 0.127966759
H   H32       1.0  0.84320  0.48080  0.14080  1.0000 0.127966759
H   H33       1.0  0.36240  0.84320  0.47413  1.0000 0.127966759
H   H34       1.0  0.51920  0.36240  0.80747  1.0000 0.127966759
H   H35       1.0  0.15680  0.51920  0.14080  1.0000 0.127966759
H   H36       1.0  0.63760  0.15680  0.47413  1.0000 0.127966759
H   H37       1.0  0.34310  0.41270  0.73260  1.0000 0.1226521059
H   H38       1.0  0.93040  0.34310  0.06593  1.0000 0.1226521059
H   H39       1.0  0.58730  0.93040  0.39927  1.0000 0.1226521059
H   H40       1.0  0.65690  0.58730  0.73260  1.0000 0.1226521059
H   H41       1.0  0.06960  0.65690  0.06593  1.0000 0.1226521059
H   H42       1.0  0.41270  0.06960  0.39927  1.0000 0.1226521059
H   H43       1.0  0.58730  0.65690  0.93407  1.0000 0.1226521059
H   H44       1.0  0.93040  0.58730  0.26740  1.0000 0.1226521059
H   H45       1.0  0.34310  0.93040  0.60073  1.0000 0.1226521059
H   H46       1.0  0.41270  0.34310  0.93407  1.0000 0.1226521059
H   H47       1.0  0.06960  0.41270  0.26740  1.0000 0.1226521059
H   H48       1.0  0.65690  0.06960  0.60073  1.0000 0.1226521059
C   C1        1.0  0.32300  0.54260  0.17170  1.0000 0.5929403776
C   C2        1.0  0.78040  0.32300  0.50503  1.0000 0.5929403776
C   C3        1.0  0.45740  0.78040  0.83837  1.0000 0.5929403776
C   C4        1.0  0.67700  0.45740  0.17170  1.0000 0.5929403776
C   C5        1.0  0.21960  0.67700  0.50503  1.0000 0.5929403776
C   C6        1.0  0.54260  0.21960  0.83837  1.0000 0.5929403776
C   C7        1.0  0.45740  0.67700  0.49497  1.0000 0.5929403776
C   C8        1.0  0.78040  0.45740  0.82830  1.0000 0.5929403776
C   C9        1.0  0.32300  0.78040  0.16163  1.0000 0.5929403776
C   C10       1.0  0.54260  0.32300  0.49497  1.0000 0.5929403776
C   C11       1.0  0.21960  0.54260  0.82830  1.0000 0.5929403776
C   C12       1.0  0.67700  0.21960  0.16163  1.0000 0.5929403776
C   C13       1.0  0.31070  0.47350  0.08460  1.0000 -0.0216118943
C   C14       1.0  0.83720  0.31070  0.41793  1.0000 -0.0216118943
C   C15       1.0  0.52650  0.83720  0.75127  1.0000 -0.0216118943
C   C16       1.0  0.68930  0.52650  0.08460  1.0000 -0.0216118943
C   C17       1.0  0.16280  0.68930  0.41793  1.0000 -0.0216118943
C   C18       1.0  0.47350  0.16280  0.75127  1.0000 -0.0216118943
C   C19       1.0  0.52650  0.68930  0.58207  1.0000 -0.0216118943
C   C20       1.0  0.83720  0.52650  0.91540  1.0000 -0.0216118943
C   C21       1.0  0.31070  0.83720  0.24873  1.0000 -0.0216118943
C   C22       1.0  0.47350  0.31070  0.58207  1.0000 -0.0216118943
C   C23       1.0  0.16280  0.47350  0.91540  1.0000 -0.0216118943
C   C24       1.0  0.68930  0.16280  0.24873  1.0000 -0.0216118943
C   C25       1.0  0.27270  0.40920  0.16650  1.0000 -0.088858327
C   C26       1.0  0.86350  0.27270  0.49983  1.0000 -0.088858327
C   C27       1.0  0.59080  0.86350  0.83317  1.0000 -0.088858327
C   C28       1.0  0.72730  0.59080  0.16650  1.0000 -0.088858327
C   C29       1.0  0.13650  0.72730  0.49983  1.0000 -0.088858327
C   C30       1.0  0.40920  0.13650  0.83317  1.0000 -0.088858327
C   C31       1.0  0.59080  0.72730  0.50017  1.0000 -0.088858327
C   C32       1.0  0.86350  0.59080  0.83350  1.0000 -0.088858327
C   C33       1.0  0.27270  0.86350  0.16683  1.0000 -0.088858327
C   C34       1.0  0.40920  0.27270  0.50017  1.0000 -0.088858327
C   C35       1.0  0.13650  0.40920  0.83350  1.0000 -0.088858327
C   C36       1.0  0.72730  0.13650  0.16683  1.0000 -0.088858327
C   C37       1.0  0.26120  0.34450  0.09230  1.0000 -0.1505387725
C   C38       1.0  0.91670  0.26120  0.42563  1.0000 -0.1505387725
C   C39       1.0  0.65550  0.91670  0.75897  1.0000 -0.1505387725
C   C40       1.0  0.73880  0.65550  0.09230  1.0000 -0.1505387725
C   C41       1.0  0.08330  0.73880  0.42563  1.0000 -0.1505387725
C   C42       1.0  0.34450  0.08330  0.75897  1.0000 -0.1505387725
C   C43       1.0  0.65550  0.73880  0.57437  1.0000 -0.1505387725
C   C44       1.0  0.91670  0.65550  0.90770  1.0000 -0.1505387725
C   C45       1.0  0.26120  0.91670  0.24103  1.0000 -0.1505387725
C   C46       1.0  0.34450  0.26120  0.57437  1.0000 -0.1505387725
C   C47       1.0  0.08330  0.34450  0.90770  1.0000 -0.1505387725
C   C48       1.0  0.73880  0.08330  0.24103  1.0000 -0.1505387725
C   C49       1.0  0.33710  0.47540  0.91870  1.0000 -0.088858327
C   C50       1.0  0.86170  0.33710  0.25203  1.0000 -0.088858327
C   C51       1.0  0.52460  0.86170  0.58537  1.0000 -0.088858327
C   C52       1.0  0.66290  0.52460  0.91870  1.0000 -0.088858327
C   C53       1.0  0.13830  0.66290  0.25203  1.0000 -0.088858327
C   C54       1.0  0.47540  0.13830  0.58537  1.0000 -0.088858327
C   C55       1.0  0.52460  0.66290  0.74797  1.0000 -0.088858327
C   C56       1.0  0.86170  0.52460  0.08130  1.0000 -0.088858327
C   C57       1.0  0.33710  0.86170  0.41463  1.0000 -0.088858327
C   C58       1.0  0.47540  0.33710  0.74797  1.0000 -0.088858327
C   C59       1.0  0.13830  0.47540  0.08130  1.0000 -0.088858327
C   C60       1.0  0.66290  0.13830  0.41463  1.0000 -0.088858327
C   C61       1.0  0.32520  0.41120  0.84340  1.0000 -0.1330262089
C   C62       1.0  0.91400  0.32520  0.17673  1.0000 -0.1330262089
C   C63       1.0  0.58880  0.91400  0.51007  1.0000 -0.1330262089
C   C64       1.0  0.67480  0.58880  0.84340  1.0000 -0.1330262089
C   C65       1.0  0.08600  0.67480  0.17673  1.0000 -0.1330262089
C   C66       1.0  0.41120  0.08600  0.51007  1.0000 -0.1330262089
C   C67       1.0  0.58880  0.67480  0.82327  1.0000 -0.1330262089
C   C68       1.0  0.91400  0.58880  0.15660  1.0000 -0.1330262089
C   C69       1.0  0.32520  0.91400  0.48993  1.0000 -0.1330262089
C   C70       1.0  0.41120  0.32520  0.82327  1.0000 -0.1330262089
C   C71       1.0  0.08600  0.41120  0.15660  1.0000 -0.1330262089
C   C72       1.0  0.67480  0.08600  0.48993  1.0000 -0.1330262089
C   C73       1.0  0.28800  0.34530  0.92620  1.0000 0.0733477025
C   C74       1.0  0.94270  0.28800  0.25953  1.0000 0.0733477025
C   C75       1.0  0.65470  0.94270  0.59287  1.0000 0.0733477025
C   C76       1.0  0.71200  0.65470  0.92620  1.0000 0.0733477025
C   C77       1.0  0.05730  0.71200  0.25953  1.0000 0.0733477025
C   C78       1.0  0.34530  0.05730  0.59287  1.0000 0.0733477025
C   C79       1.0  0.65470  0.71200  0.74047  1.0000 0.0733477025
C   C80       1.0  0.94270  0.65470  0.07380  1.0000 0.0733477025
C   C81       1.0  0.28800  0.94270  0.40713  1.0000 0.0733477025
C   C82       1.0  0.34530  0.28800  0.74047  1.0000 0.0733477025
C   C83       1.0  0.05730  0.34530  0.07380  1.0000 0.0733477025
C   C84       1.0  0.71200  0.05730  0.40713  1.0000 0.0733477025
C   C85       1.0  0.27690  0.27690  0.83333  1.0000 -0.2815499928
C   C86       1.0  0.00000  0.27690  0.16667  1.0000 -0.2815499928
C   C87       1.0  0.72310  0.00000  0.50000  1.0000 -0.2815499928
C   C88       1.0  0.72310  0.72310  0.83333  1.0000 -0.2815499928
C   C89       1.0  0.00000  0.72310  0.16667  1.0000 -0.2815499928
C   C90       1.0  0.27690  0.00000  0.50000  1.0000 -0.2815499928
C   C91       1.0  0.25530  0.21250  0.95890  1.0000 0.6582927132
C   C92       1.0  0.04280  0.25530  0.29223  1.0000 0.6582927132
C   C93       1.0  0.78750  0.04280  0.62557  1.0000 0.6582927132
C   C94       1.0  0.74470  0.78750  0.95890  1.0000 0.6582927132
C   C95       1.0  0.95720  0.74470  0.29223  1.0000 0.6582927132
C   C96       1.0  0.21250  0.95720  0.62557  1.0000 0.6582927132
C   C97       1.0  0.78750  0.74470  0.70777  1.0000 0.6582927132
C   C98       1.0  0.04280  0.78750  0.04110  1.0000 0.6582927132
C   C99       1.0  0.25530  0.04280  0.37443  1.0000 0.6582927132
C   C100      1.0  0.21250  0.25530  0.70777  1.0000 0.6582927132
C   C101      1.0  0.95720  0.21250  0.04110  1.0000 0.6582927132
C   C102      1.0  0.74470  0.95720  0.37443  1.0000 0.6582927132
O   O1        1.0  0.36240  0.60130  0.09270  1.0000 -0.5515689429
O   O2        1.0  0.76110  0.36240  0.42603  1.0000 -0.5515689429
O   O3        1.0  0.39870  0.76110  0.75937  1.0000 -0.5515689429
O   O4        1.0  0.63760  0.39870  0.09270  1.0000 -0.5515689429
O   O5        1.0  0.23890  0.63760  0.42603  1.0000 -0.5515689429
O   O6        1.0  0.60130  0.23890  0.75937  1.0000 -0.5515689429
O   O7        1.0  0.39870  0.63760  0.57397  1.0000 -0.5515689429
O   O8        1.0  0.76110  0.39870  0.90730  1.0000 -0.5515689429
O   O9        1.0  0.36240  0.76110  0.24063  1.0000 -0.5515689429
O   O10       1.0  0.60130  0.36240  0.57397  1.0000 -0.5515689429
O   O11       1.0  0.23890  0.60130  0.90730  1.0000 -0.5515689429
O   O12       1.0  0.63760  0.23890  0.24063  1.0000 -0.5515689429
O   O13       1.0  0.29340  0.53560  0.31430  1.0000 -0.5259810513
O   O14       1.0  0.75780  0.29340  0.64763  1.0000 -0.5259810513
O   O15       1.0  0.46440  0.75780  0.98097  1.0000 -0.5259810513
O   O16       1.0  0.70660  0.46440  0.31430  1.0000 -0.5259810513
O   O17       1.0  0.24220  0.70660  0.64763  1.0000 -0.5259810513
O   O18       1.0  0.53560  0.24220  0.98097  1.0000 -0.5259810513
O   O19       1.0  0.46440  0.70660  0.35237  1.0000 -0.5259810513
O   O20       1.0  0.75780  0.46440  0.68570  1.0000 -0.5259810513
O   O21       1.0  0.29340  0.75780  0.01903  1.0000 -0.5259810513
O   O22       1.0  0.53560  0.29340  0.35237  1.0000 -0.5259810513
O   O23       1.0  0.24220  0.53560  0.68570  1.0000 -0.5259810513
O   O24       1.0  0.70660  0.24220  0.01903  1.0000 -0.5259810513
F   F1        1.0  0.25350  0.15590  0.87750  1.0000 -0.1913591368
F   F2        1.0  0.09760  0.25350  0.21083  1.0000 -0.1913591368
F   F3        1.0  0.84410  0.09760  0.54417  1.0000 -0.1913591368
F   F4        1.0  0.74650  0.84410  0.87750  1.0000 -0.1913591368
F   F5        1.0  0.90240  0.74650  0.21083  1.0000 -0.1913591368
F   F6        1.0  0.15590  0.90240  0.54417  1.0000 -0.1913591368
F   F7        1.0  0.84410  0.74650  0.78917  1.0000 -0.1913591368
F   F8        1.0  0.09760  0.84410  0.12250  1.0000 -0.1913591368
F   F9        1.0  0.25350  0.09760  0.45583  1.0000 -0.1913591368
F   F10       1.0  0.15590  0.25350  0.78917  1.0000 -0.1913591368
F   F11       1.0  0.90240  0.15590  0.12250  1.0000 -0.1913591368
F   F12       1.0  0.74650  0.90240  0.45583  1.0000 -0.1913591368
F   F13       1.0  0.30230  0.23080  0.08790  1.0000 -0.1913591368
F   F14       1.0  0.07150  0.30230  0.42123  1.0000 -0.1913591368
F   F15       1.0  0.76920  0.07150  0.75457  1.0000 -0.1913591368
F   F16       1.0  0.69770  0.76920  0.08790  1.0000 -0.1913591368
F   F17       1.0  0.92850  0.69770  0.42123  1.0000 -0.1913591368
F   F18       1.0  0.23080  0.92850  0.75457  1.0000 -0.1913591368
F   F19       1.0  0.76920  0.69770  0.57877  1.0000 -0.1913591368
F   F20       1.0  0.07150  0.76920  0.91210  1.0000 -0.1913591368
F   F21       1.0  0.30230  0.07150  0.24543  1.0000 -0.1913591368
F   F22       1.0  0.23080  0.30230  0.57877  1.0000 -0.1913591368
F   F23       1.0  0.92850  0.23080  0.91210  1.0000 -0.1913591368
F   F24       1.0  0.69770  0.92850  0.24543  1.0000 -0.1913591368
F   F25       1.0  0.18990  0.18700  0.03030  1.0000 -0.1913591368
F   F26       1.0  0.00290  0.18990  0.36363  1.0000 -0.1913591368
F   F27       1.0  0.81300  0.00290  0.69697  1.0000 -0.1913591368
F   F28       1.0  0.81010  0.81300  0.03030  1.0000 -0.1913591368
F   F29       1.0  0.99710  0.81010  0.36363  1.0000 -0.1913591368
F   F30       1.0  0.18700  0.99710  0.69697  1.0000 -0.1913591368
F   F31       1.0  0.81300  0.81010  0.63637  1.0000 -0.1913591368
F   F32       1.0  0.00290  0.81300  0.96970  1.0000 -0.1913591368
F   F33       1.0  0.18990  0.00290  0.30303  1.0000 -0.1913591368
F   F34       1.0  0.18700  0.18990  0.63637  1.0000 -0.1913591368
F   F35       1.0  0.99710  0.18700  0.96970  1.0000 -0.1913591368
F   F36       1.0  0.81010  0.99710  0.30303  1.0000 -0.1913591368
