# DDEC6 charges by PACMAN v1.1 (https://github.com/mtap-research/PACMAN-charge/)
data_2009[Co][dia]3[ASR]1
_chemical_formula_sum              "Co2 H80 C64 N16"
_cell_length_a       20.2321
_cell_length_b       18.1709
_cell_length_c       12.4625
_cell_angle_alpha    80.3193
_cell_angle_beta     62.2928
_cell_angle_gamma    37.3879

_symmetry_space_group_name_H-M    "P 1"
_symmetry_Int_Tables_number       1

loop_
  _symmetry_equiv_pos_as_xyz
  'x, y, z'

loop_
  _atom_site_type_symbol
  _atom_site_label
  _atom_site_symmetry_multiplicity
  _atom_site_fract_x
  _atom_site_fract_y
  _atom_site_fract_z
  _atom_site_occupancy
  _atom_site_charge
Co  Co1       1.0  0.25000  0.25000  0.25000  1.0000 0.0525886011
Co  Co2       1.0  0.00000  0.00000  0.00000  1.0000 0.0525886011
H   H1        1.0  0.31700  0.03060  0.24180  1.0000 0.0996838673
H   H2        1.0  0.03060  0.31700  0.41060  1.0000 0.0996838673
H   H3        1.0  0.24180  0.41060  0.31700  1.0000 0.0996838673
H   H4        1.0  0.41060  0.24180  0.03060  1.0000 0.0996838673
H   H5        1.0  0.93300  0.21940  0.00820  1.0000 0.0996838673
H   H6        1.0  0.21940  0.93300  0.83940  1.0000 0.0996838673
H   H7        1.0  0.00820  0.83940  0.93300  1.0000 0.0996838673
H   H8        1.0  0.83940  0.00820  0.21940  1.0000 0.0996838673
H   H9        1.0  0.30770  0.94110  0.56250  1.0000 0.1156875366
H   H10       1.0  0.94110  0.30770  0.18870  1.0000 0.1156875366
H   H11       1.0  0.56250  0.18870  0.30770  1.0000 0.1156875366
H   H12       1.0  0.18870  0.56250  0.94110  1.0000 0.1156875366
H   H13       1.0  0.94230  0.30890  0.68750  1.0000 0.1156875366
H   H14       1.0  0.30890  0.94230  0.06130  1.0000 0.1156875366
H   H15       1.0  0.68750  0.06130  0.94230  1.0000 0.1156875366
H   H16       1.0  0.06130  0.68750  0.30890  1.0000 0.1148425405
H   H17       1.0  0.25900  0.09720  0.63440  1.0000 0.1148425405
H   H18       1.0  0.09720  0.25900  0.00940  1.0000 0.1148425405
H   H19       1.0  0.63440  0.00940  0.25900  1.0000 0.1148425405
H   H20       1.0  0.00940  0.63440  0.09720  1.0000 0.1148425405
H   H21       1.0  0.99100  0.15280  0.61560  1.0000 0.1148425405
H   H22       1.0  0.15280  0.99100  0.24060  1.0000 0.1148425405
H   H23       1.0  0.61560  0.24060  0.99100  1.0000 0.1148425405
H   H24       1.0  0.24060  0.61560  0.15280  1.0000 0.1148425405
H   H25       1.0  0.23420  0.21980  0.51120  1.0000 0.0996838673
H   H26       1.0  0.21980  0.23420  0.03480  1.0000 0.0996838673
H   H27       1.0  0.51120  0.03480  0.23420  1.0000 0.0996838673
H   H28       1.0  0.03480  0.51120  0.21980  1.0000 0.0996838673
H   H29       1.0  0.01580  0.03020  0.73880  1.0000 0.0996838673
H   H30       1.0  0.03020  0.01580  0.21520  1.0000 0.0996838673
H   H31       1.0  0.73880  0.21520  0.01580  1.0000 0.0996838673
H   H32       1.0  0.21520  0.73880  0.03020  1.0000 0.0996838673
H   H33       1.0  0.29630  0.90330  0.31430  1.0000 0.0996838673
H   H34       1.0  0.90330  0.29630  0.48610  1.0000 0.0996838673
H   H35       1.0  0.31430  0.48610  0.29630  1.0000 0.0996838673
H   H36       1.0  0.48610  0.31430  0.90330  1.0000 0.0996838673
H   H37       1.0  0.95370  0.34670  0.93570  1.0000 0.0996838673
H   H38       1.0  0.34670  0.95370  0.76390  1.0000 0.0996838673
H   H39       1.0  0.93570  0.76390  0.95370  1.0000 0.0996838673
H   H40       1.0  0.76390  0.93570  0.34670  1.0000 0.0996838673
H   H41       1.0  0.36120  0.82160  0.39500  1.0000 0.0996838673
H   H42       1.0  0.82160  0.36120  0.42220  1.0000 0.0996838673
H   H43       1.0  0.39500  0.42220  0.36120  1.0000 0.0996838673
H   H44       1.0  0.42220  0.39500  0.82160  1.0000 0.0996838673
H   H45       1.0  0.88880  0.42840  0.85500  1.0000 0.0996838673
H   H46       1.0  0.42840  0.88880  0.82780  1.0000 0.0996838673
H   H47       1.0  0.85500  0.82780  0.88880  1.0000 0.0996838673
H   H48       1.0  0.82780  0.85500  0.42840  1.0000 0.0996838673
H   H49       1.0  0.45420  0.71960  0.12620  1.0000 0.0996838673
H   H50       1.0  0.71960  0.45420  0.70000  1.0000 0.0996838673
H   H51       1.0  0.12620  0.70000  0.45420  1.0000 0.0996838673
H   H52       1.0  0.70000  0.12620  0.71960  1.0000 0.0996838673
H   H53       1.0  0.79580  0.53040  0.12380  1.0000 0.0996838673
H   H54       1.0  0.53040  0.79580  0.55000  1.0000 0.0996838673
H   H55       1.0  0.12380  0.55000  0.79580  1.0000 0.0996838673
H   H56       1.0  0.55000  0.12380  0.53040  1.0000 0.0996838673
H   H57       1.0  0.51770  0.62830  0.20390  1.0000 0.0996838673
H   H58       1.0  0.62830  0.51770  0.65010  1.0000 0.0996838673
H   H59       1.0  0.20390  0.65010  0.51770  1.0000 0.0996838673
H   H60       1.0  0.65010  0.20390  0.62830  1.0000 0.0996838673
H   H61       1.0  0.73230  0.62170  0.04610  1.0000 0.0996838673
H   H62       1.0  0.62170  0.73230  0.59990  1.0000 0.0996838673
H   H63       1.0  0.04610  0.59990  0.73230  1.0000 0.0996838673
H   H64       1.0  0.59990  0.04610  0.62170  1.0000 0.0996838673
H   H65       1.0  0.59110  0.64330  0.29330  1.0000 0.0920337387
H   H66       1.0  0.64330  0.59110  0.47230  1.0000 0.0920337387
H   H67       1.0  0.29330  0.47230  0.59110  1.0000 0.0920337387
H   H68       1.0  0.47230  0.29330  0.64330  1.0000 0.0920337387
H   H69       1.0  0.65890  0.60670  0.95670  1.0000 0.0920337387
H   H70       1.0  0.60670  0.65890  0.77770  1.0000 0.0920337387
H   H71       1.0  0.95670  0.77770  0.65890  1.0000 0.0920337387
H   H72       1.0  0.77770  0.95670  0.60670  1.0000 0.0920337387
H   H73       1.0  0.57720  0.74380  0.27500  1.0000 0.0996838673
H   H74       1.0  0.74380  0.57720  0.40400  1.0000 0.0996838673
H   H75       1.0  0.27500  0.40400  0.57720  1.0000 0.0996838673
H   H76       1.0  0.40400  0.27500  0.74380  1.0000 0.0996838673
H   H77       1.0  0.67280  0.50620  0.97500  1.0000 0.0996838673
H   H78       1.0  0.50620  0.67280  0.84600  1.0000 0.0996838673
H   H79       1.0  0.97500  0.84600  0.67280  1.0000 0.0996838673
H   H80       1.0  0.84600  0.97500  0.50620  1.0000 0.0996838673
C   C1        1.0  0.30440  0.04440  0.32340  1.0000 -0.0023879734
C   C2        1.0  0.04440  0.30440  0.32780  1.0000 -0.0023879734
C   C3        1.0  0.32340  0.32780  0.30440  1.0000 -0.0023879734
C   C4        1.0  0.32780  0.32340  0.04440  1.0000 -0.0023879734
C   C5        1.0  0.94560  0.20560  0.92660  1.0000 -0.0023879734
C   C6        1.0  0.20560  0.94560  0.92220  1.0000 -0.0023879734
C   C7        1.0  0.92660  0.92220  0.94560  1.0000 -0.0023879734
C   C8        1.0  0.92220  0.92660  0.20560  1.0000 -0.0023879734
C   C9        1.0  0.32125  0.96665  0.39015  1.0000 0.0317424354
C   C10       1.0  0.96665  0.32125  0.32195  1.0000 0.0317424354
C   C11       1.0  0.39015  0.32195  0.32125  1.0000 0.0317424354
C   C12       1.0  0.32195  0.39015  0.96665  1.0000 0.0317424354
C   C13       1.0  0.92875  0.28335  0.85985  1.0000 0.0317424354
C   C14       1.0  0.28335  0.92875  0.92805  1.0000 0.0317424354
C   C15       1.0  0.85985  0.92805  0.92875  1.0000 0.0317424354
C   C16       1.0  0.92805  0.85985  0.28335  1.0000 0.0317424354
C   C17       1.0  0.30060  0.98960  0.51120  1.0000 -0.1397584728
C   C18       1.0  0.98960  0.30060  0.19860  1.0000 -0.1397584728
C   C19       1.0  0.51120  0.19860  0.30060  1.0000 -0.1397584728
C   C20       1.0  0.19860  0.51120  0.98960  1.0000 -0.1397584728
C   C21       1.0  0.94940  0.26040  0.73880  1.0000 -0.1397584728
C   C22       1.0  0.26040  0.94940  0.05140  1.0000 -0.1397584728
C   C23       1.0  0.73880  0.05140  0.94940  1.0000 -0.1397584728
C   C24       1.0  0.05140  0.73880  0.26040  1.0000 -0.1397584728
C   C25       1.0  0.27020  0.08260  0.55420  1.0000 -0.1562231606
C   C26       1.0  0.08260  0.27020  0.09300  1.0000 -0.1562231606
C   C27       1.0  0.55420  0.09300  0.27020  1.0000 -0.1562231606
C   C28       1.0  0.09300  0.55420  0.08260  1.0000 -0.1562231606
C   C29       1.0  0.97980  0.16740  0.69580  1.0000 -0.1562231606
C   C30       1.0  0.16740  0.97980  0.15700  1.0000 -0.1562231606
C   C31       1.0  0.69580  0.15700  0.97980  1.0000 -0.1562231606
C   C32       1.0  0.15700  0.69580  0.16740  1.0000 -0.1562231606
C   C33       1.0  0.25590  0.15510  0.48010  1.0000 0.0364121427
C   C34       1.0  0.15510  0.25590  0.10890  1.0000 0.0364121427
C   C35       1.0  0.48010  0.10890  0.25590  1.0000 0.0364121427
C   C36       1.0  0.10890  0.48010  0.15510  1.0000 0.0364121427
C   C37       1.0  0.99410  0.09490  0.76990  1.0000 0.0364121427
C   C38       1.0  0.09490  0.99410  0.14110  1.0000 0.0364121427
C   C39       1.0  0.76990  0.14110  0.99410  1.0000 0.0364121427
C   C40       1.0  0.14110  0.76990  0.09490  1.0000 0.0364121427
C   C41       1.0  0.36100  0.86280  0.33180  1.0000 -0.2002779557
C   C42       1.0  0.86280  0.36100  0.44440  1.0000 -0.2002779557
C   C43       1.0  0.33180  0.44440  0.36100  1.0000 -0.2002779557
C   C44       1.0  0.44440  0.33180  0.86280  1.0000 -0.2002779557
C   C45       1.0  0.88900  0.38720  0.91820  1.0000 -0.2002779557
C   C46       1.0  0.38720  0.88900  0.80560  1.0000 -0.2002779557
C   C47       1.0  0.91820  0.80560  0.88900  1.0000 -0.2002779557
C   C48       1.0  0.80560  0.91820  0.38720  1.0000 -0.2002779557
C   C49       1.0  0.52150  0.66990  0.14410  1.0000 -0.1473384085
C   C50       1.0  0.66990  0.52150  0.66450  1.0000 -0.1473384085
C   C51       1.0  0.14410  0.66450  0.52150  1.0000 -0.1473384085
C   C52       1.0  0.66450  0.14410  0.66990  1.0000 -0.1473384085
C   C53       1.0  0.72850  0.58010  0.10590  1.0000 -0.1473384085
C   C54       1.0  0.58010  0.72850  0.58550  1.0000 -0.1473384085
C   C55       1.0  0.10590  0.58550  0.72850  1.0000 -0.1473384085
C   C56       1.0  0.58550  0.10590  0.58010  1.0000 -0.1473384085
C   C57       1.0  0.59430  0.68470  0.23290  1.0000 -0.1473384085
C   C58       1.0  0.68470  0.59430  0.48810  1.0000 -0.1473384085
C   C59       1.0  0.23290  0.48810  0.59430  1.0000 -0.1473384085
C   C60       1.0  0.48810  0.23290  0.68470  1.0000 -0.1473384085
C   C61       1.0  0.65570  0.56530  0.01710  1.0000 -0.1473384085
C   C62       1.0  0.56530  0.65570  0.76190  1.0000 -0.1473384085
C   C63       1.0  0.01710  0.76190  0.65570  1.0000 -0.1473384085
C   C64       1.0  0.76190  0.01710  0.56530  1.0000 -0.1473384085
N   N1        1.0  0.27149  0.13749  0.36591  1.0000 -0.2139695412
N   N2        1.0  0.13749  0.27149  0.22511  1.0000 -0.2139695412
N   N3        1.0  0.36591  0.22511  0.27149  1.0000 -0.2139695412
N   N4        1.0  0.22511  0.36591  0.13749  1.0000 -0.2139695412
N   N5        1.0  0.97851  0.11251  0.88409  1.0000 -0.2139695412
N   N6        1.0  0.11251  0.97851  0.02489  1.0000 -0.2139695412
N   N7        1.0  0.88409  0.02489  0.97851  1.0000 -0.2139695412
N   N8        1.0  0.02489  0.88409  0.11251  1.0000 -0.2139695412
N   N9        1.0  0.49399  0.75999  0.20701  1.0000 -0.0942530702
N   N10       1.0  0.75999  0.49399  0.53901  1.0000 -0.0942530702
N   N11       1.0  0.20701  0.53901  0.49399  1.0000 -0.0942530702
N   N12       1.0  0.53901  0.20701  0.75999  1.0000 -0.0942530702
N   N13       1.0  0.75601  0.49001  0.04299  1.0000 -0.0942530702
N   N14       1.0  0.49001  0.75601  0.71099  1.0000 -0.0942530702
N   N15       1.0  0.04299  0.71099  0.75601  1.0000 -0.0942530702
N   N16       1.0  0.71099  0.04299  0.49001  1.0000 -0.0942530702
