# DDEC6 charges by PACMAN v1.1 (https://github.com/mtap-research/PACMAN-charge/)
data_2009[CuSm][nan]3[ASR]1
_chemical_formula_sum              "Sm4 Cu4 H32 C56 N8 O32"
_cell_length_a       9.2333
_cell_length_b       21.585
_cell_length_c       9.5503
_cell_angle_alpha    90
_cell_angle_beta     116.006
_cell_angle_gamma    90

_symmetry_space_group_name_H-M    "P 1"
_symmetry_Int_Tables_number       1

loop_
  _symmetry_equiv_pos_as_xyz
  'x, y, z'

loop_
  _atom_site_type_symbol
  _atom_site_label
  _atom_site_symmetry_multiplicity
  _atom_site_fract_x
  _atom_site_fract_y
  _atom_site_fract_z
  _atom_site_occupancy
  _atom_site_charge
Sm  Sm1       1.0  0.62341  0.99144  0.85922  1.0000 2.0753421751
Sm  Sm2       1.0  0.87659  0.49144  0.14078  1.0000 2.0748174158
Sm  Sm3       1.0  0.37659  0.00856  0.14078  1.0000 2.0753421751
Sm  Sm4       1.0  0.12341  0.50856  0.85922  1.0000 2.0748174158
Cu  Cu1       1.0  0.95914  0.85455  0.80884  1.0000 0.337509532
Cu  Cu2       1.0  0.54086  0.35455  0.19116  1.0000 0.337509532
Cu  Cu3       1.0  0.04086  0.14545  0.19116  1.0000 0.337509532
Cu  Cu4       1.0  0.45914  0.64545  0.80884  1.0000 0.337509532
H   H1        1.0  0.60890  0.16640  0.81730  1.0000 0.1505812746
H   H2        1.0  0.89110  0.66640  0.18270  1.0000 0.1505812746
H   H3        1.0  0.39110  0.83360  0.18270  1.0000 0.1505812746
H   H4        1.0  0.10890  0.33360  0.81730  1.0000 0.1505812746
H   H5        1.0  0.06080  0.93010  0.29690  1.0000 0.1359755066
H   H6        1.0  0.43920  0.43010  0.70310  1.0000 0.1359755066
H   H7        1.0  0.93920  0.06990  0.70310  1.0000 0.1359755066
H   H8        1.0  0.56080  0.56990  0.29690  1.0000 0.1359755066
H   H9        1.0  0.25580  0.87480  0.49930  1.0000 0.1505812746
H   H10       1.0  0.24420  0.37480  0.50070  1.0000 0.1505812746
H   H11       1.0  0.74420  0.12520  0.50070  1.0000 0.1505812746
H   H12       1.0  0.75580  0.62520  0.49930  1.0000 0.1505812746
H   H13       1.0  0.79250  0.92970  0.52920  1.0000 0.1211205539
H   H14       1.0  0.70750  0.42970  0.47080  1.0000 0.1211205539
H   H15       1.0  0.20750  0.07030  0.47080  1.0000 0.1211205539
H   H16       1.0  0.29250  0.57030  0.52920  1.0000 0.1211205539
H   H17       1.0  0.64720  0.26900  0.77190  1.0000 0.1315679107
H   H18       1.0  0.85280  0.76900  0.22810  1.0000 0.1315679107
H   H19       1.0  0.35280  0.73100  0.22810  1.0000 0.1315679107
H   H20       1.0  0.14720  0.23100  0.77190  1.0000 0.1315679107
H   H21       1.0  0.20630  0.84360  0.70320  1.0000 0.0978792799
H   H22       1.0  0.29370  0.34360  0.29680  1.0000 0.0978792799
H   H23       1.0  0.79370  0.15640  0.29680  1.0000 0.0978792799
H   H24       1.0  0.70630  0.65640  0.70320  1.0000 0.0978792799
H   H25       1.0  0.49600  0.22390  0.15420  1.0000 0.1105532912
H   H26       1.0  0.00400  0.72390  0.84580  1.0000 0.1105532912
H   H27       1.0  0.50400  0.77610  0.84580  1.0000 0.1105532912
H   H28       1.0  0.99600  0.27610  0.15420  1.0000 0.1105532912
H   H29       1.0  0.62520  0.34480  0.92650  1.0000 0.1211205539
H   H30       1.0  0.87480  0.84480  0.07350  1.0000 0.1211205539
H   H31       1.0  0.37480  0.65520  0.07350  1.0000 0.1211205539
H   H32       1.0  0.12520  0.15520  0.92650  1.0000 0.1211205539
C   C1        1.0  0.54600  0.18450  0.99150  1.0000 -0.0691257198
C   C2        1.0  0.95400  0.68450  0.00850  1.0000 -0.0691257198
C   C3        1.0  0.45400  0.81550  0.00850  1.0000 -0.0691257198
C   C4        1.0  0.04600  0.31550  0.99150  1.0000 -0.0691257198
C   C5        1.0  0.51140  0.12050  0.02730  1.0000 0.6054642168
C   C6        1.0  0.98860  0.62050  0.97270  1.0000 0.6054642168
C   C7        1.0  0.48860  0.87950  0.97270  1.0000 0.6054642168
C   C8        1.0  0.01140  0.37950  0.02730  1.0000 0.6054642168
C   C9        1.0  0.59410  0.19790  0.87630  1.0000 -0.0472308094
C   C10       1.0  0.90590  0.69790  0.12370  1.0000 -0.0472308094
C   C11       1.0  0.40590  0.80210  0.12370  1.0000 -0.0472308094
C   C12       1.0  0.09410  0.30210  0.87630  1.0000 -0.0472308094
C   C13       1.0  0.77190  0.96940  0.25950  1.0000 0.6314653126
C   C14       1.0  0.72810  0.46940  0.74050  1.0000 0.6314653126
C   C15       1.0  0.22810  0.03060  0.74050  1.0000 0.6314653126
C   C16       1.0  0.27190  0.53060  0.25950  1.0000 0.6314653126
C   C17       1.0  0.90380  0.93490  0.39040  1.0000 -0.0691257198
C   C18       1.0  0.59620  0.43490  0.60960  1.0000 -0.0691257198
C   C19       1.0  0.09620  0.06510  0.60960  1.0000 -0.0691257198
C   C20       1.0  0.40380  0.56510  0.39040  1.0000 -0.0691257198
C   C21       1.0  0.04410  0.91860  0.38260  1.0000 -0.0589457327
C   C22       1.0  0.45590  0.41860  0.61740  1.0000 -0.0589457327
C   C23       1.0  0.95590  0.08140  0.61740  1.0000 -0.0589457327
C   C24       1.0  0.54410  0.58140  0.38260  1.0000 -0.0589457327
C   C25       1.0  0.15920  0.88520  0.50180  1.0000 -0.1114430907
C   C26       1.0  0.34080  0.38520  0.49820  1.0000 -0.1114430907
C   C27       1.0  0.84080  0.11480  0.49820  1.0000 -0.1114430907
C   C28       1.0  0.65920  0.61480  0.50180  1.0000 -0.1114430907
C   C29       1.0  0.88500  0.91730  0.52110  1.0000 0.0543148746
C   C30       1.0  0.61500  0.41730  0.47890  1.0000 0.0543148746
C   C31       1.0  0.11500  0.08270  0.47890  1.0000 0.0543148746
C   C32       1.0  0.38500  0.58270  0.52110  1.0000 0.0543148746
C   C33       1.0  0.61930  0.25870  0.85140  1.0000 -0.1403224054
C   C34       1.0  0.88070  0.75870  0.14860  1.0000 -0.1403224054
C   C35       1.0  0.38070  0.74130  0.14860  1.0000 -0.1403224054
C   C36       1.0  0.11930  0.24130  0.85140  1.0000 -0.1403224054
C   C37       1.0  0.12960  0.86750  0.62470  1.0000 0.0632314221
C   C38       1.0  0.37040  0.36750  0.37530  1.0000 0.0632314221
C   C39       1.0  0.87040  0.13250  0.37530  1.0000 0.0632314221
C   C40       1.0  0.62960  0.63250  0.62470  1.0000 0.0632314221
C   C41       1.0  0.52910  0.23300  0.07750  1.0000 0.0279192384
C   C42       1.0  0.97090  0.73300  0.92250  1.0000 0.0279192384
C   C43       1.0  0.47090  0.76700  0.92250  1.0000 0.0279192384
C   C44       1.0  0.02910  0.26700  0.07750  1.0000 0.0279192384
C   C45       1.0  0.60350  0.30410  0.94300  1.0000 0.0748688844
C   C46       1.0  0.89650  0.80410  0.05700  1.0000 0.0748688844
C   C47       1.0  0.39650  0.69590  0.05700  1.0000 0.0748688844
C   C48       1.0  0.10350  0.19590  0.94300  1.0000 0.0748688844
C   C49       1.0  0.48880  0.96450  0.49200  1.0000 0.4782880512
C   C50       1.0  0.01120  0.46450  0.50800  1.0000 0.4782880512
C   C51       1.0  0.51120  0.03550  0.50800  1.0000 0.4782880512
C   C52       1.0  0.98880  0.53550  0.49200  1.0000 0.4782880512
C   C53       1.0  0.00350  0.96630  0.97720  1.0000 0.4782880512
C   C54       1.0  0.49650  0.46630  0.02280  1.0000 0.4782880512
C   C55       1.0  0.99650  0.03370  0.02280  1.0000 0.4782880512
C   C56       1.0  0.50350  0.53370  0.97720  1.0000 0.4782880512
N   N1        1.0  0.99500  0.88310  0.63690  1.0000 -0.2002708945
N   N2        1.0  0.50500  0.38310  0.36310  1.0000 -0.2002708945
N   N3        1.0  0.00500  0.11690  0.36310  1.0000 -0.2002708945
N   N4        1.0  0.49500  0.61690  0.63690  1.0000 -0.2002708945
N   N5        1.0  0.55770  0.29250  0.05680  1.0000 -0.2002708945
N   N6        1.0  0.94230  0.79250  0.94320  1.0000 -0.2002708945
N   N7        1.0  0.44230  0.70750  0.94320  1.0000 -0.2002708945
N   N8        1.0  0.05770  0.20750  0.05680  1.0000 -0.2002708945
O   O1        1.0  0.87320  0.94214  0.88220  1.0000 -0.572010796
O   O2        1.0  0.62680  0.44214  0.11780  1.0000 -0.572010796
O   O3        1.0  0.12680  0.05786  0.11780  1.0000 -0.572010796
O   O4        1.0  0.37320  0.55786  0.88220  1.0000 -0.572010796
O   O5        1.0  0.78000  0.96962  0.13210  1.0000 -0.6588320466
O   O6        1.0  0.72000  0.46962  0.86790  1.0000 -0.6588320466
O   O7        1.0  0.22000  0.03038  0.86790  1.0000 -0.6588320466
O   O8        1.0  0.28000  0.53038  0.13210  1.0000 -0.6588320466
O   O9        1.0  0.55040  0.07549  0.96830  1.0000 -0.6957245303
O   O10       1.0  0.94960  0.57549  0.03170  1.0000 -0.6957245303
O   O11       1.0  0.44960  0.92451  0.03170  1.0000 -0.6949643525
O   O12       1.0  0.05040  0.42451  0.96830  1.0000 -0.6957245303
O   O13       1.0  0.55120  0.93372  0.61540  1.0000 -0.5802675518
O   O14       1.0  0.94880  0.43372  0.38460  1.0000 -0.5802675518
O   O15       1.0  0.44880  0.06628  0.38460  1.0000 -0.5802675518
O   O16       1.0  0.05120  0.56628  0.61540  1.0000 -0.5802675518
O   O17       1.0  0.66400  0.99420  0.28730  1.0000 -0.6588320466
O   O18       1.0  0.83600  0.49420  0.71270  1.0000 -0.6588320466
O   O19       1.0  0.33600  0.00580  0.71270  1.0000 -0.6588320466
O   O20       1.0  0.16400  0.50580  0.28730  1.0000 -0.6588320466
O   O21       1.0  0.44310  0.11438  0.11450  1.0000 -0.6105935606
O   O22       1.0  0.05690  0.61438  0.88550  1.0000 -0.6105935606
O   O23       1.0  0.55690  0.88562  0.88550  1.0000 -0.6105935606
O   O24       1.0  0.94310  0.38562  0.11450  1.0000 -0.6105935606
O   O25       1.0  0.40890  0.94314  0.35790  1.0000 -0.6009924742
O   O26       1.0  0.09110  0.44314  0.64210  1.0000 -0.6009924742
O   O27       1.0  0.59110  0.05686  0.64210  1.0000 -0.6009924742
O   O28       1.0  0.90890  0.55686  0.35790  1.0000 -0.6009924742
O   O29       1.0  0.13660  0.93933  0.03770  1.0000 -0.572010796
O   O30       1.0  0.36340  0.43933  0.96230  1.0000 -0.572010796
O   O31       1.0  0.86340  0.06067  0.96230  1.0000 -0.572010796
O   O32       1.0  0.63660  0.56067  0.03770  1.0000 -0.572010796
