# DDEC6 charges by PACMAN v1.1 (https://github.com/mtap-research/PACMAN-charge/)
data_2009[AgSm][nan]3[ASR]1
_chemical_formula_sum              "Sm4 Ag4 H32 C56 N8 O32"
_cell_length_a       9.1726
_cell_length_b       22.3444
_cell_length_c       9.7145
_cell_angle_alpha    90
_cell_angle_beta     117.295
_cell_angle_gamma    90

_symmetry_space_group_name_H-M    "P 1"
_symmetry_Int_Tables_number       1

loop_
  _symmetry_equiv_pos_as_xyz
  'x, y, z'

loop_
  _atom_site_type_symbol
  _atom_site_label
  _atom_site_symmetry_multiplicity
  _atom_site_fract_x
  _atom_site_fract_y
  _atom_site_fract_z
  _atom_site_occupancy
  _atom_site_charge
Sm  Sm1       1.0  0.88233  0.00869  0.14285  1.0000 2.0725876618
Sm  Sm2       1.0  0.61767  0.50869  0.85715  1.0000 2.0725876618
Sm  Sm3       1.0  0.11767  0.99131  0.85715  1.0000 2.0725876618
Sm  Sm4       1.0  0.38233  0.49131  0.14285  1.0000 2.0725876618
Ag  Ag1       1.0  0.51691  0.14763  0.17933  1.0000 0.335942455
Ag  Ag2       1.0  0.98309  0.64763  0.82067  1.0000 0.335942455
Ag  Ag3       1.0  0.48309  0.85237  0.82067  1.0000 0.335942455
Ag  Ag4       1.0  0.01691  0.35237  0.17933  1.0000 0.335942455
H   H1        1.0  0.75600  0.86810  0.46960  1.0000 0.1490275641
H   H2        1.0  0.74400  0.36810  0.53040  1.0000 0.1490275641
H   H3        1.0  0.24400  0.13190  0.53040  1.0000 0.1490275641
H   H4        1.0  0.25600  0.63190  0.46960  1.0000 0.1490275641
H   H5        1.0  0.31660  0.93340  0.52910  1.0000 0.1207736399
H   H6        1.0  0.18340  0.43340  0.47090  1.0000 0.1207736399
H   H7        1.0  0.68340  0.06660  0.47090  1.0000 0.1207736399
H   H8        1.0  0.81660  0.56660  0.52910  1.0000 0.1207736399
H   H9        1.0  0.72210  0.84100  0.67880  1.0000 0.0982937221
H   H10       1.0  0.77790  0.34100  0.32120  1.0000 0.0982937221
H   H11       1.0  0.27790  0.15900  0.32120  1.0000 0.0982937221
H   H12       1.0  0.22210  0.65900  0.67880  1.0000 0.0982937221
H   H13       1.0  0.56080  0.92790  0.27950  1.0000 0.1323992167
H   H14       1.0  0.93920  0.42790  0.72050  1.0000 0.1323992167
H   H15       1.0  0.43920  0.07210  0.72050  1.0000 0.1323992167
H   H16       1.0  0.06080  0.57210  0.27950  1.0000 0.1323992167
H   H17       1.0  0.98830  0.21840  0.13950  1.0000 0.1074867625
H   H18       1.0  0.51170  0.71840  0.86050  1.0000 0.1074867625
H   H19       1.0  0.01170  0.78160  0.86050  1.0000 0.1074867625
H   H20       1.0  0.48830  0.28160  0.13950  1.0000 0.1074867625
H   H21       1.0  0.10060  0.15890  0.81240  1.0000 0.1490275641
H   H22       1.0  0.39940  0.65890  0.18760  1.0000 0.1490275641
H   H23       1.0  0.89940  0.84110  0.18760  1.0000 0.1490275641
H   H24       1.0  0.60060  0.34110  0.81240  1.0000 0.1490275641
H   H25       1.0  0.11410  0.33220  0.90970  1.0000 0.1207736399
H   H26       1.0  0.38590  0.83220  0.09030  1.0000 0.1207736399
H   H27       1.0  0.88590  0.66780  0.09030  1.0000 0.1207736399
H   H28       1.0  0.61410  0.16780  0.90970  1.0000 0.1207736399
H   H29       1.0  0.14000  0.25730  0.76350  1.0000 0.1323992167
H   H30       1.0  0.36000  0.75730  0.23650  1.0000 0.1323992167
H   H31       1.0  0.86000  0.74270  0.23650  1.0000 0.1323992167
H   H32       1.0  0.64000  0.24270  0.76350  1.0000 0.1323992167
C   C1        1.0  0.41470  0.93617  0.38340  1.0000 -0.0693320479
C   C2        1.0  0.08530  0.43617  0.61660  1.0000 -0.0693320479
C   C3        1.0  0.58530  0.06383  0.61660  1.0000 -0.0693320479
C   C4        1.0  0.91470  0.56383  0.38340  1.0000 -0.0693320479
C   C5        1.0  0.66480  0.88129  0.47890  1.0000 -0.1141741663
C   C6        1.0  0.83520  0.38129  0.52110  1.0000 -0.1141741663
C   C7        1.0  0.33520  0.11871  0.52110  1.0000 -0.1141741663
C   C8        1.0  0.16480  0.61871  0.47890  1.0000 -0.1141741663
C   C9        1.0  0.40470  0.91951  0.51540  1.0000 0.0525986714
C   C10       1.0  0.09530  0.41951  0.48460  1.0000 0.0525986714
C   C11       1.0  0.59530  0.08049  0.48460  1.0000 0.0525986714
C   C12       1.0  0.90470  0.58049  0.51540  1.0000 0.0525986714
C   C13       1.0  0.64410  0.86566  0.60420  1.0000 0.0622764876
C   C14       1.0  0.85590  0.36566  0.39580  1.0000 0.0622764876
C   C15       1.0  0.35590  0.13434  0.39580  1.0000 0.0622764876
C   C16       1.0  0.14410  0.63434  0.60420  1.0000 0.0622764876
C   C17       1.0  0.28110  0.97226  0.25860  1.0000 0.6294369478
C   C18       1.0  0.21890  0.47226  0.74140  1.0000 0.6294369478
C   C19       1.0  0.71890  0.02774  0.74140  1.0000 0.6294369478
C   C20       1.0  0.78110  0.52774  0.25860  1.0000 0.6294369478
C   C21       1.0  0.54900  0.91690  0.36620  1.0000 -0.0587013081
C   C22       1.0  0.95100  0.41690  0.63380  1.0000 -0.0587013081
C   C23       1.0  0.45100  0.08310  0.63380  1.0000 -0.0587013081
C   C24       1.0  0.04900  0.58310  0.36620  1.0000 -0.0587013081
C   C25       1.0  0.02080  0.22618  0.06360  1.0000 0.0285165528
C   C26       1.0  0.47920  0.72618  0.93640  1.0000 0.0285165528
C   C27       1.0  0.97920  0.77382  0.93640  1.0000 0.0285165528
C   C28       1.0  0.52080  0.27382  0.06360  1.0000 0.0285165528
C   C29       1.0  0.08640  0.18990  0.86910  1.0000 -0.0512312423
C   C30       1.0  0.41360  0.68990  0.13090  1.0000 -0.0512312423
C   C31       1.0  0.91360  0.81010  0.13090  1.0000 -0.0512312423
C   C32       1.0  0.58640  0.31010  0.86910  1.0000 -0.0512312423
C   C33       1.0  0.09310  0.29305  0.92780  1.0000 0.0622764876
C   C34       1.0  0.40690  0.79305  0.07220  1.0000 0.0622764876
C   C35       1.0  0.90690  0.70695  0.07220  1.0000 0.0622764876
C   C36       1.0  0.59310  0.20695  0.92780  1.0000 0.0622764876
C   C37       1.0  0.04010  0.17816  0.98310  1.0000 -0.0693320479
C   C38       1.0  0.45990  0.67816  0.01690  1.0000 -0.0693320479
C   C39       1.0  0.95990  0.82184  0.01690  1.0000 -0.0693320479
C   C40       1.0  0.54010  0.32184  0.98310  1.0000 -0.0693320479
C   C41       1.0  0.11110  0.24830  0.84120  1.0000 -0.1438908946
C   C42       1.0  0.38890  0.74830  0.15880  1.0000 -0.1438908946
C   C43       1.0  0.88890  0.75170  0.15880  1.0000 -0.1438908946
C   C44       1.0  0.61110  0.25170  0.84120  1.0000 -0.1438908946
C   C45       1.0  0.49720  0.03303  0.02070  1.0000 0.4829242606
C   C46       1.0  0.00280  0.53303  0.97930  1.0000 0.4829242606
C   C47       1.0  0.50280  0.96697  0.97930  1.0000 0.4829242606
C   C48       1.0  0.99720  0.46697  0.02070  1.0000 0.4829242606
C   C49       1.0  0.00780  0.11643  0.02290  1.0000 0.6060138274
C   C50       1.0  0.49220  0.61643  0.97710  1.0000 0.6060138274
C   C51       1.0  0.99220  0.88357  0.97710  1.0000 0.6060138274
C   C52       1.0  0.50780  0.38357  0.02290  1.0000 0.6060138274
C   C53       1.0  0.00830  0.03469  0.50810  1.0000 0.4829242606
C   C54       1.0  0.49170  0.53469  0.49190  1.0000 0.4829242606
C   C55       1.0  0.99170  0.96531  0.49190  1.0000 0.4829242606
C   C56       1.0  0.50830  0.46531  0.50810  1.0000 0.4829242606
N   N1        1.0  0.51630  0.88411  0.62540  1.0000 -0.1865386307
N   N2        1.0  0.98370  0.38411  0.37460  1.0000 -0.1865386307
N   N3        1.0  0.48370  0.11589  0.37460  1.0000 -0.1865386307
N   N4        1.0  0.01630  0.61589  0.62540  1.0000 -0.1865386307
N   N5        1.0  0.04630  0.28296  0.03810  1.0000 -0.1865386307
N   N6        1.0  0.45370  0.78296  0.96190  1.0000 -0.1865386307
N   N7        1.0  0.95370  0.71704  0.96190  1.0000 -0.1865386307
N   N8        1.0  0.54630  0.21704  0.03810  1.0000 -0.1865386307
O   O1        1.0  0.63050  0.05598  0.11650  1.0000 -0.5726435702
O   O2        1.0  0.86950  0.55598  0.88350  1.0000 -0.5726435702
O   O3        1.0  0.36950  0.94402  0.88350  1.0000 -0.5726435702
O   O4        1.0  0.13050  0.44402  0.11650  1.0000 -0.5726435702
O   O5        1.0  0.17690  0.99674  0.29000  1.0000 -0.6521090936
O   O6        1.0  0.32310  0.49674  0.71000  1.0000 -0.6521090936
O   O7        1.0  0.82310  0.00326  0.71000  1.0000 -0.6521090936
O   O8        1.0  0.67690  0.50326  0.29000  1.0000 -0.6521090936
O   O9        1.0  0.28340  0.97383  0.13090  1.0000 -0.657468922
O   O10       1.0  0.21660  0.47383  0.86910  1.0000 -0.657468922
O   O11       1.0  0.71660  0.02617  0.86910  1.0000 -0.657468922
O   O12       1.0  0.78340  0.52617  0.13090  1.0000 -0.657468922
O   O13       1.0  0.95040  0.06382  0.38440  1.0000 -0.5847121101
O   O14       1.0  0.54960  0.56382  0.61560  1.0000 -0.5847121101
O   O15       1.0  0.04960  0.93618  0.61560  1.0000 -0.5847121101
O   O16       1.0  0.45040  0.43618  0.38440  1.0000 -0.5847121101
O   O17       1.0  0.36140  0.05886  0.95820  1.0000 -0.5726435702
O   O18       1.0  0.13860  0.55886  0.04180  1.0000 -0.5726435702
O   O19       1.0  0.63860  0.94114  0.04180  1.0000 -0.5726435702
O   O20       1.0  0.86140  0.44114  0.95820  1.0000 -0.5726435702
O   O21       1.0  0.07870  0.05570  0.64200  1.0000 -0.6023176979
O   O22       1.0  0.42130  0.55570  0.35800  1.0000 -0.6023176979
O   O23       1.0  0.92130  0.94430  0.35800  1.0000 -0.6023176979
O   O24       1.0  0.57870  0.44430  0.64200  1.0000 -0.6023176979
O   O25       1.0  0.94430  0.11157  0.11180  1.0000 -0.606589831
O   O26       1.0  0.55570  0.61157  0.88820  1.0000 -0.606589831
O   O27       1.0  0.05570  0.88843  0.88820  1.0000 -0.606589831
O   O28       1.0  0.44430  0.38843  0.11180  1.0000 -0.606589831
O   O29       1.0  0.04480  0.07246  0.96500  1.0000 -0.6974551748
O   O30       1.0  0.45520  0.57246  0.03500  1.0000 -0.6974551748
O   O31       1.0  0.95520  0.92754  0.03500  1.0000 -0.6974551748
O   O32       1.0  0.54480  0.42754  0.96500  1.0000 -0.6974551748
