# DDEC6 charges by PACMAN v1.1 (https://github.com/mtap-research/PACMAN-charge/)
data_2009[Cu][pts]3[ASR]2
_chemical_formula_sum              "Cu4 H36 C80 O24"
_cell_length_a       16.6944
_cell_length_b       16.6944
_cell_length_c       28.657
_cell_angle_alpha    90
_cell_angle_beta     90
_cell_angle_gamma    122.902

_symmetry_space_group_name_H-M    "P 1"
_symmetry_Int_Tables_number       1

loop_
  _symmetry_equiv_pos_as_xyz
  'x, y, z'

loop_
  _atom_site_type_symbol
  _atom_site_label
  _atom_site_symmetry_multiplicity
  _atom_site_fract_x
  _atom_site_fract_y
  _atom_site_fract_z
  _atom_site_occupancy
  _atom_site_charge
Cu  Cu1       1.0  0.96233  0.40773  0.00000  1.0000 0.8755061914
Cu  Cu2       1.0  0.03767  0.59227  0.00000  1.0000 0.8755061914
Cu  Cu3       1.0  0.59227  0.03767  0.50000  1.0000 0.8755061914
Cu  Cu4       1.0  0.40773  0.96233  0.50000  1.0000 0.8755061914
H   H1        1.0  0.13730  0.39070  0.89460  1.0000 0.1396175059
H   H2        1.0  0.86270  0.60930  0.89460  1.0000 0.1396175059
H   H3        1.0  0.60930  0.86270  0.60540  1.0000 0.1396175059
H   H4        1.0  0.39070  0.13730  0.60540  1.0000 0.1396175059
H   H5        1.0  0.86270  0.60930  0.10540  1.0000 0.1396175059
H   H6        1.0  0.13730  0.39070  0.10540  1.0000 0.1396175059
H   H7        1.0  0.39070  0.13730  0.39460  1.0000 0.1396175059
H   H8        1.0  0.60930  0.86270  0.39460  1.0000 0.1396175059
H   H9        1.0  0.24550  0.67010  0.89220  1.0000 0.1396175059
H   H10       1.0  0.75450  0.32990  0.89220  1.0000 0.1396175059
H   H11       1.0  0.32990  0.75450  0.60780  1.0000 0.1396175059
H   H12       1.0  0.67010  0.24550  0.60780  1.0000 0.1396175059
H   H13       1.0  0.75450  0.32990  0.10780  1.0000 0.1396175059
H   H14       1.0  0.24550  0.67010  0.10780  1.0000 0.1396175059
H   H15       1.0  0.67010  0.24550  0.39220  1.0000 0.1396175059
H   H16       1.0  0.32990  0.75450  0.39220  1.0000 0.1396175059
H   H17       1.0  0.23710  0.40810  0.83370  1.0000 0.1396175059
H   H18       1.0  0.76290  0.59190  0.83370  1.0000 0.1396175059
H   H19       1.0  0.59190  0.76290  0.66630  1.0000 0.1396175059
H   H20       1.0  0.40810  0.23710  0.66630  1.0000 0.1396175059
H   H21       1.0  0.76290  0.59190  0.16630  1.0000 0.1396175059
H   H22       1.0  0.23710  0.40810  0.16630  1.0000 0.1396175059
H   H23       1.0  0.40810  0.23710  0.33370  1.0000 0.1396175059
H   H24       1.0  0.59190  0.76290  0.33370  1.0000 0.1396175059
H   H25       1.0  0.34720  0.68940  0.83140  1.0000 0.1273418896
H   H26       1.0  0.65280  0.31060  0.83140  1.0000 0.1273418896
H   H27       1.0  0.31060  0.65280  0.66860  1.0000 0.1273418896
H   H28       1.0  0.68940  0.34720  0.66860  1.0000 0.1273418896
H   H29       1.0  0.65280  0.31060  0.16860  1.0000 0.1273418896
H   H30       1.0  0.34720  0.68940  0.16860  1.0000 0.1273418896
H   H31       1.0  0.68940  0.34720  0.33140  1.0000 0.1273418896
H   H32       1.0  0.31060  0.65280  0.33140  1.0000 0.1273418896
H   H33       1.0  0.34840  0.65160  0.75000  1.0000 0.1136187751
H   H34       1.0  0.65160  0.34840  0.75000  1.0000 0.1136187751
H   H35       1.0  0.65160  0.34840  0.25000  1.0000 0.1136187751
H   H36       1.0  0.34840  0.65160  0.25000  1.0000 0.1136187751
C   C1        1.0  0.11343  0.51637  0.93789  1.0000 0.586895122
C   C2        1.0  0.88657  0.48363  0.93789  1.0000 0.586895122
C   C3        1.0  0.48363  0.88657  0.56211  1.0000 0.586895122
C   C4        1.0  0.51637  0.11343  0.56211  1.0000 0.586895122
C   C5        1.0  0.88657  0.48363  0.06211  1.0000 0.586895122
C   C6        1.0  0.11343  0.51637  0.06211  1.0000 0.586895122
C   C7        1.0  0.51637  0.11343  0.43789  1.0000 0.586895122
C   C8        1.0  0.48363  0.88657  0.43789  1.0000 0.586895122
C   C9        1.0  0.41606  0.51594  0.78568  1.0000 0.2106168409
C   C10       1.0  0.58394  0.48406  0.78568  1.0000 0.2106168409
C   C11       1.0  0.48406  0.58394  0.71432  1.0000 0.2106168409
C   C12       1.0  0.51594  0.41606  0.71432  1.0000 0.2106168409
C   C13       1.0  0.58394  0.48406  0.21432  1.0000 0.2106168409
C   C14       1.0  0.41606  0.51594  0.21432  1.0000 0.2106168409
C   C15       1.0  0.51594  0.41606  0.28568  1.0000 0.2106168409
C   C16       1.0  0.48406  0.58394  0.28568  1.0000 0.2106168409
C   C17       1.0  0.36596  0.56124  0.78693  1.0000 -0.0070317175
C   C18       1.0  0.63404  0.43876  0.78693  1.0000 -0.0070317175
C   C19       1.0  0.43876  0.63404  0.71307  1.0000 -0.0070317175
C   C20       1.0  0.56124  0.36596  0.71307  1.0000 -0.0070317175
C   C21       1.0  0.63404  0.43876  0.21307  1.0000 -0.0070317175
C   C22       1.0  0.36596  0.56124  0.21307  1.0000 -0.0070317175
C   C23       1.0  0.56124  0.36596  0.28693  1.0000 -0.0070317175
C   C24       1.0  0.43876  0.63404  0.28693  1.0000 -0.0070317175
C   C25       1.0  0.17846  0.45074  0.88171  1.0000 -0.0671015666
C   C26       1.0  0.82154  0.54926  0.88171  1.0000 -0.0642695587
C   C27       1.0  0.54926  0.82154  0.61829  1.0000 -0.0671015666
C   C28       1.0  0.45074  0.17846  0.61829  1.0000 -0.0671015666
C   C29       1.0  0.82154  0.54926  0.11829  1.0000 -0.0671015666
C   C30       1.0  0.17846  0.45074  0.11829  1.0000 -0.0671015666
C   C31       1.0  0.45074  0.17846  0.38171  1.0000 -0.0671015666
C   C32       1.0  0.54926  0.82154  0.38171  1.0000 -0.0671015666
C   C33       1.0  0.17859  0.52881  0.89880  1.0000 -0.0277880218
C   C34       1.0  0.82141  0.47119  0.89880  1.0000 -0.0277880218
C   C35       1.0  0.47119  0.82141  0.60120  1.0000 -0.0277880218
C   C36       1.0  0.52881  0.17859  0.60120  1.0000 -0.0277880218
C   C37       1.0  0.82141  0.47119  0.10120  1.0000 -0.0277880218
C   C38       1.0  0.17859  0.52881  0.10120  1.0000 -0.0277880218
C   C39       1.0  0.52881  0.17859  0.39880  1.0000 -0.0277880218
C   C40       1.0  0.47119  0.82141  0.39880  1.0000 -0.0277880218
C   C41       1.0  0.24293  0.61687  0.88033  1.0000 -0.0671015666
C   C42       1.0  0.75707  0.38313  0.88033  1.0000 -0.0671015666
C   C43       1.0  0.38313  0.75707  0.61967  1.0000 -0.0671015666
C   C44       1.0  0.61687  0.24293  0.61967  1.0000 -0.0671015666
C   C45       1.0  0.75707  0.38313  0.11967  1.0000 -0.0671015666
C   C46       1.0  0.24293  0.61687  0.11967  1.0000 -0.0671015666
C   C47       1.0  0.61687  0.24293  0.38033  1.0000 -0.0671015666
C   C48       1.0  0.38313  0.75707  0.38033  1.0000 -0.0671015666
C   C49       1.0  0.47427  0.52573  0.75000  1.0000 -0.0498165015
C   C50       1.0  0.52573  0.47427  0.75000  1.0000 -0.0498165015
C   C51       1.0  0.52573  0.47427  0.25000  1.0000 -0.0498165015
C   C52       1.0  0.47427  0.52573  0.25000  1.0000 -0.0498165015
C   C53       1.0  0.23979  0.46161  0.84534  1.0000 -0.1114828821
C   C54       1.0  0.76021  0.53839  0.84534  1.0000 -0.1114828821
C   C55       1.0  0.53839  0.76021  0.65466  1.0000 -0.1114828821
C   C56       1.0  0.46161  0.23979  0.65466  1.0000 -0.1114828821
C   C57       1.0  0.76021  0.53839  0.15466  1.0000 -0.1114828821
C   C58       1.0  0.23979  0.46161  0.15466  1.0000 -0.1114828821
C   C59       1.0  0.46161  0.23979  0.34534  1.0000 -0.1114828821
C   C60       1.0  0.53839  0.76021  0.34534  1.0000 -0.1114828821
C   C61       1.0  0.30419  0.55021  0.82637  1.0000 0.1043847156
C   C62       1.0  0.69581  0.44979  0.82637  1.0000 0.1043847156
C   C63       1.0  0.44979  0.69581  0.67363  1.0000 0.1043847156
C   C64       1.0  0.55021  0.30419  0.67363  1.0000 0.1043847156
C   C65       1.0  0.69581  0.44979  0.17363  1.0000 0.1043847156
C   C66       1.0  0.30419  0.55021  0.17363  1.0000 0.1043847156
C   C67       1.0  0.55021  0.30419  0.32637  1.0000 0.1043847156
C   C68       1.0  0.44979  0.69581  0.32637  1.0000 0.1043847156
C   C69       1.0  0.30543  0.62917  0.84380  1.0000 -0.1350171577
C   C70       1.0  0.69457  0.37083  0.84380  1.0000 -0.1341908436
C   C71       1.0  0.37083  0.69457  0.65620  1.0000 -0.1350171577
C   C72       1.0  0.62917  0.30543  0.65620  1.0000 -0.1341908436
C   C73       1.0  0.69457  0.37083  0.15620  1.0000 -0.1341908436
C   C74       1.0  0.30543  0.62917  0.15620  1.0000 -0.1350171577
C   C75       1.0  0.62917  0.30543  0.34380  1.0000 -0.1341908436
C   C76       1.0  0.37083  0.69457  0.34380  1.0000 -0.1350171577
C   C77       1.0  0.38008  0.61992  0.75000  1.0000 -0.1734003137
C   C78       1.0  0.61992  0.38008  0.75000  1.0000 -0.1734003137
C   C79       1.0  0.61992  0.38008  0.25000  1.0000 -0.1734003137
C   C80       1.0  0.38008  0.61992  0.25000  1.0000 -0.1734003137
O   O1        1.0  0.05589  0.43551  0.95199  1.0000 -0.4707243267
O   O2        1.0  0.94411  0.56449  0.95199  1.0000 -0.4707243267
O   O3        1.0  0.56449  0.94411  0.54801  1.0000 -0.4707243267
O   O4        1.0  0.43551  0.05589  0.54801  1.0000 -0.4707243267
O   O5        1.0  0.94411  0.56449  0.04801  1.0000 -0.4707243267
O   O6        1.0  0.05589  0.43551  0.04801  1.0000 -0.4707243267
O   O7        1.0  0.43551  0.05589  0.45199  1.0000 -0.4707243267
O   O8        1.0  0.56449  0.94411  0.45199  1.0000 -0.4707243267
O   O9        1.0  0.12155  0.59445  0.95196  1.0000 -0.5271303292
O   O10       1.0  0.87845  0.40555  0.95196  1.0000 -0.5271303292
O   O11       1.0  0.40555  0.87845  0.54804  1.0000 -0.5271303292
O   O12       1.0  0.59445  0.12155  0.54804  1.0000 -0.5271303292
O   O13       1.0  0.87845  0.40555  0.04804  1.0000 -0.5271303292
O   O14       1.0  0.12155  0.59445  0.04804  1.0000 -0.5271303292
O   O15       1.0  0.59445  0.12155  0.45196  1.0000 -0.5271303292
O   O16       1.0  0.40555  0.87845  0.45196  1.0000 -0.5271303292
O   O17       1.0  0.39943  0.45577  0.82291  1.0000 -0.4184347513
O   O18       1.0  0.60057  0.54423  0.82291  1.0000 -0.4184347513
O   O19       1.0  0.54423  0.60057  0.67709  1.0000 -0.4184347513
O   O20       1.0  0.45577  0.39943  0.67709  1.0000 -0.4184347513
O   O21       1.0  0.60057  0.54423  0.17709  1.0000 -0.4184347513
O   O22       1.0  0.39943  0.45577  0.17709  1.0000 -0.4184347513
O   O23       1.0  0.45577  0.39943  0.32291  1.0000 -0.4184347513
O   O24       1.0  0.54423  0.60057  0.32291  1.0000 -0.4184347513
