# DDEC6 charges by PACMAN v1.1 (https://github.com/mtap-research/PACMAN-charge/)
data_2009[Cu][tbo]3[ASR]9
_chemical_formula_sum              "Cu12 H24 C72 O48"
_cell_length_a       18.6242
_cell_length_b       18.6242
_cell_length_c       18.6242
_cell_angle_alpha    60
_cell_angle_beta     60
_cell_angle_gamma    60

_symmetry_space_group_name_H-M    "P 1"
_symmetry_Int_Tables_number       1

loop_
  _symmetry_equiv_pos_as_xyz
  'x, y, z'

loop_
  _atom_site_type_symbol
  _atom_site_label
  _atom_site_symmetry_multiplicity
  _atom_site_fract_x
  _atom_site_fract_y
  _atom_site_fract_z
  _atom_site_occupancy
  _atom_site_charge
Cu  Cu1       1.0  0.00000  0.00000  0.56904  1.0000 0.866750567
Cu  Cu2       1.0  0.56904  0.00000  0.00000  1.0000 0.866750567
Cu  Cu3       1.0  0.00000  0.56904  0.00000  1.0000 0.866750567
Cu  Cu4       1.0  0.00000  0.43096  0.56904  1.0000 0.866750567
Cu  Cu5       1.0  0.56904  0.00000  0.43096  1.0000 0.866750567
Cu  Cu6       1.0  0.43096  0.00000  0.56904  1.0000 0.866750567
Cu  Cu7       1.0  0.56904  0.43096  0.00000  1.0000 0.866750567
Cu  Cu8       1.0  0.00000  0.56904  0.43096  1.0000 0.866750567
Cu  Cu9       1.0  0.43096  0.56904  0.00000  1.0000 0.866750567
Cu  Cu10      1.0  0.00000  0.00000  0.43096  1.0000 0.866750567
Cu  Cu11      1.0  0.43096  0.00000  0.00000  1.0000 0.866750567
Cu  Cu12      1.0  0.00000  0.43096  0.00000  1.0000 0.866750567
H   H1        1.0  0.73540  0.02666  0.73540  1.0000 0.1193794795
H   H2        1.0  0.73540  0.73540  0.02666  1.0000 0.1193794795
H   H3        1.0  0.02666  0.73540  0.73540  1.0000 0.1193794795
H   H4        1.0  0.02666  0.50254  0.73540  1.0000 0.1193794795
H   H5        1.0  0.73540  0.02666  0.50254  1.0000 0.1193794795
H   H6        1.0  0.50254  0.73540  0.73540  1.0000 0.1193794795
H   H7        1.0  0.73540  0.50254  0.73540  1.0000 0.1193794795
H   H8        1.0  0.73540  0.73540  0.50254  1.0000 0.1193794795
H   H9        1.0  0.50254  0.73540  0.02666  1.0000 0.1193794795
H   H10       1.0  0.26460  0.97334  0.49746  1.0000 0.1193794795
H   H11       1.0  0.49746  0.26460  0.97334  1.0000 0.1193794795
H   H12       1.0  0.97334  0.49746  0.26460  1.0000 0.1193794795
H   H13       1.0  0.02666  0.73540  0.50254  1.0000 0.1193794795
H   H14       1.0  0.50254  0.02666  0.73540  1.0000 0.1193794795
H   H15       1.0  0.73540  0.50254  0.02666  1.0000 0.1193794795
H   H16       1.0  0.97334  0.26460  0.26460  1.0000 0.1193794795
H   H17       1.0  0.26460  0.97334  0.26460  1.0000 0.1193794795
H   H18       1.0  0.26460  0.26460  0.97334  1.0000 0.1193794795
H   H19       1.0  0.26460  0.49746  0.26460  1.0000 0.1193794795
H   H20       1.0  0.26460  0.26460  0.49746  1.0000 0.1193794795
H   H21       1.0  0.49746  0.97334  0.26460  1.0000 0.1193794795
H   H22       1.0  0.26460  0.49746  0.97334  1.0000 0.1193794795
H   H23       1.0  0.97334  0.26460  0.49746  1.0000 0.1193794795
H   H24       1.0  0.49746  0.26460  0.26460  1.0000 0.1193794795
C   C1        1.0  0.74330  0.02962  0.61354  1.0000 -0.050059393
C   C2        1.0  0.61354  0.74330  0.02962  1.0000 -0.050059393
C   C3        1.0  0.02962  0.61354  0.74330  1.0000 -0.050059393
C   C4        1.0  0.02962  0.61354  0.61354  1.0000 -0.050059393
C   C5        1.0  0.61354  0.02962  0.61354  1.0000 -0.050059393
C   C6        1.0  0.61354  0.74330  0.61354  1.0000 -0.050059393
C   C7        1.0  0.61354  0.61354  0.74330  1.0000 -0.050059393
C   C8        1.0  0.74330  0.61354  0.61354  1.0000 -0.050059393
C   C9        1.0  0.61354  0.61354  0.02962  1.0000 -0.050059393
C   C10       1.0  0.25670  0.97038  0.38646  1.0000 -0.050059393
C   C11       1.0  0.38646  0.25670  0.97038  1.0000 -0.050059393
C   C12       1.0  0.97038  0.38646  0.25670  1.0000 -0.050059393
C   C13       1.0  0.02962  0.74330  0.61354  1.0000 -0.050059393
C   C14       1.0  0.61354  0.02962  0.74330  1.0000 -0.050059393
C   C15       1.0  0.74330  0.61354  0.02962  1.0000 -0.050059393
C   C16       1.0  0.97038  0.25670  0.38646  1.0000 -0.050059393
C   C17       1.0  0.38646  0.97038  0.25670  1.0000 -0.050059393
C   C18       1.0  0.25670  0.38646  0.97038  1.0000 -0.050059393
C   C19       1.0  0.25670  0.38646  0.38646  1.0000 -0.050059393
C   C20       1.0  0.38646  0.25670  0.38646  1.0000 -0.050059393
C   C21       1.0  0.38646  0.97038  0.38646  1.0000 -0.050059393
C   C22       1.0  0.38646  0.38646  0.97038  1.0000 -0.050059393
C   C23       1.0  0.97038  0.38646  0.38646  1.0000 -0.050059393
C   C24       1.0  0.38646  0.38646  0.25670  1.0000 -0.050059393
C   C25       1.0  0.83618  0.02534  0.56924  1.0000 0.5871261745
C   C26       1.0  0.56924  0.83618  0.02534  1.0000 0.5871261745
C   C27       1.0  0.02534  0.56924  0.83618  1.0000 0.5871261745
C   C28       1.0  0.02534  0.56924  0.56924  1.0000 0.5871261745
C   C29       1.0  0.56924  0.02534  0.56924  1.0000 0.5871261745
C   C30       1.0  0.56924  0.83618  0.56924  1.0000 0.5871261745
C   C31       1.0  0.56924  0.56924  0.83618  1.0000 0.5871261745
C   C32       1.0  0.83618  0.56924  0.56924  1.0000 0.5871261745
C   C33       1.0  0.56924  0.56924  0.02534  1.0000 0.5871261745
C   C34       1.0  0.16382  0.97466  0.43076  1.0000 0.5871261745
C   C35       1.0  0.43076  0.16382  0.97466  1.0000 0.5871261745
C   C36       1.0  0.97466  0.43076  0.16382  1.0000 0.5871261745
C   C37       1.0  0.02534  0.83618  0.56924  1.0000 0.5871261745
C   C38       1.0  0.56924  0.02534  0.83618  1.0000 0.5871261745
C   C39       1.0  0.83618  0.56924  0.02534  1.0000 0.5871261745
C   C40       1.0  0.97466  0.16382  0.43076  1.0000 0.5871261745
C   C41       1.0  0.43076  0.97466  0.16382  1.0000 0.5871261745
C   C42       1.0  0.16382  0.43076  0.97466  1.0000 0.5871261745
C   C43       1.0  0.16382  0.43076  0.43076  1.0000 0.5871261745
C   C44       1.0  0.43076  0.16382  0.43076  1.0000 0.5871261745
C   C45       1.0  0.43076  0.97466  0.43076  1.0000 0.5871261745
C   C46       1.0  0.43076  0.43076  0.97466  1.0000 0.5871261745
C   C47       1.0  0.97466  0.43076  0.43076  1.0000 0.5871261745
C   C48       1.0  0.43076  0.43076  0.16382  1.0000 0.5871261745
C   C49       1.0  0.69893  0.03069  0.69893  1.0000 -0.050059393
C   C50       1.0  0.69893  0.69893  0.03069  1.0000 -0.050059393
C   C51       1.0  0.03069  0.69893  0.69893  1.0000 -0.050059393
C   C52       1.0  0.03069  0.57145  0.69893  1.0000 -0.050059393
C   C53       1.0  0.69893  0.03069  0.57145  1.0000 -0.050059393
C   C54       1.0  0.57145  0.69893  0.69893  1.0000 -0.0551631003
C   C55       1.0  0.69893  0.57145  0.69893  1.0000 -0.0551631003
C   C56       1.0  0.69893  0.69893  0.57145  1.0000 -0.0551631003
C   C57       1.0  0.57145  0.69893  0.03069  1.0000 -0.0551631003
C   C58       1.0  0.30107  0.96931  0.42855  1.0000 -0.0551631003
C   C59       1.0  0.42855  0.30107  0.96931  1.0000 -0.050059393
C   C60       1.0  0.96931  0.42855  0.30107  1.0000 -0.0551631003
C   C61       1.0  0.03069  0.69893  0.57145  1.0000 -0.050059393
C   C62       1.0  0.57145  0.03069  0.69893  1.0000 -0.050059393
C   C63       1.0  0.69893  0.57145  0.03069  1.0000 -0.0551631003
C   C64       1.0  0.96931  0.30107  0.30107  1.0000 -0.050059393
C   C65       1.0  0.30107  0.96931  0.30107  1.0000 -0.0551631003
C   C66       1.0  0.30107  0.30107  0.96931  1.0000 -0.050059393
C   C67       1.0  0.30107  0.42855  0.30107  1.0000 -0.050059393
C   C68       1.0  0.30107  0.30107  0.42855  1.0000 -0.050059393
C   C69       1.0  0.42855  0.96931  0.30107  1.0000 -0.0551631003
C   C70       1.0  0.30107  0.42855  0.96931  1.0000 -0.050059393
C   C71       1.0  0.96931  0.30107  0.42855  1.0000 -0.050059393
C   C72       1.0  0.42855  0.30107  0.30107  1.0000 -0.050059393
O   O1        1.0  0.87490  0.02056  0.61320  1.0000 -0.5189241306
O   O2        1.0  0.61320  0.87490  0.02056  1.0000 -0.5189241306
O   O3        1.0  0.02056  0.61320  0.87490  1.0000 -0.5189241306
O   O4        1.0  0.02056  0.49134  0.61320  1.0000 -0.5189241306
O   O5        1.0  0.61320  0.02056  0.49134  1.0000 -0.5189241306
O   O6        1.0  0.49134  0.87490  0.61320  1.0000 -0.5189241306
O   O7        1.0  0.61320  0.49134  0.87490  1.0000 -0.5189241306
O   O8        1.0  0.87490  0.61320  0.49134  1.0000 -0.5189241306
O   O9        1.0  0.49134  0.61320  0.02056  1.0000 -0.5189241306
O   O10       1.0  0.12510  0.97944  0.50866  1.0000 -0.5189241306
O   O11       1.0  0.50866  0.12510  0.97944  1.0000 -0.5189241306
O   O12       1.0  0.97944  0.50866  0.12510  1.0000 -0.5189241306
O   O13       1.0  0.02056  0.87490  0.49134  1.0000 -0.5189241306
O   O14       1.0  0.49134  0.02056  0.87490  1.0000 -0.5189241306
O   O15       1.0  0.87490  0.49134  0.02056  1.0000 -0.5189241306
O   O16       1.0  0.97944  0.12510  0.38680  1.0000 -0.5189241306
O   O17       1.0  0.38680  0.97944  0.12510  1.0000 -0.5189241306
O   O18       1.0  0.12510  0.38680  0.97944  1.0000 -0.5189241306
O   O19       1.0  0.12510  0.50866  0.38680  1.0000 -0.5189241306
O   O20       1.0  0.38680  0.12510  0.50866  1.0000 -0.5189241306
O   O21       1.0  0.50866  0.97944  0.38680  1.0000 -0.5189241306
O   O22       1.0  0.38680  0.50866  0.97944  1.0000 -0.5189241306
O   O23       1.0  0.97944  0.38680  0.50866  1.0000 -0.5189241306
O   O24       1.0  0.50866  0.38680  0.12510  1.0000 -0.5189241306
O   O25       1.0  0.12510  0.97944  0.38680  1.0000 -0.5189241306
O   O26       1.0  0.38680  0.12510  0.97944  1.0000 -0.5189241306
O   O27       1.0  0.97944  0.38680  0.12510  1.0000 -0.5189241306
O   O28       1.0  0.97944  0.50866  0.38680  1.0000 -0.5189241306
O   O29       1.0  0.38680  0.97944  0.50866  1.0000 -0.5189241306
O   O30       1.0  0.50866  0.12510  0.38680  1.0000 -0.5189241306
O   O31       1.0  0.38680  0.50866  0.12510  1.0000 -0.5189241306
O   O32       1.0  0.12510  0.38680  0.50866  1.0000 -0.5189241306
O   O33       1.0  0.50866  0.38680  0.97944  1.0000 -0.5189241306
O   O34       1.0  0.87490  0.02056  0.49134  1.0000 -0.5189241306
O   O35       1.0  0.49134  0.87490  0.02056  1.0000 -0.5189241306
O   O36       1.0  0.02056  0.49134  0.87490  1.0000 -0.5189241306
O   O37       1.0  0.97944  0.12510  0.50866  1.0000 -0.5189241306
O   O38       1.0  0.50866  0.97944  0.12510  1.0000 -0.5189241306
O   O39       1.0  0.12510  0.50866  0.97944  1.0000 -0.5189241306
O   O40       1.0  0.02056  0.87490  0.61320  1.0000 -0.5189241306
O   O41       1.0  0.61320  0.02056  0.87490  1.0000 -0.5189241306
O   O42       1.0  0.87490  0.61320  0.02056  1.0000 -0.5189241306
O   O43       1.0  0.87490  0.49134  0.61320  1.0000 -0.5189241306
O   O44       1.0  0.61320  0.87490  0.49134  1.0000 -0.5189241306
O   O45       1.0  0.49134  0.02056  0.61320  1.0000 -0.5189241306
O   O46       1.0  0.61320  0.49134  0.02056  1.0000 -0.5189241306
O   O47       1.0  0.02056  0.61320  0.49134  1.0000 -0.5189241306
O   O48       1.0  0.49134  0.61320  0.87490  1.0000 -0.5189241306
