# DDEC6 charges by PACMAN v1.1 (https://github.com/mtap-research/PACMAN-charge/)
data_2010[Cu][nan]3[ASR]16
_chemical_formula_sum              "Cu8 H12 C32 S4 O32"
_cell_length_a       7.306
_cell_length_b       18.111
_cell_length_c       12.1026
_cell_angle_alpha    90
_cell_angle_beta     122.766
_cell_angle_gamma    90

_symmetry_space_group_name_H-M    "P 1"
_symmetry_Int_Tables_number       1

loop_
  _symmetry_equiv_pos_as_xyz
  'x, y, z'

loop_
  _atom_site_type_symbol
  _atom_site_label
  _atom_site_symmetry_multiplicity
  _atom_site_fract_x
  _atom_site_fract_y
  _atom_site_fract_z
  _atom_site_occupancy
  _atom_site_charge
Cu  Cu1       1.0  0.35131  0.09472  0.21589  1.0000 1.0384270564
Cu  Cu2       1.0  0.64869  0.59472  0.28411  1.0000 1.0384270564
Cu  Cu3       1.0  0.64869  0.90528  0.78411  1.0000 1.0384270564
Cu  Cu4       1.0  0.35131  0.40528  0.71589  1.0000 1.0384270564
Cu  Cu5       1.0  0.89030  0.06841  0.92978  1.0000 1.145559064
Cu  Cu6       1.0  0.10970  0.56841  0.57022  1.0000 1.145559064
Cu  Cu7       1.0  0.10970  0.93159  0.07022  1.0000 1.1446351126
Cu  Cu8       1.0  0.89030  0.43159  0.42978  1.0000 1.145559064
H   H1        1.0  0.38530  0.30810  0.16470  1.0000 0.1494479058
H   H2        1.0  0.61470  0.80810  0.33530  1.0000 0.1494479058
H   H3        1.0  0.61470  0.69190  0.83530  1.0000 0.1494479058
H   H4        1.0  0.38530  0.19190  0.66470  1.0000 0.1494479058
H   H5        1.0  0.86150  0.29300  0.79730  1.0000 0.1494479058
H   H6        1.0  0.13850  0.79300  0.70270  1.0000 0.1494479058
H   H7        1.0  0.13850  0.70700  0.20270  1.0000 0.1494479058
H   H8        1.0  0.86150  0.20700  0.29730  1.0000 0.1494479058
H   H9        1.0  0.16430  0.48930  0.93680  1.0000 0.1494479058
H   H10       1.0  0.83570  0.98930  0.56320  1.0000 0.1494479058
H   H11       1.0  0.83570  0.51070  0.06320  1.0000 0.1494479058
H   H12       1.0  0.16430  0.01070  0.43680  1.0000 0.1494479058
C   C1        1.0  0.98970  0.39600  0.84830  1.0000 -0.0625881221
C   C2        1.0  0.01030  0.89600  0.65170  1.0000 -0.0625881221
C   C3        1.0  0.01030  0.60400  0.15170  1.0000 -0.0625881221
C   C4        1.0  0.98970  0.10400  0.34830  1.0000 -0.0625881221
C   C5        1.0  0.30310  0.40490  0.06910  1.0000 -0.0096075954
C   C6        1.0  0.69690  0.90490  0.43090  1.0000 -0.0096075954
C   C7        1.0  0.69690  0.59510  0.93090  1.0000 -0.0096075954
C   C8        1.0  0.30310  0.09510  0.56910  1.0000 -0.0096075954
C   C9        1.0  0.28510  0.33040  0.08500  1.0000 -0.0819646341
C   C10       1.0  0.71490  0.83040  0.41500  1.0000 -0.0819646341
C   C11       1.0  0.71490  0.66960  0.91500  1.0000 -0.0819646341
C   C12       1.0  0.28510  0.16960  0.58500  1.0000 -0.0819646341
C   C13       1.0  0.12080  0.28800  0.98470  1.0000 -0.0096075954
C   C14       1.0  0.87920  0.78800  0.51530  1.0000 -0.0096075954
C   C15       1.0  0.87920  0.71200  0.01530  1.0000 -0.0096075954
C   C16       1.0  0.12080  0.21200  0.48470  1.0000 -0.0096075954
C   C17       1.0  0.11000  0.20760  0.00920  1.0000 0.6247538641
C   C18       1.0  0.89000  0.70760  0.49080  1.0000 0.6247538641
C   C19       1.0  0.89000  0.79240  0.99080  1.0000 0.6247538641
C   C20       1.0  0.11000  0.29240  0.50920  1.0000 0.6247538641
C   C21       1.0  0.97200  0.32080  0.86530  1.0000 -0.0819646341
C   C22       1.0  0.02800  0.82080  0.63470  1.0000 -0.0819646341
C   C23       1.0  0.02800  0.67920  0.13470  1.0000 -0.0819646341
C   C24       1.0  0.97200  0.17920  0.36530  1.0000 -0.0819646341
C   C25       1.0  0.15410  0.43920  0.94910  1.0000 -0.0819646341
C   C26       1.0  0.84590  0.93920  0.55090  1.0000 -0.0819646341
C   C27       1.0  0.84590  0.56080  0.05090  1.0000 -0.0819646341
C   C28       1.0  0.15410  0.06080  0.44910  1.0000 -0.0819646341
C   C29       1.0  0.48580  0.44700  0.18000  1.0000 0.6127459571
C   C30       1.0  0.51420  0.94700  0.32000  1.0000 0.6127459571
C   C31       1.0  0.51420  0.55300  0.82000  1.0000 0.6127459571
C   C32       1.0  0.48580  0.05300  0.68000  1.0000 0.6127459571
S   S1        1.0  0.81432  0.43491  0.69042  1.0000 1.1832234278
S   S2        1.0  0.18568  0.93491  0.80958  1.0000 1.1832234278
S   S3        1.0  0.18568  0.56509  0.30958  1.0000 1.1832234278
S   S4        1.0  0.81432  0.06509  0.19042  1.0000 1.1832234278
O   O1        1.0  0.97030  0.16783  0.91440  1.0000 -0.5168387577
O   O2        1.0  0.02970  0.66783  0.58560  1.0000 -0.5168387577
O   O3        1.0  0.02970  0.83217  0.08560  1.0000 -0.5168387577
O   O4        1.0  0.97030  0.33217  0.41440  1.0000 -0.5168387577
O   O5        1.0  0.18860  0.03442  0.05830  1.0000 -0.9040342406
O   O6        1.0  0.81140  0.53442  0.44170  1.0000 -0.9040342406
O   O7        1.0  0.81140  0.96558  0.94170  1.0000 -0.9040342406
O   O8        1.0  0.18860  0.46558  0.55830  1.0000 -0.9040342406
O   O9        1.0  0.50570  0.51380  0.16170  1.0000 -0.5491705373
O   O10       1.0  0.49430  0.01380  0.33830  1.0000 -0.5491705373
O   O11       1.0  0.49430  0.48620  0.83830  1.0000 -0.5491705373
O   O12       1.0  0.50570  0.98620  0.66170  1.0000 -0.5491705373
O   O13       1.0  0.24680  0.18650  0.12430  1.0000 -0.5291539341
O   O14       1.0  0.75320  0.68650  0.37570  1.0000 -0.5291539341
O   O15       1.0  0.75320  0.81350  0.87570  1.0000 -0.5291539341
O   O16       1.0  0.24680  0.31350  0.62430  1.0000 -0.5291539341
O   O17       1.0  0.84110  0.51310  0.70060  1.0000 -0.5291539341
O   O18       1.0  0.15890  0.01310  0.79940  1.0000 -0.5291539341
O   O19       1.0  0.15890  0.48690  0.29940  1.0000 -0.5291539341
O   O20       1.0  0.84110  0.98690  0.20060  1.0000 -0.5291539341
O   O21       1.0  0.60460  0.41080  0.28240  1.0000 -0.4961045518
O   O22       1.0  0.39540  0.91080  0.21760  1.0000 -0.4961045518
O   O23       1.0  0.39540  0.58920  0.71760  1.0000 -0.4961045518
O   O24       1.0  0.60460  0.08920  0.78240  1.0000 -0.4961045518
O   O25       1.0  0.88490  0.40120  0.61110  1.0000 -0.6388464853
O   O26       1.0  0.11510  0.90120  0.88890  1.0000 -0.6388464853
O   O27       1.0  0.11510  0.59880  0.38890  1.0000 -0.6388464853
O   O28       1.0  0.88490  0.09880  0.11110  1.0000 -0.6388464853
O   O29       1.0  0.59870  0.40850  0.64710  1.0000 -0.5618224427
O   O30       1.0  0.40130  0.90850  0.85290  1.0000 -0.5618224427
O   O31       1.0  0.40130  0.59150  0.35290  1.0000 -0.5618224427
O   O32       1.0  0.59870  0.09150  0.14710  1.0000 -0.5618224427
