# DDEC6 charges by PACMAN v1.1 (https://github.com/mtap-research/PACMAN-charge/)
data_2010[AgSm][nan]3[ASR]1
_chemical_formula_sum              "Sm8 Ag8 H64 C144 N32 O64"
_cell_length_a       8.5955
_cell_length_b       17.822
_cell_length_c       25.363
_cell_angle_alpha    90
_cell_angle_beta     90
_cell_angle_gamma    90

_symmetry_space_group_name_H-M    "P 1"
_symmetry_Int_Tables_number       1

loop_
  _symmetry_equiv_pos_as_xyz
  'x, y, z'

loop_
  _atom_site_type_symbol
  _atom_site_label
  _atom_site_symmetry_multiplicity
  _atom_site_fract_x
  _atom_site_fract_y
  _atom_site_fract_z
  _atom_site_occupancy
  _atom_site_charge
Sm  Sm1       1.0  0.16304  0.71637  0.47613  1.0000 2.106721252
Sm  Sm2       1.0  0.66304  0.78363  0.52387  1.0000 2.106721252
Sm  Sm3       1.0  0.66304  0.28363  0.97613  1.0000 2.106721252
Sm  Sm4       1.0  0.16304  0.21637  0.02387  1.0000 2.106721252
Sm  Sm5       1.0  0.33696  0.71637  0.02387  1.0000 2.106721252
Sm  Sm6       1.0  0.83696  0.78363  0.97613  1.0000 2.106721252
Sm  Sm7       1.0  0.83696  0.28363  0.52387  1.0000 2.106721252
Sm  Sm8       1.0  0.33696  0.21637  0.47613  1.0000 2.106721252
Ag  Ag1       1.0  0.46100  0.54946  0.77343  1.0000 0.2898905648
Ag  Ag2       1.0  0.96100  0.95054  0.22657  1.0000 0.2898905648
Ag  Ag3       1.0  0.96100  0.45054  0.27343  1.0000 0.2898905648
Ag  Ag4       1.0  0.46100  0.04946  0.72657  1.0000 0.2898905648
Ag  Ag5       1.0  0.03900  0.54946  0.72657  1.0000 0.2898905648
Ag  Ag6       1.0  0.53900  0.95054  0.27343  1.0000 0.2898905648
Ag  Ag7       1.0  0.53900  0.45054  0.22657  1.0000 0.2898905648
Ag  Ag8       1.0  0.03900  0.04946  0.77343  1.0000 0.2898905648
H   H1        1.0  0.96690  0.00910  0.54580  1.0000 0.1392591445
H   H2        1.0  0.46690  0.49090  0.45420  1.0000 0.1392591445
H   H3        1.0  0.46690  0.99090  0.04580  1.0000 0.1392591445
H   H4        1.0  0.96690  0.50910  0.95420  1.0000 0.1392591445
H   H5        1.0  0.24700  0.17400  0.66250  1.0000 0.1282710058
H   H6        1.0  0.74700  0.32600  0.33750  1.0000 0.1282710058
H   H7        1.0  0.74700  0.82600  0.16250  1.0000 0.1282710058
H   H8        1.0  0.24700  0.67400  0.83750  1.0000 0.1282710058
H   H9        1.0  0.39840  0.91930  0.63960  1.0000 0.1392591445
H   H10       1.0  0.89840  0.58070  0.36040  1.0000 0.1392591445
H   H11       1.0  0.89840  0.08070  0.13960  1.0000 0.1392591445
H   H12       1.0  0.39840  0.41930  0.86040  1.0000 0.1392591445
H   H13       1.0  0.88090  0.50340  0.56940  1.0000 0.1627830712
H   H14       1.0  0.38090  0.99660  0.43060  1.0000 0.1627830712
H   H15       1.0  0.38090  0.49660  0.06940  1.0000 0.1627830712
H   H16       1.0  0.88090  0.00340  0.93060  1.0000 0.1627830712
H   H17       1.0  0.55550  0.40040  0.70700  1.0000 0.1282710058
H   H18       1.0  0.05550  0.09960  0.29300  1.0000 0.1282710058
H   H19       1.0  0.05550  0.59960  0.20700  1.0000 0.1282710058
H   H20       1.0  0.55550  0.90040  0.79300  1.0000 0.1282710058
H   H21       1.0  0.68350  0.66060  0.70280  1.0000 0.1392591445
H   H22       1.0  0.18350  0.83940  0.29720  1.0000 0.1392591445
H   H23       1.0  0.18350  0.33940  0.20280  1.0000 0.1392591445
H   H24       1.0  0.68350  0.16060  0.79720  1.0000 0.1392591445
H   H25       1.0  0.07100  0.15090  0.59670  1.0000 0.3141157365
H   H26       1.0  0.57100  0.34910  0.40330  1.0000 0.3141157365
H   H27       1.0  0.57100  0.84910  0.09670  1.0000 0.3141157365
H   H28       1.0  0.07100  0.65090  0.90330  1.0000 0.3141157365
H   H29       1.0  0.71900  0.39160  0.63250  1.0000 0.3193411229
H   H30       1.0  0.21900  0.10840  0.36750  1.0000 0.3193411229
H   H31       1.0  0.21900  0.60840  0.13250  1.0000 0.3193411229
H   H32       1.0  0.71900  0.89160  0.86750  1.0000 0.3193411229
H   H33       1.0  0.53310  0.00910  0.95420  1.0000 0.1392591445
H   H34       1.0  0.03310  0.49090  0.04580  1.0000 0.1392591445
H   H35       1.0  0.03310  0.99090  0.45420  1.0000 0.1392591445
H   H36       1.0  0.53310  0.50910  0.54580  1.0000 0.1392591445
H   H37       1.0  0.25300  0.17400  0.83750  1.0000 0.1282710058
H   H38       1.0  0.75300  0.32600  0.16250  1.0000 0.1282710058
H   H39       1.0  0.75300  0.82600  0.33750  1.0000 0.1282710058
H   H40       1.0  0.25300  0.67400  0.66250  1.0000 0.1282710058
H   H41       1.0  0.10160  0.91930  0.86040  1.0000 0.1392591445
H   H42       1.0  0.60160  0.58070  0.13960  1.0000 0.1392591445
H   H43       1.0  0.60160  0.08070  0.36040  1.0000 0.1392591445
H   H44       1.0  0.10160  0.41930  0.63960  1.0000 0.1392591445
H   H45       1.0  0.61910  0.50340  0.93060  1.0000 0.1627830712
H   H46       1.0  0.11910  0.99660  0.06940  1.0000 0.1627830712
H   H47       1.0  0.11910  0.49660  0.43060  1.0000 0.1627830712
H   H48       1.0  0.61910  0.00340  0.56940  1.0000 0.1627830712
H   H49       1.0  0.94450  0.40040  0.79300  1.0000 0.1282710058
H   H50       1.0  0.44450  0.09960  0.20700  1.0000 0.1282710058
H   H51       1.0  0.44450  0.59960  0.29300  1.0000 0.1282710058
H   H52       1.0  0.94450  0.90040  0.70700  1.0000 0.1282710058
H   H53       1.0  0.81650  0.66060  0.79720  1.0000 0.1392591445
H   H54       1.0  0.31650  0.83940  0.20280  1.0000 0.1392591445
H   H55       1.0  0.31650  0.33940  0.29720  1.0000 0.1392591445
H   H56       1.0  0.81650  0.16060  0.70280  1.0000 0.1392591445
H   H57       1.0  0.42900  0.15090  0.90330  1.0000 0.3141157365
H   H58       1.0  0.92900  0.34910  0.09670  1.0000 0.3141157365
H   H59       1.0  0.92900  0.84910  0.40330  1.0000 0.3141157365
H   H60       1.0  0.42900  0.65090  0.59670  1.0000 0.3141157365
H   H61       1.0  0.78100  0.39160  0.86750  1.0000 0.3193411229
H   H62       1.0  0.28100  0.10840  0.13250  1.0000 0.3193411229
H   H63       1.0  0.28100  0.60840  0.36750  1.0000 0.3193411229
H   H64       1.0  0.78100  0.89160  0.63250  1.0000 0.3193411229
C   C1        1.0  0.00970  0.87250  0.51842  1.0000 0.6441280728
C   C2        1.0  0.50970  0.62750  0.48158  1.0000 0.6441280728
C   C3        1.0  0.50970  0.12750  0.01842  1.0000 0.6441280728
C   C4        1.0  0.00970  0.37250  0.98158  1.0000 0.6441280728
C   C5        1.0  0.10550  0.91820  0.55667  1.0000 -0.0300503049
C   C6        1.0  0.60550  0.58180  0.44333  1.0000 -0.0300503049
C   C7        1.0  0.60550  0.08180  0.05667  1.0000 -0.0300503049
C   C8        1.0  0.10550  0.41820  0.94333  1.0000 -0.0300503049
C   C9        1.0  0.05450  0.99140  0.56333  1.0000 -0.1935246142
C   C10       1.0  0.55450  0.50860  0.43667  1.0000 -0.1935246142
C   C11       1.0  0.55450  0.00860  0.06333  1.0000 -0.1935246142
C   C12       1.0  0.05450  0.49140  0.93667  1.0000 -0.1935246142
C   C13       1.0  0.13880  0.03750  0.59724  1.0000 0.1545446811
C   C14       1.0  0.63880  0.46250  0.40276  1.0000 0.1545446811
C   C15       1.0  0.63880  0.96250  0.09724  1.0000 0.1545446811
C   C16       1.0  0.13880  0.53750  0.90276  1.0000 0.1545446811
C   C17       1.0  0.23260  0.12690  0.64751  1.0000 0.1718877738
C   C18       1.0  0.73260  0.37310  0.35249  1.0000 0.1718877738
C   C19       1.0  0.73260  0.87310  0.14751  1.0000 0.1718877738
C   C20       1.0  0.23260  0.62690  0.85249  1.0000 0.1718877738
C   C21       1.0  0.26060  0.00940  0.62765  1.0000 0.1191019007
C   C22       1.0  0.76060  0.49060  0.37235  1.0000 0.1103657705
C   C23       1.0  0.76060  0.99060  0.12765  1.0000 0.1191019007
C   C24       1.0  0.26060  0.50940  0.87235  1.0000 0.1191019007
C   C25       1.0  0.31390  0.93710  0.62039  1.0000 -0.1802645868
C   C26       1.0  0.81390  0.56290  0.37961  1.0000 -0.1802645868
C   C27       1.0  0.81390  0.06290  0.12039  1.0000 -0.1802645868
C   C28       1.0  0.31390  0.43710  0.87961  1.0000 -0.1802645868
C   C29       1.0  0.23970  0.89140  0.58409  1.0000 -0.0495069296
C   C30       1.0  0.73970  0.60860  0.41591  1.0000 -0.0495069296
C   C31       1.0  0.73970  0.10860  0.08409  1.0000 -0.0495069296
C   C32       1.0  0.23970  0.39140  0.91591  1.0000 -0.0495069296
C   C33       1.0  0.30650  0.81480  0.57474  1.0000 0.6441280728
C   C34       1.0  0.80650  0.68520  0.42526  1.0000 0.6441280728
C   C35       1.0  0.80650  0.18520  0.07474  1.0000 0.6441280728
C   C36       1.0  0.30650  0.31480  0.92526  1.0000 0.6441280728
C   C37       1.0  0.94950  0.64450  0.54822  1.0000 0.5995949803
C   C38       1.0  0.44950  0.85550  0.45178  1.0000 0.5995949803
C   C39       1.0  0.44950  0.35550  0.04822  1.0000 0.5995949803
C   C40       1.0  0.94950  0.14450  0.95178  1.0000 0.5995949803
C   C41       1.0  0.86390  0.61160  0.59423  1.0000 -0.0379483311
C   C42       1.0  0.36390  0.88840  0.40577  1.0000 -0.0379483311
C   C43       1.0  0.36390  0.38840  0.09423  1.0000 -0.0379483311
C   C44       1.0  0.86390  0.11160  0.90577  1.0000 -0.0379483311
C   C45       1.0  0.83940  0.53460  0.59520  1.0000 -0.1802645868
C   C46       1.0  0.33940  0.96540  0.40480  1.0000 -0.1802645868
C   C47       1.0  0.33940  0.46540  0.09520  1.0000 -0.1802645868
C   C48       1.0  0.83940  0.03460  0.90480  1.0000 -0.1802645868
C   C49       1.0  0.74990  0.50590  0.63657  1.0000 0.1191019007
C   C50       1.0  0.24990  0.99410  0.36343  1.0000 0.1191019007
C   C51       1.0  0.24990  0.49410  0.13657  1.0000 0.1191019007
C   C52       1.0  0.74990  0.00590  0.86343  1.0000 0.1191019007
C   C53       1.0  0.60590  0.44090  0.69151  1.0000 0.1761648839
C   C54       1.0  0.10590  0.05910  0.30849  1.0000 0.1761648839
C   C55       1.0  0.10590  0.55910  0.19151  1.0000 0.1761648839
C   C56       1.0  0.60590  0.94090  0.80849  1.0000 0.1761648839
C   C57       1.0  0.68810  0.55320  0.67549  1.0000 0.1103657705
C   C58       1.0  0.18810  0.94680  0.32451  1.0000 0.1103657705
C   C59       1.0  0.18810  0.44680  0.17549  1.0000 0.1103657705
C   C60       1.0  0.68810  0.05320  0.82451  1.0000 0.1103657705
C   C61       1.0  0.71980  0.62990  0.67576  1.0000 -0.2234426292
C   C62       1.0  0.21980  0.87010  0.32424  1.0000 -0.2234426292
C   C63       1.0  0.21980  0.37010  0.17576  1.0000 -0.2234426292
C   C64       1.0  0.71980  0.12990  0.82424  1.0000 -0.2234426292
C   C65       1.0  0.80610  0.65900  0.63495  1.0000 -0.0495069296
C   C66       1.0  0.30610  0.84100  0.36505  1.0000 -0.0495069296
C   C67       1.0  0.30610  0.34100  0.13495  1.0000 -0.0495069296
C   C68       1.0  0.80610  0.15900  0.86505  1.0000 -0.0495069296
C   C69       1.0  0.84050  0.74210  0.63730  1.0000 0.6068899928
C   C70       1.0  0.34050  0.75790  0.36270  1.0000 0.6068899928
C   C71       1.0  0.34050  0.25790  0.13730  1.0000 0.6068899928
C   C72       1.0  0.84050  0.24210  0.86270  1.0000 0.6068899928
C   C73       1.0  0.49030  0.87250  0.98158  1.0000 0.6441280728
C   C74       1.0  0.99030  0.62750  0.01842  1.0000 0.6441280728
C   C75       1.0  0.99030  0.12750  0.48158  1.0000 0.6441280728
C   C76       1.0  0.49030  0.37250  0.51842  1.0000 0.6441280728
C   C77       1.0  0.39450  0.91820  0.94333  1.0000 -0.0300503049
C   C78       1.0  0.89450  0.58180  0.05667  1.0000 -0.0300503049
C   C79       1.0  0.89450  0.08180  0.44333  1.0000 -0.0300503049
C   C80       1.0  0.39450  0.41820  0.55667  1.0000 -0.0300503049
C   C81       1.0  0.44550  0.99140  0.93667  1.0000 -0.1935246142
C   C82       1.0  0.94550  0.50860  0.06333  1.0000 -0.1935246142
C   C83       1.0  0.94550  0.00860  0.43667  1.0000 -0.1935246142
C   C84       1.0  0.44550  0.49140  0.56333  1.0000 -0.1935246142
C   C85       1.0  0.36120  0.03750  0.90276  1.0000 0.1545446811
C   C86       1.0  0.86120  0.46250  0.09724  1.0000 0.1545446811
C   C87       1.0  0.86120  0.96250  0.40276  1.0000 0.1545446811
C   C88       1.0  0.36120  0.53750  0.59724  1.0000 0.1545446811
C   C89       1.0  0.26740  0.12690  0.85249  1.0000 0.1718877738
C   C90       1.0  0.76740  0.37310  0.14751  1.0000 0.1718877738
C   C91       1.0  0.76740  0.87310  0.35249  1.0000 0.1718877738
C   C92       1.0  0.26740  0.62690  0.64751  1.0000 0.1718877738
C   C93       1.0  0.23940  0.00940  0.87235  1.0000 0.1191019007
C   C94       1.0  0.73940  0.49060  0.12765  1.0000 0.1191019007
C   C95       1.0  0.73940  0.99060  0.37235  1.0000 0.1191019007
C   C96       1.0  0.23940  0.50940  0.62765  1.0000 0.1191019007
C   C97       1.0  0.18610  0.93710  0.87961  1.0000 -0.1802645868
C   C98       1.0  0.68610  0.56290  0.12039  1.0000 -0.1802645868
C   C99       1.0  0.68610  0.06290  0.37961  1.0000 -0.1802645868
C   C100      1.0  0.18610  0.43710  0.62039  1.0000 -0.1802645868
C   C101      1.0  0.26030  0.89140  0.91591  1.0000 -0.0495069296
C   C102      1.0  0.76030  0.60860  0.08409  1.0000 -0.0495069296
C   C103      1.0  0.76030  0.10860  0.41591  1.0000 -0.0495069296
C   C104      1.0  0.26030  0.39140  0.58409  1.0000 -0.0495069296
C   C105      1.0  0.19350  0.81480  0.92526  1.0000 0.6441280728
C   C106      1.0  0.69350  0.68520  0.07474  1.0000 0.6441280728
C   C107      1.0  0.69350  0.18520  0.42526  1.0000 0.6441280728
C   C108      1.0  0.19350  0.31480  0.57474  1.0000 0.6441280728
C   C109      1.0  0.55050  0.64450  0.95178  1.0000 0.5995949803
C   C110      1.0  0.05050  0.85550  0.04822  1.0000 0.5995949803
C   C111      1.0  0.05050  0.35550  0.45178  1.0000 0.5995949803
C   C112      1.0  0.55050  0.14450  0.54822  1.0000 0.5995949803
C   C113      1.0  0.63610  0.61160  0.90577  1.0000 -0.0379483311
C   C114      1.0  0.13610  0.88840  0.09423  1.0000 -0.0379483311
C   C115      1.0  0.13610  0.38840  0.40577  1.0000 -0.0379483311
C   C116      1.0  0.63610  0.11160  0.59423  1.0000 -0.0379483311
C   C117      1.0  0.66060  0.53460  0.90480  1.0000 -0.1802645868
C   C118      1.0  0.16060  0.96540  0.09520  1.0000 -0.1802645868
C   C119      1.0  0.16060  0.46540  0.40480  1.0000 -0.1802645868
C   C120      1.0  0.66060  0.03460  0.59520  1.0000 -0.1802645868
C   C121      1.0  0.75010  0.50590  0.86343  1.0000 0.1191019007
C   C122      1.0  0.25010  0.99410  0.13657  1.0000 0.1191019007
C   C123      1.0  0.25010  0.49410  0.36343  1.0000 0.1191019007
C   C124      1.0  0.75010  0.00590  0.63657  1.0000 0.1191019007
C   C125      1.0  0.89410  0.44090  0.80849  1.0000 0.1761648839
C   C126      1.0  0.39410  0.05910  0.19151  1.0000 0.1761648839
C   C127      1.0  0.39410  0.55910  0.30849  1.0000 0.1761648839
C   C128      1.0  0.89410  0.94090  0.69151  1.0000 0.1761648839
C   C129      1.0  0.81190  0.55320  0.82451  1.0000 0.1103657705
C   C130      1.0  0.31190  0.94680  0.17549  1.0000 0.1103657705
C   C131      1.0  0.31190  0.44680  0.32451  1.0000 0.1103657705
C   C132      1.0  0.81190  0.05320  0.67549  1.0000 0.1103657705
C   C133      1.0  0.78020  0.62990  0.82424  1.0000 -0.2234426292
C   C134      1.0  0.28020  0.87010  0.17576  1.0000 -0.2234426292
C   C135      1.0  0.28020  0.37010  0.32424  1.0000 -0.2234426292
C   C136      1.0  0.78020  0.12990  0.67576  1.0000 -0.2234426292
C   C137      1.0  0.69390  0.65900  0.86505  1.0000 -0.0495069296
C   C138      1.0  0.19390  0.84100  0.13495  1.0000 -0.0495069296
C   C139      1.0  0.19390  0.34100  0.36505  1.0000 -0.0495069296
C   C140      1.0  0.69390  0.15900  0.63495  1.0000 -0.0495069296
C   C141      1.0  0.65950  0.74210  0.86270  1.0000 0.6068899928
C   C142      1.0  0.15950  0.75790  0.13730  1.0000 0.6068899928
C   C143      1.0  0.15950  0.25790  0.36270  1.0000 0.6068899928
C   C144      1.0  0.65950  0.24210  0.63730  1.0000 0.6068899928
N   N1        1.0  0.12600  0.11220  0.61014  1.0000 -0.2319243441
N   N2        1.0  0.62600  0.38780  0.38986  1.0000 -0.2319243441
N   N3        1.0  0.62600  0.88780  0.11014  1.0000 -0.2319243441
N   N4        1.0  0.12600  0.61220  0.88986  1.0000 -0.2319243441
N   N5        1.0  0.31470  0.06700  0.66048  1.0000 -0.3069312724
N   N6        1.0  0.81470  0.43300  0.33952  1.0000 -0.3069312724
N   N7        1.0  0.81470  0.93300  0.16048  1.0000 -0.3069312724
N   N8        1.0  0.31470  0.56700  0.83952  1.0000 -0.3069312724
N   N9        1.0  0.59600  0.51020  0.70934  1.0000 -0.3069312724
N   N10       1.0  0.09600  0.98980  0.29066  1.0000 -0.3069312724
N   N11       1.0  0.09600  0.48980  0.20934  1.0000 -0.3069312724
N   N12       1.0  0.59600  0.01020  0.79066  1.0000 -0.3069312724
N   N13       1.0  0.69600  0.43510  0.64865  1.0000 -0.240187146
N   N14       1.0  0.19600  0.06490  0.35135  1.0000 -0.240187146
N   N15       1.0  0.19600  0.56490  0.14865  1.0000 -0.240187146
N   N16       1.0  0.69600  0.93510  0.85135  1.0000 -0.240187146
N   N17       1.0  0.37400  0.11220  0.88986  1.0000 -0.2319243441
N   N18       1.0  0.87400  0.38780  0.11014  1.0000 -0.2319243441
N   N19       1.0  0.87400  0.88780  0.38986  1.0000 -0.2319243441
N   N20       1.0  0.37400  0.61220  0.61014  1.0000 -0.2319243441
N   N21       1.0  0.18530  0.06700  0.83952  1.0000 -0.3069312724
N   N22       1.0  0.68530  0.43300  0.16048  1.0000 -0.3069312724
N   N23       1.0  0.68530  0.93300  0.33952  1.0000 -0.3069312724
N   N24       1.0  0.18530  0.56700  0.66048  1.0000 -0.3069312724
N   N25       1.0  0.90400  0.51020  0.79066  1.0000 -0.3069312724
N   N26       1.0  0.40400  0.98980  0.20934  1.0000 -0.3069312724
N   N27       1.0  0.40400  0.48980  0.29066  1.0000 -0.3069312724
N   N28       1.0  0.90400  0.01020  0.70934  1.0000 -0.3069312724
N   N29       1.0  0.80400  0.43510  0.85135  1.0000 -0.240187146
N   N30       1.0  0.30400  0.06490  0.14865  1.0000 -0.240187146
N   N31       1.0  0.30400  0.56490  0.35135  1.0000 -0.240187146
N   N32       1.0  0.80400  0.93510  0.64865  1.0000 -0.240187146
O   O1        1.0  0.07550  0.84091  0.47954  1.0000 -0.689064827
O   O2        1.0  0.57550  0.65909  0.52046  1.0000 -0.689064827
O   O3        1.0  0.57550  0.15909  0.97954  1.0000 -0.689064827
O   O4        1.0  0.07550  0.34091  0.02046  1.0000 -0.689064827
O   O5        1.0  0.86560  0.87358  0.52526  1.0000 -0.637868196
O   O6        1.0  0.36560  0.62642  0.47474  1.0000 -0.637868196
O   O7        1.0  0.36560  0.12642  0.02526  1.0000 -0.637868196
O   O8        1.0  0.86560  0.37358  0.97474  1.0000 -0.637868196
O   O9        1.0  0.22030  0.76125  0.56137  1.0000 -0.6539617779
O   O10       1.0  0.72030  0.73875  0.43863  1.0000 -0.6539617779
O   O11       1.0  0.72030  0.23875  0.06137  1.0000 -0.6539617779
O   O12       1.0  0.22030  0.26125  0.93863  1.0000 -0.6539617779
O   O13       1.0  0.45160  0.80785  0.58167  1.0000 -0.6690779629
O   O14       1.0  0.95160  0.69215  0.41833  1.0000 -0.6690779629
O   O15       1.0  0.95160  0.19215  0.08167  1.0000 -0.6690779629
O   O16       1.0  0.45160  0.30785  0.91833  1.0000 -0.6690779629
O   O17       1.0  0.05910  0.60982  0.52710  1.0000 -0.5797351452
O   O18       1.0  0.55910  0.89018  0.47290  1.0000 -0.5797351452
O   O19       1.0  0.55910  0.39018  0.02710  1.0000 -0.5797351452
O   O20       1.0  0.05910  0.10982  0.97290  1.0000 -0.5797351452
O   O21       1.0  0.91050  0.71002  0.53169  1.0000 -0.7419562342
O   O22       1.0  0.41050  0.78998  0.46831  1.0000 -0.7419562342
O   O23       1.0  0.41050  0.28998  0.03169  1.0000 -0.7419562342
O   O24       1.0  0.91050  0.21002  0.96831  1.0000 -0.7419562342
O   O25       1.0  0.74630  0.78570  0.61296  1.0000 -0.689064827
O   O26       1.0  0.24630  0.71430  0.38704  1.0000 -0.689064827
O   O27       1.0  0.24630  0.21430  0.11296  1.0000 -0.689064827
O   O28       1.0  0.74630  0.28570  0.88704  1.0000 -0.689064827
O   O29       1.0  0.95030  0.76440  0.66370  1.0000 -0.5207752885
O   O30       1.0  0.45030  0.73560  0.33630  1.0000 -0.5207752885
O   O31       1.0  0.45030  0.23560  0.16370  1.0000 -0.5207752885
O   O32       1.0  0.95030  0.26440  0.83630  1.0000 -0.5207752885
O   O33       1.0  0.42450  0.84091  0.02046  1.0000 -0.689064827
O   O34       1.0  0.92450  0.65909  0.97954  1.0000 -0.689064827
O   O35       1.0  0.92450  0.15909  0.52046  1.0000 -0.689064827
O   O36       1.0  0.42450  0.34091  0.47954  1.0000 -0.689064827
O   O37       1.0  0.63440  0.87358  0.97474  1.0000 -0.637868196
O   O38       1.0  0.13440  0.62642  0.02526  1.0000 -0.637868196
O   O39       1.0  0.13440  0.12642  0.47474  1.0000 -0.637868196
O   O40       1.0  0.63440  0.37358  0.52526  1.0000 -0.637868196
O   O41       1.0  0.27970  0.76125  0.93863  1.0000 -0.6539617779
O   O42       1.0  0.77970  0.73875  0.06137  1.0000 -0.6539617779
O   O43       1.0  0.77970  0.23875  0.43863  1.0000 -0.6539617779
O   O44       1.0  0.27970  0.26125  0.56137  1.0000 -0.6539617779
O   O45       1.0  0.04840  0.80785  0.91833  1.0000 -0.6690779629
O   O46       1.0  0.54840  0.69215  0.08167  1.0000 -0.6690779629
O   O47       1.0  0.54840  0.19215  0.41833  1.0000 -0.6690779629
O   O48       1.0  0.04840  0.30785  0.58167  1.0000 -0.6690779629
O   O49       1.0  0.44090  0.60982  0.97290  1.0000 -0.5797351452
O   O50       1.0  0.94090  0.89018  0.02710  1.0000 -0.5797351452
O   O51       1.0  0.94090  0.39018  0.47290  1.0000 -0.5797351452
O   O52       1.0  0.44090  0.10982  0.52710  1.0000 -0.5797351452
O   O53       1.0  0.58950  0.71002  0.96831  1.0000 -0.7419562342
O   O54       1.0  0.08950  0.78998  0.03169  1.0000 -0.7419562342
O   O55       1.0  0.08950  0.28998  0.46831  1.0000 -0.7419562342
O   O56       1.0  0.58950  0.21002  0.53169  1.0000 -0.7419562342
O   O57       1.0  0.75370  0.78570  0.88704  1.0000 -0.689064827
O   O58       1.0  0.25370  0.71430  0.11296  1.0000 -0.689064827
O   O59       1.0  0.25370  0.21430  0.38704  1.0000 -0.689064827
O   O60       1.0  0.75370  0.28570  0.61296  1.0000 -0.689064827
O   O61       1.0  0.54970  0.76440  0.83630  1.0000 -0.5207752885
O   O62       1.0  0.04970  0.73560  0.16370  1.0000 -0.5207752885
O   O63       1.0  0.04970  0.23560  0.33630  1.0000 -0.5207752885
O   O64       1.0  0.54970  0.26440  0.66370  1.0000 -0.5207752885
