# DDEC6 charges by PACMAN v1.1 (https://github.com/mtap-research/PACMAN-charge/)
data_2010[Zn][tfz]3[ASR]2
_chemical_formula_sum              "Zn4 H40 C56 S2 N4 O16"
_cell_length_a       9.4093
_cell_length_b       9.876
_cell_length_c       18.307
_cell_angle_alpha    100.65
_cell_angle_beta     87.3
_cell_angle_gamma    111.8

_symmetry_space_group_name_H-M    "P 1"
_symmetry_Int_Tables_number       1

loop_
  _symmetry_equiv_pos_as_xyz
  'x, y, z'

loop_
  _atom_site_type_symbol
  _atom_site_label
  _atom_site_symmetry_multiplicity
  _atom_site_fract_x
  _atom_site_fract_y
  _atom_site_fract_z
  _atom_site_occupancy
  _atom_site_charge
Zn  Zn1       1.0  0.80924  0.89969  0.85665  1.0000 0.8608525993
Zn  Zn2       1.0  0.19076  0.10031  0.14335  1.0000 0.8608525993
Zn  Zn3       1.0  0.09430  0.90552  0.96855  1.0000 0.900726557
Zn  Zn4       1.0  0.90570  0.09448  0.03145  1.0000 0.900726557
H   H1        1.0  0.93620  0.93240  0.70680  1.0000 0.1118882238
H   H2        1.0  0.06380  0.06760  0.29320  1.0000 0.1118882238
H   H3        1.0  0.04720  0.81140  0.61650  1.0000 0.1271208787
H   H4        1.0  0.95280  0.18860  0.38350  1.0000 0.1271208787
H   H5        1.0  0.93170  0.47690  0.72520  1.0000 0.1492138656
H   H6        1.0  0.06830  0.52310  0.27480  1.0000 0.1492138656
H   H7        1.0  0.81520  0.59740  0.81110  1.0000 0.120269608
H   H8        1.0  0.18480  0.40260  0.18890  1.0000 0.120269608
H   H9        1.0  0.07860  0.45900  0.61580  1.0000 0.1271208787
H   H10       1.0  0.92140  0.54100  0.38420  1.0000 0.1271208787
H   H11       1.0  0.16550  0.69380  0.54780  1.0000 0.1118882238
H   H12       1.0  0.83450  0.30620  0.45220  1.0000 0.1118882238
H   H13       1.0  0.29690  0.69410  0.43970  1.0000 0.120269608
H   H14       1.0  0.70310  0.30590  0.56030  1.0000 0.120269608
H   H15       1.0  0.43340  0.60860  0.35050  1.0000 0.120269608
H   H16       1.0  0.56660  0.39140  0.64950  1.0000 0.120269608
H   H17       1.0  0.36040  0.26060  0.44490  1.0000 0.120269608
H   H18       1.0  0.63960  0.73940  0.55510  1.0000 0.120269608
H   H19       1.0  0.22680  0.35200  0.53800  1.0000 0.120269608
H   H20       1.0  0.77320  0.64800  0.46200  1.0000 0.120269608
H   H21       1.0  0.53630  0.46580  0.29260  1.0000 0.1271208787
H   H22       1.0  0.46370  0.53420  0.70740  1.0000 0.1271208787
H   H23       1.0  0.49960  0.20950  0.33150  1.0000 0.1379159914
H   H24       1.0  0.50040  0.79050  0.66850  1.0000 0.1379159914
H   H25       1.0  0.70200  0.44740  0.19270  1.0000 0.1492138656
H   H26       1.0  0.29800  0.55260  0.80730  1.0000 0.1492138656
H   H27       1.0  0.84150  0.36830  0.09910  1.0000 0.1118882238
H   H28       1.0  0.15850  0.63170  0.90090  1.0000 0.1118882238
H   H29       1.0  0.74930  0.99960  0.17190  1.0000 0.120269608
H   H30       1.0  0.25070  0.00040  0.82810  1.0000 0.120269608
H   H31       1.0  0.60980  0.06970  0.26670  1.0000 0.1379159914
H   H32       1.0  0.39020  0.93030  0.73330  1.0000 0.1379159914
H   H33       1.0  0.42560  0.53980  0.93900  1.0000 0.120269608
H   H34       1.0  0.57440  0.46020  0.06100  1.0000 0.120269608
H   H35       1.0  0.11890  0.53990  0.09910  1.0000 0.120269608
H   H36       1.0  0.88110  0.46010  0.90090  1.0000 0.120269608
H   H37       1.0  0.47830  0.91350  0.08580  1.0000 0.1271208787
H   H38       1.0  0.52170  0.08650  0.91420  1.0000 0.1271208787
H   H39       1.0  0.01500  0.09630  0.91910  1.0000 0.364903778
H   H40       1.0  0.98500  0.90370  0.08090  1.0000 0.364903778
C   C1        1.0  0.93590  0.84010  0.71140  1.0000 0.098459655
C   C2        1.0  0.06410  0.15990  0.28860  1.0000 0.098459655
C   C3        1.0  0.00390  0.76790  0.65720  1.0000 -0.2092416732
C   C4        1.0  0.99610  0.23210  0.34280  1.0000 -0.2092416732
C   C5        1.0  0.00760  0.63340  0.66300  1.0000 0.1492138656
C   C6        1.0  0.99240  0.36660  0.33700  1.0000 0.1492138656
C   C7        1.0  0.93500  0.57030  0.72070  1.0000 -0.1768665386
C   C8        1.0  0.06500  0.42970  0.27930  1.0000 -0.1768665386
C   C9        1.0  0.86650  0.64370  0.77250  1.0000 0.071669534
C   C10       1.0  0.13350  0.35630  0.22750  1.0000 0.071669534
C   C11       1.0  0.08620  0.55230  0.60870  1.0000 -0.1318139115
C   C12       1.0  0.91380  0.44770  0.39130  1.0000 -0.1318139115
C   C13       1.0  0.16190  0.60130  0.55410  1.0000 -0.1222010197
C   C14       1.0  0.83810  0.39870  0.44590  1.0000 -0.1222010197
C   C15       1.0  0.24610  0.53140  0.49840  1.0000 0.0919867979
C   C16       1.0  0.75390  0.46860  0.50160  1.0000 0.0919867979
C   C17       1.0  0.30950  0.60570  0.44150  1.0000 -0.1497357138
C   C18       1.0  0.69050  0.39430  0.55850  1.0000 -0.1497357138
C   C19       1.0  0.39050  0.55370  0.38750  1.0000 -0.1497357138
C   C20       1.0  0.60950  0.44630  0.61250  1.0000 -0.1497357138
C   C21       1.0  0.41040  0.42510  0.38620  1.0000 0.098459655
C   C22       1.0  0.58960  0.57490  0.61380  1.0000 0.098459655
C   C23       1.0  0.34810  0.34930  0.44360  1.0000 -0.1497357138
C   C24       1.0  0.65190  0.65070  0.55640  1.0000 -0.1497357138
C   C25       1.0  0.26690  0.40400  0.49960  1.0000 -0.1553681193
C   C26       1.0  0.73310  0.59600  0.50040  1.0000 -0.1553681193
C   C27       1.0  0.50150  0.39400  0.32250  1.0000 -0.1318139115
C   C28       1.0  0.49850  0.60600  0.67750  1.0000 -0.1318139115
C   C29       1.0  0.53760  0.28470  0.30370  1.0000 -0.1222010197
C   C30       1.0  0.46240  0.71530  0.69630  1.0000 -0.1222010197
C   C31       1.0  0.63560  0.26280  0.24090  1.0000 0.1550405474
C   C32       1.0  0.36440  0.73720  0.75910  1.0000 0.1550405474
C   C33       1.0  0.70960  0.35520  0.18920  1.0000 -0.1883808857
C   C34       1.0  0.29040  0.64480  0.81080  1.0000 -0.1883808857
C   C35       1.0  0.79380  0.30680  0.13300  1.0000 0.098459655
C   C36       1.0  0.20620  0.69320  0.86700  1.0000 0.098459655
C   C37       1.0  0.73970  0.09110  0.17580  1.0000 0.0845569076
C   C38       1.0  0.26030  0.90890  0.82420  1.0000 0.0845569076
C   C39       1.0  0.65460  0.13280  0.23310  1.0000 -0.1883808857
C   C40       1.0  0.34540  0.86720  0.76690  1.0000 -0.1883808857
C   C41       1.0  0.47300  0.74020  0.00633  1.0000 -0.0223053245
C   C42       1.0  0.52700  0.25980  0.99367  1.0000 -0.0223053245
C   C43       1.0  0.39130  0.58960  0.97984  1.0000 -0.1222010197
C   C44       1.0  0.60870  0.41040  0.02016  1.0000 -0.1222010197
C   C45       1.0  0.25810  0.51450  0.01510  1.0000 -0.0223053245
C   C46       1.0  0.74190  0.48550  0.98490  1.0000 -0.0223053245
C   C47       1.0  0.20850  0.58930  0.07602  1.0000 -0.1222010197
C   C48       1.0  0.79150  0.41070  0.92398  1.0000 -0.1222010197
C   C49       1.0  0.29210  0.73830  0.10286  1.0000 -0.080694489
C   C50       1.0  0.70790  0.26170  0.89714  1.0000 -0.080694489
C   C51       1.0  0.42330  0.81360  0.06795  1.0000 -0.1022723613
C   C52       1.0  0.57670  0.18640  0.93205  1.0000 -0.1022723613
C   C53       1.0  0.61340  0.82490  0.96859  1.0000 0.5927699806
C   C54       1.0  0.38660  0.17510  0.03141  1.0000 0.5927699806
C   C55       1.0  0.16480  0.35270  0.98677  1.0000 0.5725949408
C   C56       1.0  0.83520  0.64730  0.01323  1.0000 0.5725949408
S   S1        1.0  0.24047  0.82446  0.18820  1.0000 1.1582395436
S   S2        1.0  0.75953  0.17554  0.81180  1.0000 1.1582395436
N   N1        1.0  0.87060  0.78150  0.76952  1.0000 -0.2508939503
N   N2        1.0  0.12940  0.21850  0.23048  1.0000 -0.2508939503
N   N3        1.0  0.80890  0.17620  0.12576  1.0000 -0.2361115811
N   N4        1.0  0.19110  0.82380  0.87424  1.0000 -0.2361115811
O   O1        1.0  0.68560  0.95790  0.99858  1.0000 -0.5594592093
O   O2        1.0  0.31440  0.04210  0.00142  1.0000 -0.5594592093
O   O3        1.0  0.64950  0.76160  0.90857  1.0000 -0.5307791827
O   O4        1.0  0.35050  0.23840  0.09143  1.0000 -0.5307791827
O   O5        1.0  0.04700  0.29890  0.02500  1.0000 -0.5894445775
O   O6        1.0  0.95300  0.70110  0.97500  1.0000 -0.5894445775
O   O7        1.0  0.20670  0.28420  0.93194  1.0000 -0.5146380065
O   O8        1.0  0.79330  0.71580  0.06806  1.0000 -0.5151419638
O   O9        1.0  0.28760  0.98320  0.18301  1.0000 -0.6316474674
O   O10       1.0  0.71240  0.01680  0.81699  1.0000 -0.6316474674
O   O11       1.0  0.33140  0.80730  0.24455  1.0000 -0.61084792
O   O12       1.0  0.66860  0.19270  0.75545  1.0000 -0.61084792
O   O13       1.0  0.07760  0.75380  0.19452  1.0000 -0.595402181
O   O14       1.0  0.92240  0.24620  0.80548  1.0000 -0.595402181
O   O15       1.0  0.98140  0.01250  0.92582  1.0000 -0.8115680812
O   O16       1.0  0.01860  0.98750  0.07418  1.0000 -0.8115680812
