# DDEC6 charges by PACMAN v1.1 (https://github.com/mtap-research/PACMAN-charge/)
data_2010[Cu][nan]3[ASR]30
_chemical_formula_sum              "Cu8 H12 C32 S4 O32"
_cell_length_a       7.301
_cell_length_b       18.032
_cell_length_c       12.0362
_cell_angle_alpha    90
_cell_angle_beta     122.913
_cell_angle_gamma    90

_symmetry_space_group_name_H-M    "P 1"
_symmetry_Int_Tables_number       1

loop_
  _symmetry_equiv_pos_as_xyz
  'x, y, z'

loop_
  _atom_site_type_symbol
  _atom_site_label
  _atom_site_symmetry_multiplicity
  _atom_site_fract_x
  _atom_site_fract_y
  _atom_site_fract_z
  _atom_site_occupancy
  _atom_site_charge
Cu  Cu1       1.0  0.35132  0.09464  0.21639  1.0000 1.0264121597
Cu  Cu2       1.0  0.64868  0.59464  0.28361  1.0000 1.0264121597
Cu  Cu3       1.0  0.64868  0.90536  0.78361  1.0000 1.0264121597
Cu  Cu4       1.0  0.35132  0.40536  0.71639  1.0000 1.0264121597
Cu  Cu5       1.0  0.11083  0.56848  0.56952  1.0000 1.1340015535
Cu  Cu6       1.0  0.88917  0.06848  0.93048  1.0000 1.1340015535
Cu  Cu7       1.0  0.88917  0.43152  0.43048  1.0000 1.1340015535
Cu  Cu8       1.0  0.11083  0.93152  0.06952  1.0000 1.1340015535
H   H1        1.0  0.61690  0.80800  0.33420  1.0000 0.1495993329
H   H2        1.0  0.38310  0.30800  0.16580  1.0000 0.1495993329
H   H3        1.0  0.38310  0.19200  0.66580  1.0000 0.1495993329
H   H4        1.0  0.61690  0.69200  0.83420  1.0000 0.1495993329
H   H5        1.0  0.14360  0.79300  0.70280  1.0000 0.1495993329
H   H6        1.0  0.85640  0.29300  0.79720  1.0000 0.1495993329
H   H7        1.0  0.85640  0.20700  0.29720  1.0000 0.1495993329
H   H8        1.0  0.14360  0.70700  0.20280  1.0000 0.1495993329
H   H9        1.0  0.83850  0.98860  0.56440  1.0000 0.1495993329
H   H10       1.0  0.16150  0.48860  0.93560  1.0000 0.1495993329
H   H11       1.0  0.16150  0.01140  0.43560  1.0000 0.1495993329
H   H12       1.0  0.83850  0.51140  0.06440  1.0000 0.1495993329
C   C1        1.0  0.00870  0.89630  0.64960  1.0000 -0.0737107093
C   C2        1.0  0.99130  0.39630  0.85040  1.0000 -0.0737107093
C   C3        1.0  0.99130  0.10370  0.35040  1.0000 -0.0737107093
C   C4        1.0  0.00870  0.60370  0.14960  1.0000 -0.0737107093
C   C5        1.0  0.70040  0.90460  0.43030  1.0000 -0.0047066885
C   C6        1.0  0.29960  0.40460  0.06970  1.0000 -0.0047066885
C   C7        1.0  0.29960  0.09540  0.56970  1.0000 -0.0047066885
C   C8        1.0  0.70040  0.59540  0.93030  1.0000 -0.0047066885
C   C9        1.0  0.71740  0.83040  0.41450  1.0000 -0.0869798302
C   C10       1.0  0.28260  0.33040  0.08550  1.0000 -0.0869798302
C   C11       1.0  0.28260  0.16960  0.58550  1.0000 -0.0869798302
C   C12       1.0  0.71740  0.66960  0.91450  1.0000 -0.0869798302
C   C13       1.0  0.88020  0.78790  0.51510  1.0000 -0.0067540391
C   C14       1.0  0.11980  0.28790  0.98490  1.0000 -0.0067540391
C   C15       1.0  0.11980  0.21210  0.48490  1.0000 -0.0067540391
C   C16       1.0  0.88020  0.71210  0.01510  1.0000 -0.0067540391
C   C17       1.0  0.89220  0.70700  0.49110  1.0000 0.617245019
C   C18       1.0  0.10780  0.20700  0.00890  1.0000 0.617245019
C   C19       1.0  0.10780  0.29300  0.50890  1.0000 0.617245019
C   C20       1.0  0.89220  0.79300  0.99110  1.0000 0.617245019
C   C21       1.0  0.03070  0.82050  0.63440  1.0000 -0.0821733582
C   C22       1.0  0.96930  0.32050  0.86560  1.0000 -0.0821733582
C   C23       1.0  0.96930  0.17950  0.36560  1.0000 -0.0821733582
C   C24       1.0  0.03070  0.67950  0.13440  1.0000 -0.0821733582
C   C25       1.0  0.84910  0.93830  0.55150  1.0000 -0.0869798302
C   C26       1.0  0.15090  0.43830  0.94850  1.0000 -0.0869798302
C   C27       1.0  0.15090  0.06170  0.44850  1.0000 -0.0869798302
C   C28       1.0  0.84910  0.56170  0.05150  1.0000 -0.0869798302
C   C29       1.0  0.51720  0.94730  0.31970  1.0000 0.6047331845
C   C30       1.0  0.48280  0.44730  0.18030  1.0000 0.6047331845
C   C31       1.0  0.48280  0.05270  0.68030  1.0000 0.6047331845
C   C32       1.0  0.51720  0.55270  0.81970  1.0000 0.6047331845
S   S1        1.0  0.18697  0.93484  0.80927  1.0000 1.1853359347
S   S2        1.0  0.81303  0.43484  0.69073  1.0000 1.1833415632
S   S3        1.0  0.81303  0.06516  0.19073  1.0000 1.1833415632
S   S4        1.0  0.18697  0.56516  0.30927  1.0000 1.1833415632
O   O1        1.0  0.03140  0.66840  0.58520  1.0000 -0.5003926451
O   O2        1.0  0.96860  0.16840  0.91480  1.0000 -0.5003926451
O   O3        1.0  0.96860  0.33160  0.41480  1.0000 -0.5003926451
O   O4        1.0  0.03140  0.83160  0.08520  1.0000 -0.5003926451
O   O5        1.0  0.18570  0.03500  0.05660  1.0000 -0.8942651744
O   O6        1.0  0.81430  0.53500  0.44340  1.0000 -0.8942651744
O   O7        1.0  0.81430  0.96500  0.94340  1.0000 -0.895412981
O   O8        1.0  0.18570  0.46500  0.55660  1.0000 -0.895412981
O   O9        1.0  0.49550  0.01370  0.33680  1.0000 -0.5421142127
O   O10       1.0  0.50450  0.51370  0.16320  1.0000 -0.5421142127
O   O11       1.0  0.50450  0.98630  0.66320  1.0000 -0.5421142127
O   O12       1.0  0.49550  0.48630  0.83680  1.0000 -0.5421142127
O   O13       1.0  0.75530  0.68620  0.37520  1.0000 -0.5298226471
O   O14       1.0  0.24470  0.18620  0.12480  1.0000 -0.5298226471
O   O15       1.0  0.24470  0.31380  0.62480  1.0000 -0.5298226471
O   O16       1.0  0.75530  0.81380  0.87520  1.0000 -0.5298226471
O   O17       1.0  0.16620  0.01240  0.80020  1.0000 -0.5139553542
O   O18       1.0  0.83380  0.51240  0.69980  1.0000 -0.5139553542
O   O19       1.0  0.83380  0.98760  0.19980  1.0000 -0.5139553542
O   O20       1.0  0.16620  0.48760  0.30020  1.0000 -0.5139553542
O   O21       1.0  0.39870  0.91050  0.21640  1.0000 -0.5003926451
O   O22       1.0  0.60130  0.41050  0.28360  1.0000 -0.4949348862
O   O23       1.0  0.60130  0.08950  0.78360  1.0000 -0.4949348862
O   O24       1.0  0.39870  0.58950  0.71640  1.0000 -0.5003926451
O   O25       1.0  0.11570  0.90200  0.88870  1.0000 -0.6354988808
O   O26       1.0  0.88430  0.40200  0.61130  1.0000 -0.6349411602
O   O27       1.0  0.88430  0.09800  0.11130  1.0000 -0.6349411602
O   O28       1.0  0.11570  0.59800  0.38870  1.0000 -0.6349411602
O   O29       1.0  0.40120  0.90820  0.85330  1.0000 -0.5598573233
O   O30       1.0  0.59880  0.40820  0.64670  1.0000 -0.5598573233
O   O31       1.0  0.59880  0.09180  0.14670  1.0000 -0.5598573233
O   O32       1.0  0.40120  0.59180  0.35330  1.0000 -0.5598573233
