# DDEC6 charges by PACMAN v1.1 (https://github.com/mtap-research/PACMAN-charge/)
data_2010[Co][nan]3[ASR]10
_chemical_formula_sum              "Co4 H16 C48 N4 O12 F16"
_cell_length_a       6.4018
_cell_length_b       8.9909
_cell_length_c       26.271
_cell_angle_alpha    90
_cell_angle_beta     90
_cell_angle_gamma    90

_symmetry_space_group_name_H-M    "P 1"
_symmetry_Int_Tables_number       1

loop_
  _symmetry_equiv_pos_as_xyz
  'x, y, z'

loop_
  _atom_site_type_symbol
  _atom_site_label
  _atom_site_symmetry_multiplicity
  _atom_site_fract_x
  _atom_site_fract_y
  _atom_site_fract_z
  _atom_site_occupancy
  _atom_site_charge
Co  Co1       1.0  0.00000  0.00000  0.28523  1.0000 0.9233892789
Co  Co2       1.0  0.50000  0.00000  0.21477  1.0000 0.9233892789
Co  Co3       1.0  0.00000  0.00000  0.71477  1.0000 0.9233892789
Co  Co4       1.0  0.50000  0.00000  0.78523  1.0000 0.9233892789
H   H1        1.0  0.24560  0.12330  0.37350  1.0000 0.1242320544
H   H2        1.0  0.74560  0.87670  0.12650  1.0000 0.1242320544
H   H3        1.0  0.25440  0.12330  0.12650  1.0000 0.1242320544
H   H4        1.0  0.75440  0.87670  0.37350  1.0000 0.1242320544
H   H5        1.0  0.75440  0.87670  0.62650  1.0000 0.1242320544
H   H6        1.0  0.25440  0.12330  0.87350  1.0000 0.1242320544
H   H7        1.0  0.74560  0.87670  0.87350  1.0000 0.1242320544
H   H8        1.0  0.24560  0.12330  0.62650  1.0000 0.1242320544
H   H9        1.0  0.25210  0.12800  0.46060  1.0000 0.1363333991
H   H10       1.0  0.75210  0.87200  0.03940  1.0000 0.1363333991
H   H11       1.0  0.24790  0.12800  0.03940  1.0000 0.1363333991
H   H12       1.0  0.74790  0.87200  0.46060  1.0000 0.1363333991
H   H13       1.0  0.74790  0.87200  0.53940  1.0000 0.1363333991
H   H14       1.0  0.24790  0.12800  0.96060  1.0000 0.1363333991
H   H15       1.0  0.75210  0.87200  0.96060  1.0000 0.1363333991
H   H16       1.0  0.25210  0.12800  0.53940  1.0000 0.1363333991
C   C1        1.0  0.25000  0.25830  0.25000  1.0000 0.6236727467
C   C2        1.0  0.75000  0.74170  0.25000  1.0000 0.6236727467
C   C3        1.0  0.75000  0.74170  0.75000  1.0000 0.6236727467
C   C4        1.0  0.25000  0.25830  0.75000  1.0000 0.6236727467
C   C5        1.0  0.25000  0.42690  0.25000  1.0000 -0.2410437906
C   C6        1.0  0.75000  0.57310  0.25000  1.0000 -0.2410437906
C   C7        1.0  0.75000  0.57310  0.75000  1.0000 -0.2410437906
C   C8        1.0  0.25000  0.42690  0.75000  1.0000 -0.2410437906
C   C9        1.0  0.24370  0.50840  0.20599  1.0000 0.1635073355
C   C10       1.0  0.74370  0.49160  0.29401  1.0000 0.1635073355
C   C11       1.0  0.25630  0.50840  0.29401  1.0000 0.1635073355
C   C12       1.0  0.75630  0.49160  0.20599  1.0000 0.1635073355
C   C13       1.0  0.75630  0.49160  0.79401  1.0000 0.1635073355
C   C14       1.0  0.25630  0.50840  0.70599  1.0000 0.1635073355
C   C15       1.0  0.74370  0.49160  0.70599  1.0000 0.1635073355
C   C16       1.0  0.24370  0.50840  0.79401  1.0000 0.1635073355
C   C17       1.0  0.23950  0.66280  0.20590  1.0000 0.0724041021
C   C18       1.0  0.73950  0.33720  0.29410  1.0000 0.0724041021
C   C19       1.0  0.26050  0.66280  0.29410  1.0000 0.0724041021
C   C20       1.0  0.76050  0.33720  0.20590  1.0000 0.0724041021
C   C21       1.0  0.76050  0.33720  0.79410  1.0000 0.0724041021
C   C22       1.0  0.26050  0.66280  0.70590  1.0000 0.0724041021
C   C23       1.0  0.73950  0.33720  0.70590  1.0000 0.0724041021
C   C24       1.0  0.23950  0.66280  0.79410  1.0000 0.0724041021
C   C25       1.0  0.25000  0.74400  0.25000  1.0000 0.128785648
C   C26       1.0  0.75000  0.25600  0.25000  1.0000 0.128785648
C   C27       1.0  0.75000  0.25600  0.75000  1.0000 0.128785648
C   C28       1.0  0.25000  0.74400  0.75000  1.0000 0.128785648
C   C29       1.0  0.14280  0.07190  0.39130  1.0000 0.0999659976
C   C30       1.0  0.64280  0.92810  0.10870  1.0000 0.0999659976
C   C31       1.0  0.35720  0.07190  0.10870  1.0000 0.0999659976
C   C32       1.0  0.85720  0.92810  0.39130  1.0000 0.0999659976
C   C33       1.0  0.85720  0.92810  0.60870  1.0000 0.0999659976
C   C34       1.0  0.35720  0.07190  0.89130  1.0000 0.0999659976
C   C35       1.0  0.64280  0.92810  0.89130  1.0000 0.0999659976
C   C36       1.0  0.14280  0.07190  0.60870  1.0000 0.0999659976
C   C37       1.0  0.14810  0.07500  0.44390  1.0000 -0.1965891191
C   C38       1.0  0.64810  0.92500  0.05610  1.0000 -0.1965891191
C   C39       1.0  0.35190  0.07500  0.05610  1.0000 -0.1965891191
C   C40       1.0  0.85190  0.92500  0.44390  1.0000 -0.1965891191
C   C41       1.0  0.85190  0.92500  0.55610  1.0000 -0.1965891191
C   C42       1.0  0.35190  0.07500  0.94390  1.0000 -0.1965891191
C   C43       1.0  0.64810  0.92500  0.94390  1.0000 -0.1965891191
C   C44       1.0  0.14810  0.07500  0.55610  1.0000 -0.1965891191
C   C45       1.0  0.00000  0.00000  0.47130  1.0000 0.1071104786
C   C46       1.0  0.50000  0.00000  0.02870  1.0000 0.1071104786
C   C47       1.0  0.00000  0.00000  0.52870  1.0000 0.1071104786
C   C48       1.0  0.50000  0.00000  0.97130  1.0000 0.1071104786
N   N1        1.0  0.00000  0.00000  0.36500  1.0000 -0.228463746
N   N2        1.0  0.50000  0.00000  0.13500  1.0000 -0.228463746
N   N3        1.0  0.00000  0.00000  0.63500  1.0000 -0.228463746
N   N4        1.0  0.50000  0.00000  0.86500  1.0000 -0.228463746
O   O1        1.0  0.16380  0.19580  0.28692  1.0000 -0.5490938121
O   O2        1.0  0.66380  0.80420  0.21308  1.0000 -0.5490938121
O   O3        1.0  0.33620  0.19580  0.21308  1.0000 -0.5490938121
O   O4        1.0  0.83620  0.80420  0.28692  1.0000 -0.5490938121
O   O5        1.0  0.83620  0.80420  0.71308  1.0000 -0.5490938121
O   O6        1.0  0.33620  0.19580  0.78692  1.0000 -0.5490938121
O   O7        1.0  0.66380  0.80420  0.78692  1.0000 -0.5490938121
O   O8        1.0  0.16380  0.19580  0.71308  1.0000 -0.5490938121
O   O9        1.0  0.25000  0.89490  0.25000  1.0000 -0.57154677
O   O10       1.0  0.75000  0.10510  0.25000  1.0000 -0.57154677
O   O11       1.0  0.75000  0.10510  0.75000  1.0000 -0.57154677
O   O12       1.0  0.25000  0.89490  0.75000  1.0000 -0.57154677
F   F1        1.0  0.23400  0.44120  0.15987  1.0000 -0.1108559402
F   F2        1.0  0.73400  0.55880  0.34013  1.0000 -0.1108559402
F   F3        1.0  0.26600  0.44120  0.34013  1.0000 -0.1108559402
F   F4        1.0  0.76600  0.55880  0.15987  1.0000 -0.1108559402
F   F5        1.0  0.76600  0.55880  0.84013  1.0000 -0.1108559402
F   F6        1.0  0.26600  0.44120  0.65987  1.0000 -0.1108559402
F   F7        1.0  0.73400  0.55880  0.65987  1.0000 -0.1108559402
F   F8        1.0  0.23400  0.44120  0.84013  1.0000 -0.1108559402
F   F9        1.0  0.22720  0.73460  0.16077  1.0000 -0.1108559402
F   F10       1.0  0.72720  0.26540  0.33923  1.0000 -0.1108559402
F   F11       1.0  0.27280  0.73460  0.33923  1.0000 -0.1108559402
F   F12       1.0  0.77280  0.26540  0.16077  1.0000 -0.1108559402
F   F13       1.0  0.77280  0.26540  0.83923  1.0000 -0.1108559402
F   F14       1.0  0.27280  0.73460  0.66077  1.0000 -0.1108559402
F   F15       1.0  0.72720  0.26540  0.66077  1.0000 -0.1108559402
F   F16       1.0  0.22720  0.73460  0.83923  1.0000 -0.1108559402
