# DDEC6 charges by PACMAN v1.1 (https://github.com/mtap-research/PACMAN-charge/)
data_2010[Zn][lvt]3[ASR]3
_chemical_formula_sum              "Zn4 H48 C80 N4 O16"
_cell_length_a       23.0653
_cell_length_b       23.0653
_cell_length_c       23.0653
_cell_angle_alpha    136.275
_cell_angle_beta     119.173
_cell_angle_gamma    77.8706

_symmetry_space_group_name_H-M    "P 1"
_symmetry_Int_Tables_number       1

loop_
  _symmetry_equiv_pos_as_xyz
  'x, y, z'

loop_
  _atom_site_type_symbol
  _atom_site_label
  _atom_site_symmetry_multiplicity
  _atom_site_fract_x
  _atom_site_fract_y
  _atom_site_fract_z
  _atom_site_occupancy
  _atom_site_charge
Zn  Zn1       1.0  0.46997  0.91172  0.44174  1.0000 0.9473823564
Zn  Zn2       1.0  0.03003  0.47177  0.44174  1.0000 0.9473823564
Zn  Zn3       1.0  0.96997  0.52823  0.55826  1.0000 0.9473823564
Zn  Zn4       1.0  0.53003  0.08829  0.55826  1.0000 0.9473823564
H   H1        1.0  0.61030  0.19380  0.84030  1.0000 0.1281263075
H   H2        1.0  0.88970  0.73000  0.58350  1.0000 0.1281263075
H   H3        1.0  0.85350  0.27000  0.15970  1.0000 0.1281263075
H   H4        1.0  0.64650  0.80620  0.41650  1.0000 0.1281263075
H   H5        1.0  0.38970  0.80620  0.15970  1.0000 0.1281263075
H   H6        1.0  0.11030  0.27000  0.41650  1.0000 0.1281263075
H   H7        1.0  0.14650  0.73000  0.84030  1.0000 0.1281263075
H   H8        1.0  0.35350  0.19380  0.58350  1.0000 0.1281263075
H   H9        1.0  0.64650  0.23320  0.97930  1.0000 0.1281263075
H   H10       1.0  0.85350  0.83280  0.58670  1.0000 0.1281263075
H   H11       1.0  0.75390  0.16720  0.02070  1.0000 0.1281263075
H   H12       1.0  0.74610  0.76680  0.41330  1.0000 0.1281263075
H   H13       1.0  0.35350  0.76680  0.02070  1.0000 0.1281263075
H   H14       1.0  0.14650  0.16720  0.41330  1.0000 0.1281263075
H   H15       1.0  0.24610  0.83280  0.97930  1.0000 0.1281263075
H   H16       1.0  0.25390  0.23320  0.58670  1.0000 0.1281263075
H   H17       1.0  0.57630  0.98940  0.82070  1.0000 0.1281263075
H   H18       1.0  0.92370  0.74440  0.41310  1.0000 0.1281263075
H   H19       1.0  0.66870  0.25560  0.17930  1.0000 0.1281263075
H   H20       1.0  0.83130  0.01060  0.58690  1.0000 0.1281263075
H   H21       1.0  0.42370  0.01060  0.17930  1.0000 0.1281263075
H   H22       1.0  0.07630  0.25560  0.58690  1.0000 0.1281263075
H   H23       1.0  0.33130  0.74440  0.82070  1.0000 0.1281263075
H   H24       1.0  0.16870  0.98940  0.41310  1.0000 0.1281263075
H   H25       1.0  0.53450  0.95190  0.68180  1.0000 0.1242371307
H   H26       1.0  0.96550  0.64730  0.41740  1.0000 0.1242371307
H   H27       1.0  0.77010  0.35270  0.31820  1.0000 0.1242371307
H   H28       1.0  0.72990  0.04810  0.58260  1.0000 0.1242371307
H   H29       1.0  0.46550  0.04810  0.31820  1.0000 0.1281263075
H   H30       1.0  0.03450  0.35270  0.58260  1.0000 0.1281263075
H   H31       1.0  0.22990  0.64730  0.68180  1.0000 0.1242371307
H   H32       1.0  0.27010  0.95190  0.41740  1.0000 0.1242371307
H   H33       1.0  0.67500  0.06780  0.05840  1.0000 0.1375549802
H   H34       1.0  0.82500  0.88340  0.39280  1.0000 0.1375549802
H   H35       1.0  0.50940  0.11660  0.94160  1.0000 0.1375549802
H   H36       1.0  0.99060  0.93220  0.60720  1.0000 0.1375549802
H   H37       1.0  0.32500  0.93220  0.94160  1.0000 0.1375549802
H   H38       1.0  0.17500  0.11660  0.60720  1.0000 0.1375549802
H   H39       1.0  0.49060  0.88340  0.05840  1.0000 0.1375549802
H   H40       1.0  0.00940  0.06780  0.39280  1.0000 0.1375549802
H   H41       1.0  0.61100  0.00950  0.06450  1.0000 0.112678137
H   H42       1.0  0.88900  0.95350  0.39850  1.0000 0.112678137
H   H43       1.0  0.44500  0.04650  0.93550  1.0000 0.112678137
H   H44       1.0  0.05500  0.99050  0.60150  1.0000 0.112678137
H   H45       1.0  0.38900  0.99050  0.93550  1.0000 0.112678137
H   H46       1.0  0.11100  0.04650  0.60150  1.0000 0.112678137
H   H47       1.0  0.55500  0.95350  0.06450  1.0000 0.112678137
H   H48       1.0  0.94500  0.00950  0.39850  1.0000 0.112678137
C   C1        1.0  0.54341  0.04350  0.65571  1.0000 0.5930751221
C   C2        1.0  0.95659  0.61230  0.50009  1.0000 0.5930751221
C   C3        1.0  0.88779  0.38770  0.34429  1.0000 0.5930751221
C   C4        1.0  0.61221  0.95650  0.49991  1.0000 0.5930751221
C   C5        1.0  0.45659  0.95650  0.34429  1.0000 0.5930751221
C   C6        1.0  0.04341  0.38770  0.49991  1.0000 0.5930751221
C   C7        1.0  0.11221  0.61230  0.65571  1.0000 0.5930751221
C   C8        1.0  0.38779  0.04350  0.50009  1.0000 0.5930751221
C   C9        1.0  0.59872  0.09872  0.00000  1.0000 0.147483583
C   C10       1.0  0.90128  0.90128  0.50000  1.0000 0.147483583
C   C11       1.0  0.40128  0.90128  0.00000  1.0000 0.147483583
C   C12       1.0  0.09872  0.09872  0.50000  1.0000 0.147483583
C   C13       1.0  0.60270  0.15249  0.83601  1.0000 -0.0716469823
C   C14       1.0  0.89730  0.73331  0.54979  1.0000 -0.0716469823
C   C15       1.0  0.81648  0.26669  0.16399  1.0000 -0.0716469823
C   C16       1.0  0.68352  0.84751  0.45021  1.0000 -0.0716469823
C   C17       1.0  0.39730  0.84751  0.16399  1.0000 -0.0716469823
C   C18       1.0  0.10270  0.26669  0.45021  1.0000 -0.0716469823
C   C19       1.0  0.18352  0.73331  0.83601  1.0000 -0.0716469823
C   C20       1.0  0.31648  0.15249  0.54979  1.0000 -0.0716469823
C   C21       1.0  0.62514  0.17611  0.91955  1.0000 -0.1922028657
C   C22       1.0  0.87486  0.79441  0.55097  1.0000 -0.1922028657
C   C23       1.0  0.75656  0.20559  0.08045  1.0000 -0.1922028657
C   C24       1.0  0.74344  0.82389  0.44903  1.0000 -0.1922028657
C   C25       1.0  0.37486  0.82389  0.08045  1.0000 -0.1922028657
C   C26       1.0  0.12514  0.20559  0.44903  1.0000 -0.1922028657
C   C27       1.0  0.24344  0.79441  0.91955  1.0000 -0.1922028657
C   C28       1.0  0.25656  0.17611  0.55097  1.0000 -0.1922028657
C   C29       1.0  0.58266  0.03132  0.82520  1.0000 -0.1922028657
C   C30       1.0  0.91734  0.74254  0.44866  1.0000 -0.1922028657
C   C31       1.0  0.70612  0.25746  0.17480  1.0000 -0.1922028657
C   C32       1.0  0.79388  0.96868  0.55134  1.0000 -0.1922028657
C   C33       1.0  0.41734  0.96868  0.17480  1.0000 -0.1922028657
C   C34       1.0  0.08266  0.25746  0.55134  1.0000 -0.1922028657
C   C35       1.0  0.29388  0.74254  0.82520  1.0000 -0.1922028657
C   C36       1.0  0.20612  0.03132  0.44866  1.0000 -0.1922028657
C   C37       1.0  0.55833  0.00837  0.74158  1.0000 -0.0716469823
C   C38       1.0  0.94167  0.68325  0.45004  1.0000 -0.0716469823
C   C39       1.0  0.76679  0.31675  0.25842  1.0000 -0.0716469823
C   C40       1.0  0.73321  0.99163  0.54996  1.0000 -0.0716469823
C   C41       1.0  0.44167  0.99163  0.25842  1.0000 -0.0716469823
C   C42       1.0  0.05833  0.31675  0.54996  1.0000 -0.0716469823
C   C43       1.0  0.23321  0.68325  0.74158  1.0000 -0.0716469823
C   C44       1.0  0.26679  0.00837  0.45004  1.0000 -0.0716469823
C   C45       1.0  0.61586  0.11459  0.91463  1.0000 0.1761903571
C   C46       1.0  0.88414  0.79877  0.49873  1.0000 0.1761903571
C   C47       1.0  0.69996  0.20123  0.08537  1.0000 0.1761903571
C   C48       1.0  0.80004  0.88541  0.50127  1.0000 0.1761903571
C   C49       1.0  0.38414  0.88541  0.08537  1.0000 0.1761903571
C   C50       1.0  0.11586  0.20123  0.50127  1.0000 0.1761903571
C   C51       1.0  0.30004  0.79877  0.91463  1.0000 0.1761903571
C   C52       1.0  0.19996  0.11459  0.49873  1.0000 0.1761903571
C   C53       1.0  0.62850  0.06578  0.03532  1.0000 -0.180194225
C   C54       1.0  0.87150  0.90682  0.43728  1.0000 -0.180194225
C   C55       1.0  0.53046  0.09318  0.96468  1.0000 -0.180194225
C   C56       1.0  0.96954  0.93422  0.56272  1.0000 -0.180194225
C   C57       1.0  0.37150  0.93422  0.96468  1.0000 -0.180194225
C   C58       1.0  0.12850  0.09318  0.56272  1.0000 -0.180194225
C   C59       1.0  0.46954  0.90682  0.03532  1.0000 -0.180194225
C   C60       1.0  0.03046  0.06578  0.43728  1.0000 -0.180194225
C   C61       1.0  0.58941  0.02912  0.03709  1.0000 -0.1478379412
C   C62       1.0  0.91059  0.94768  0.43971  1.0000 -0.1478379412
C   C63       1.0  0.49203  0.05232  0.96291  1.0000 -0.1478379412
C   C64       1.0  0.00797  0.97088  0.56029  1.0000 -0.1478379412
C   C65       1.0  0.41059  0.97088  0.96291  1.0000 -0.1478379412
C   C66       1.0  0.08941  0.05232  0.56029  1.0000 -0.1478379412
C   C67       1.0  0.50797  0.94768  0.03709  1.0000 -0.1478379412
C   C68       1.0  0.99203  0.02912  0.43971  1.0000 -0.1478379412
C   C69       1.0  0.52077  0.02077  0.00000  1.0000 0.0436454099
C   C70       1.0  0.97923  0.97923  0.50000  1.0000 0.0461070532
C   C71       1.0  0.47923  0.97923  0.00000  1.0000 0.0436454099
C   C72       1.0  0.02077  0.02077  0.50000  1.0000 0.0436454099
C   C73       1.0  0.56900  0.06814  0.74572  1.0000 -0.0716469823
C   C74       1.0  0.93100  0.67672  0.49914  1.0000 -0.0716469823
C   C75       1.0  0.82242  0.32328  0.25428  1.0000 -0.0716469823
C   C76       1.0  0.67758  0.93186  0.50086  1.0000 -0.0716469823
C   C77       1.0  0.43100  0.93186  0.25428  1.0000 -0.0716469823
C   C78       1.0  0.06900  0.32328  0.50086  1.0000 -0.0716469823
C   C79       1.0  0.17758  0.67672  0.74572  1.0000 -0.0716469823
C   C80       1.0  0.32242  0.06814  0.49914  1.0000 -0.0716469823
N   N1        1.0  0.63886  0.13886  0.00000  1.0000 -0.180194225
N   N2        1.0  0.86114  0.86114  0.50000  1.0000 -0.1735603654
N   N3        1.0  0.36114  0.86114  0.00000  1.0000 -0.1735603654
N   N4        1.0  0.13886  0.13886  0.50000  1.0000 -0.1735603654
O   O1        1.0  0.51110  0.96678  0.57680  1.0000 -0.5379152266
O   O2        1.0  0.98890  0.56570  0.45568  1.0000 -0.5379152266
O   O3        1.0  0.88998  0.43430  0.42320  1.0000 -0.5379152266
O   O4        1.0  0.61002  0.03322  0.54432  1.0000 -0.5379152266
O   O5        1.0  0.48890  0.03322  0.42320  1.0000 -0.5379152266
O   O6        1.0  0.01110  0.43430  0.54432  1.0000 -0.5379152266
O   O7        1.0  0.11002  0.56570  0.57680  1.0000 -0.5379152266
O   O8        1.0  0.38998  0.96678  0.45568  1.0000 -0.5379152266
O   O9        1.0  0.55707  0.10170  0.66593  1.0000 -0.5457468374
O   O10       1.0  0.94293  0.60886  0.54463  1.0000 -0.5457468374
O   O11       1.0  0.93577  0.39114  0.33407  1.0000 -0.5457468374
O   O12       1.0  0.56423  0.89830  0.45537  1.0000 -0.5457468374
O   O13       1.0  0.44293  0.89830  0.33407  1.0000 -0.5457468374
O   O14       1.0  0.05707  0.39114  0.45537  1.0000 -0.5457468374
O   O15       1.0  0.06423  0.60886  0.66593  1.0000 -0.5457468374
O   O16       1.0  0.43577  0.10170  0.54463  1.0000 -0.5457468374
