# DDEC6 charges by PACMAN v1.1 (https://github.com/mtap-research/PACMAN-charge/)
data_2010[La][flu]3[ASR]3
_chemical_formula_sum              "La2 H14 C30 O14"
_cell_length_a       9.48
_cell_length_b       9.968
_cell_length_c       11.255
_cell_angle_alpha    92.329
_cell_angle_beta     98.804
_cell_angle_gamma    110.796

_symmetry_space_group_name_H-M    "P 1"
_symmetry_Int_Tables_number       1

loop_
  _symmetry_equiv_pos_as_xyz
  'x, y, z'

loop_
  _atom_site_type_symbol
  _atom_site_label
  _atom_site_symmetry_multiplicity
  _atom_site_fract_x
  _atom_site_fract_y
  _atom_site_fract_z
  _atom_site_occupancy
  _atom_site_charge
La  La1       1.0  0.28370  0.04439  0.98478  1.0000 1.8705532387
La  La2       1.0  0.71630  0.95561  0.01522  1.0000 1.8705532387
H   H1        1.0  0.32400  0.49430  0.04220  1.0000 0.1410177981
H   H2        1.0  0.67600  0.50570  0.95780  1.0000 0.1410177981
H   H3        1.0  0.19720  0.78050  0.21640  1.0000 0.1410177981
H   H4        1.0  0.80280  0.21950  0.78360  1.0000 0.1410177981
H   H5        1.0  0.92020  0.36370  0.15900  1.0000 0.1410177981
H   H6        1.0  0.07980  0.63630  0.84100  1.0000 0.1410177981
H   H7        1.0  0.16310  0.58720  0.43040  1.0000 0.131561248
H   H8        1.0  0.83690  0.41280  0.56960  1.0000 0.131561248
H   H9        1.0  0.25050  0.70930  0.62330  1.0000 0.1165380017
H   H10       1.0  0.74950  0.29070  0.37670  1.0000 0.1165380017
H   H11       1.0  0.93880  0.89620  0.56580  1.0000 0.1165380017
H   H12       1.0  0.06120  0.10380  0.43420  1.0000 0.1165380017
H   H13       1.0  0.84920  0.77440  0.37290  1.0000 0.1512486399
H   H14       1.0  0.15080  0.22560  0.62710  1.0000 0.1512486399
C   C1        1.0  0.07600  0.25630  0.02950  1.0000 0.6199191049
C   C2        1.0  0.92400  0.74370  0.97050  1.0000 0.6199191049
C   C3        1.0  0.11480  0.40650  0.08800  1.0000 -0.0109106863
C   C4        1.0  0.88520  0.59350  0.91200  1.0000 -0.0109106863
C   C5        1.0  0.25230  0.51510  0.07980  1.0000 -0.1297357991
C   C6        1.0  0.74770  0.48490  0.92020  1.0000 -0.1297357991
C   C7        1.0  0.28250  0.65530  0.12790  1.0000 -0.0109106863
C   C8        1.0  0.71750  0.34470  0.87210  1.0000 -0.0109106863
C   C9        1.0  0.42680  0.77230  0.10880  1.0000 0.5997184352
C   C10       1.0  0.57320  0.22770  0.89120  1.0000 0.5997184352
C   C11       1.0  0.17910  0.68600  0.18770  1.0000 -0.215295659
C   C12       1.0  0.82090  0.31400  0.81230  1.0000 -0.215295659
C   C13       1.0  0.04830  0.57470  0.20470  1.0000 0.2335638836
C   C14       1.0  0.95170  0.42530  0.79530  1.0000 0.2335638836
C   C15       1.0  0.01200  0.43630  0.15200  1.0000 -0.192709954
C   C16       1.0  0.98800  0.56370  0.84800  1.0000 -0.192709954
C   C17       1.0  0.00060  0.67230  0.38260  1.0000 0.2520885751
C   C18       1.0  0.99940  0.32770  0.61740  1.0000 0.2520885751
C   C19       1.0  0.11910  0.65000  0.45700  1.0000 -0.2273166641
C   C20       1.0  0.88090  0.35000  0.54300  1.0000 -0.2273166641
C   C21       1.0  0.17100  0.72330  0.57230  1.0000 -0.0719952449
C   C22       1.0  0.82900  0.27670  0.42770  1.0000 -0.0719952449
C   C23       1.0  0.10520  0.81750  0.61240  1.0000 -0.03741941
C   C24       1.0  0.89480  0.18250  0.38760  1.0000 -0.03741941
C   C25       1.0  0.16850  0.90360  0.73540  1.0000 0.5535694793
C   C26       1.0  0.83150  0.09640  0.26460  1.0000 0.5535694793
C   C27       1.0  0.98450  0.83530  0.53830  1.0000 -0.0827590875
C   C28       1.0  0.01550  0.16470  0.46170  1.0000 -0.0827590875
C   C29       1.0  0.93080  0.76270  0.42280  1.0000 -0.192709954
C   C30       1.0  0.06920  0.23730  0.57720  1.0000 -0.192709954
O   O1        1.0  0.18220  0.23380  0.98430  1.0000 -0.6232710048
O   O2        1.0  0.81780  0.76620  0.01570  1.0000 -0.6232710048
O   O3        1.0  0.94810  0.16510  0.02710  1.0000 -0.6123409435
O   O4        1.0  0.05190  0.83490  0.97290  1.0000 -0.6123409435
O   O5        1.0  0.54940  0.74840  0.12020  1.0000 -0.5654465124
O   O6        1.0  0.45060  0.25160  0.87980  1.0000 -0.5645986959
O   O7        1.0  0.42310  0.89430  0.08050  1.0000 -0.6866167947
O   O8        1.0  0.57690  0.10570  0.91950  1.0000 -0.6866167947
O   O9        1.0  0.94330  0.60250  0.26640  1.0000 -0.2143789693
O   O10       1.0  0.05670  0.39750  0.73360  1.0000 -0.2143789693
O   O11       1.0  0.27810  0.88240  0.80240  1.0000 -0.6123409435
O   O12       1.0  0.72190  0.11760  0.19760  1.0000 -0.6123409435
O   O13       1.0  0.11320  0.99320  0.76800  1.0000 -0.5826175972
O   O14       1.0  0.88680  0.00680  0.23200  1.0000 -0.5826175972
