# DDEC6 charges by PACMAN v1.1 (https://github.com/mtap-research/PACMAN-charge/)
data_2010[Ag][nan]3[ASR]2
_chemical_formula_sum              "Ag4 H80 C40 S4 N20 O12"
_cell_length_a       6.3902
_cell_length_b       31.1619
_cell_length_c       11.9635
_cell_angle_alpha    90
_cell_angle_beta     118.437
_cell_angle_gamma    90

_symmetry_space_group_name_H-M    "P 1"
_symmetry_Int_Tables_number       1

loop_
  _symmetry_equiv_pos_as_xyz
  'x, y, z'

loop_
  _atom_site_type_symbol
  _atom_site_label
  _atom_site_symmetry_multiplicity
  _atom_site_fract_x
  _atom_site_fract_y
  _atom_site_fract_z
  _atom_site_occupancy
  _atom_site_charge
Ag  Ag1       1.0  0.72124  0.24833  0.58536  1.0000 0.3239132634
Ag  Ag2       1.0  0.27876  0.74833  0.91464  1.0000 0.3239132634
Ag  Ag3       1.0  0.27876  0.75167  0.41464  1.0000 0.3239132634
Ag  Ag4       1.0  0.72124  0.25167  0.08536  1.0000 0.3239132634
H   H1        1.0  0.03870  0.16440  0.24170  1.0000 0.1107808445
H   H2        1.0  0.96130  0.66440  0.25830  1.0000 0.1107808445
H   H3        1.0  0.96130  0.83560  0.75830  1.0000 0.1107808445
H   H4        1.0  0.03870  0.33560  0.74170  1.0000 0.1107808445
H   H5        1.0  0.79440  0.16220  0.24850  1.0000 0.1107808445
H   H6        1.0  0.20560  0.66220  0.25150  1.0000 0.1107808445
H   H7        1.0  0.20560  0.83780  0.75150  1.0000 0.1107808445
H   H8        1.0  0.79440  0.33780  0.74850  1.0000 0.1107808445
H   H9        1.0  0.41850  0.16510  0.56960  1.0000 0.1107808445
H   H10       1.0  0.58150  0.66510  0.93040  1.0000 0.1107808445
H   H11       1.0  0.58150  0.83490  0.43040  1.0000 0.1107808445
H   H12       1.0  0.41850  0.33490  0.06960  1.0000 0.1107808445
H   H13       1.0  0.41240  0.16610  0.43430  1.0000 0.0882145113
H   H14       1.0  0.58760  0.66610  0.06570  1.0000 0.0882145113
H   H15       1.0  0.58760  0.83390  0.56570  1.0000 0.0882145113
H   H16       1.0  0.41240  0.33390  0.93430  1.0000 0.0882145113
H   H17       1.0  0.80430  0.16120  0.45460  1.0000 0.0882145113
H   H18       1.0  0.19570  0.66120  0.04540  1.0000 0.0882145113
H   H19       1.0  0.19570  0.83880  0.54540  1.0000 0.0882145113
H   H20       1.0  0.80430  0.33880  0.95460  1.0000 0.0882145113
H   H21       1.0  0.05500  0.16260  0.58200  1.0000 0.1165640748
H   H22       1.0  0.94500  0.66260  0.91800  1.0000 0.1165640748
H   H23       1.0  0.94500  0.83740  0.41800  1.0000 0.1165640748
H   H24       1.0  0.05500  0.33740  0.08200  1.0000 0.1165640748
H   H25       1.0  0.27420  0.22910  0.30180  1.0000 0.0882145113
H   H26       1.0  0.72580  0.72910  0.19820  1.0000 0.0882145113
H   H27       1.0  0.72580  0.77090  0.69820  1.0000 0.0882145113
H   H28       1.0  0.27420  0.27090  0.80180  1.0000 0.0882145113
H   H29       1.0  0.18860  0.27050  0.34840  1.0000 0.1107808445
H   H30       1.0  0.81140  0.77050  0.15160  1.0000 0.1107808445
H   H31       1.0  0.81140  0.72950  0.65160  1.0000 0.1107808445
H   H32       1.0  0.18860  0.22950  0.84840  1.0000 0.1107808445
H   H33       1.0  0.19400  0.26960  0.55370  1.0000 0.1107808445
H   H34       1.0  0.80600  0.76960  0.94630  1.0000 0.1107808445
H   H35       1.0  0.80600  0.73040  0.44630  1.0000 0.1107808445
H   H36       1.0  0.19400  0.23040  0.05370  1.0000 0.1107808445
H   H37       1.0  0.28790  0.22790  0.64250  1.0000 0.0989340443
H   H38       1.0  0.71210  0.72790  0.85750  1.0000 0.0989340443
H   H39       1.0  0.71210  0.77210  0.35750  1.0000 0.0989340443
H   H40       1.0  0.28790  0.27210  0.14250  1.0000 0.0989340443
H   H41       1.0  0.81600  0.26750  0.36000  1.0000 0.1165640748
H   H42       1.0  0.18400  0.76750  0.14000  1.0000 0.1165640748
H   H43       1.0  0.18400  0.73250  0.64000  1.0000 0.1165640748
H   H44       1.0  0.81600  0.23250  0.86000  1.0000 0.1165640748
H   H45       1.0  0.66110  0.22440  0.32000  1.0000 0.0882145113
H   H46       1.0  0.33890  0.72440  0.18000  1.0000 0.0882145113
H   H47       1.0  0.33890  0.77560  0.68000  1.0000 0.0882145113
H   H48       1.0  0.66110  0.27560  0.82000  1.0000 0.0882145113
H   H49       1.0  0.61630  0.40770  0.54490  1.0000 0.1278551912
H   H50       1.0  0.38370  0.90770  0.95510  1.0000 0.1278551912
H   H51       1.0  0.38370  0.59230  0.45510  1.0000 0.1278551912
H   H52       1.0  0.61630  0.09230  0.04490  1.0000 0.1278551912
H   H53       1.0  0.46920  0.42160  0.39890  1.0000 0.1278551912
H   H54       1.0  0.53080  0.92160  0.10110  1.0000 0.1278551912
H   H55       1.0  0.53080  0.57840  0.60110  1.0000 0.1278551912
H   H56       1.0  0.46920  0.07840  0.89890  1.0000 0.1278551912
H   H57       1.0  0.80700  0.41320  0.37120  1.0000 0.0989340443
H   H58       1.0  0.19300  0.91320  0.12880  1.0000 0.0989340443
H   H59       1.0  0.19300  0.58680  0.62880  1.0000 0.0989340443
H   H60       1.0  0.80700  0.08680  0.87120  1.0000 0.0989340443
H   H61       1.0  0.95560  0.39380  0.51130  1.0000 0.1107808445
H   H62       1.0  0.04440  0.89380  0.98870  1.0000 0.1107808445
H   H63       1.0  0.04440  0.60620  0.48870  1.0000 0.1107808445
H   H64       1.0  0.95560  0.10620  0.01130  1.0000 0.1107808445
H   H65       1.0  0.26130  0.44280  0.58790  1.0000 0.1107808445
H   H66       1.0  0.73870  0.94280  0.91210  1.0000 0.1107808445
H   H67       1.0  0.73870  0.55720  0.41210  1.0000 0.1107808445
H   H68       1.0  0.26130  0.05720  0.08790  1.0000 0.1107808445
H   H69       1.0  0.15320  0.46080  0.44560  1.0000 0.0989340443
H   H70       1.0  0.84680  0.96080  0.05440  1.0000 0.0989340443
H   H71       1.0  0.84680  0.53920  0.55440  1.0000 0.0989340443
H   H72       1.0  0.15320  0.03920  0.94560  1.0000 0.0989340443
H   H73       1.0  0.75120  0.48730  0.33740  1.0000 0.0989340443
H   H74       1.0  0.24880  0.98730  0.16260  1.0000 0.0989340443
H   H75       1.0  0.24880  0.51270  0.66260  1.0000 0.0989340443
H   H76       1.0  0.75120  0.01270  0.83740  1.0000 0.0989340443
H   H77       1.0  0.59200  0.48750  0.40810  1.0000 0.1107808445
H   H78       1.0  0.40800  0.98750  0.09190  1.0000 0.1107808445
H   H79       1.0  0.40800  0.51250  0.59190  1.0000 0.1107808445
H   H80       1.0  0.59200  0.01250  0.90810  1.0000 0.1107808445
C   C1        1.0  0.95760  0.17417  0.28990  1.0000 -0.0311425655
C   C2        1.0  0.04240  0.67417  0.21010  1.0000 -0.0311425655
C   C3        1.0  0.04240  0.82583  0.71010  1.0000 -0.0311425655
C   C4        1.0  0.95760  0.32583  0.78990  1.0000 -0.0311425655
C   C5        1.0  0.32940  0.17603  0.48150  1.0000 -0.0311425655
C   C6        1.0  0.67060  0.67603  0.01850  1.0000 -0.0311425655
C   C7        1.0  0.67060  0.82397  0.51850  1.0000 -0.0311425655
C   C8        1.0  0.32940  0.32397  0.98150  1.0000 -0.0311425655
C   C9        1.0  0.96720  0.17325  0.49350  1.0000 -0.0311425655
C   C10       1.0  0.03280  0.67325  0.00650  1.0000 -0.0311425655
C   C11       1.0  0.03280  0.82675  0.50650  1.0000 -0.0311425655
C   C12       1.0  0.96720  0.32675  0.99350  1.0000 -0.0311425655
C   C13       1.0  0.19250  0.23877  0.34990  1.0000 -0.0462992866
C   C14       1.0  0.80750  0.73877  0.15010  1.0000 -0.0462992866
C   C15       1.0  0.80750  0.76123  0.65010  1.0000 -0.0462992866
C   C16       1.0  0.19250  0.26123  0.84990  1.0000 -0.0462992866
C   C17       1.0  0.19970  0.23781  0.55320  1.0000 -0.040419723
C   C18       1.0  0.80030  0.73781  0.94680  1.0000 -0.040419723
C   C19       1.0  0.80030  0.76219  0.44680  1.0000 -0.040419723
C   C20       1.0  0.19970  0.26219  0.05320  1.0000 -0.040419723
C   C21       1.0  0.82550  0.23582  0.36090  1.0000 -0.040419723
C   C22       1.0  0.17450  0.73582  0.13910  1.0000 -0.0462992866
C   C23       1.0  0.17450  0.76418  0.63910  1.0000 -0.0462992866
C   C24       1.0  0.82550  0.26418  0.86090  1.0000 -0.040419723
C   C25       1.0  0.59830  0.40274  0.45900  1.0000 -0.4246279278
C   C26       1.0  0.40170  0.90274  0.04100  1.0000 -0.4246279278
C   C27       1.0  0.40170  0.59726  0.54100  1.0000 -0.4246279278
C   C28       1.0  0.59830  0.09726  0.95900  1.0000 -0.4246279278
C   C29       1.0  0.83070  0.41479  0.45910  1.0000 -0.0680479107
C   C30       1.0  0.16930  0.91479  0.04090  1.0000 -0.0680479107
C   C31       1.0  0.16930  0.58521  0.54090  1.0000 -0.0680479107
C   C32       1.0  0.83070  0.08521  0.95910  1.0000 -0.0680479107
C   C33       1.0  0.15330  0.46459  0.52780  1.0000 -0.1280130118
C   C34       1.0  0.84670  0.96459  0.97220  1.0000 -0.1280130118
C   C35       1.0  0.84670  0.53541  0.47220  1.0000 -0.1280130118
C   C36       1.0  0.15330  0.03541  0.02780  1.0000 -0.1280130118
C   C37       1.0  0.75590  0.49094  0.42080  1.0000 -0.1280130118
C   C38       1.0  0.24410  0.99094  0.07920  1.0000 -0.1280130118
C   C39       1.0  0.24410  0.50906  0.57920  1.0000 -0.1280130118
C   C40       1.0  0.75590  0.00906  0.92080  1.0000 -0.1280130118
S   S1        1.0  0.51677  0.34865  0.41552  1.0000 1.2069111636
S   S2        1.0  0.48323  0.84865  0.08448  1.0000 1.2069111636
S   S3        1.0  0.48323  0.65135  0.58448  1.0000 1.2069111636
S   S4        1.0  0.51677  0.15135  0.91552  1.0000 1.2069111636
N   N1        1.0  0.95360  0.22064  0.49440  1.0000 -0.1506885294
N   N2        1.0  0.04640  0.72064  0.00560  1.0000 -0.1506885294
N   N3        1.0  0.04640  0.77936  0.50560  1.0000 -0.1506885294
N   N4        1.0  0.95360  0.27936  0.99440  1.0000 -0.1506885294
N   N5        1.0  0.08800  0.15842  0.42160  1.0000 -0.155652968
N   N6        1.0  0.91200  0.65842  0.07840  1.0000 -0.155652968
N   N7        1.0  0.91200  0.84158  0.57840  1.0000 -0.155652968
N   N8        1.0  0.08800  0.34158  0.92160  1.0000 -0.155652968
N   N9        1.0  0.94520  0.22205  0.28740  1.0000 -0.1506885294
N   N10       1.0  0.05480  0.72205  0.21260  1.0000 -0.1506885294
N   N11       1.0  0.05480  0.77795  0.71260  1.0000 -0.1506885294
N   N12       1.0  0.94520  0.27795  0.78740  1.0000 -0.1506885294
N   N13       1.0  0.32850  0.22375  0.48370  1.0000 -0.1506885294
N   N14       1.0  0.67150  0.72375  0.01630  1.0000 -0.1506885294
N   N15       1.0  0.67150  0.77625  0.51630  1.0000 -0.1506885294
N   N16       1.0  0.32850  0.27625  0.98370  1.0000 -0.1506885294
N   N17       1.0  0.91090  0.45794  0.50950  1.0000 -0.1013881991
N   N18       1.0  0.08910  0.95794  0.99050  1.0000 -0.1013881991
N   N19       1.0  0.08910  0.54206  0.49050  1.0000 -0.1013881991
N   N20       1.0  0.91090  0.04206  0.00950  1.0000 -0.1013881991
O   O1        1.0  0.71890  0.32226  0.50060  1.0000 -0.6501453796
O   O2        1.0  0.28110  0.82226  0.99940  1.0000 -0.6501453796
O   O3        1.0  0.28110  0.67774  0.49940  1.0000 -0.6501453796
O   O4        1.0  0.71890  0.17774  0.00060  1.0000 -0.6501453796
O   O5        1.0  0.46280  0.34385  0.28320  1.0000 -0.6615218648
O   O6        1.0  0.53720  0.84385  0.21680  1.0000 -0.6615218648
O   O7        1.0  0.53720  0.65615  0.71680  1.0000 -0.6615218648
O   O8        1.0  0.46280  0.15615  0.78320  1.0000 -0.6615218648
O   O9        1.0  0.30590  0.34186  0.43230  1.0000 -0.6615218648
O   O10       1.0  0.69410  0.84186  0.06770  1.0000 -0.6615218648
O   O11       1.0  0.69410  0.65814  0.56770  1.0000 -0.6615218648
O   O12       1.0  0.30590  0.15814  0.93230  1.0000 -0.6615218648
