# DDEC6 charges by PACMAN v1.1 (https://github.com/mtap-research/PACMAN-charge/)
data_2010[Zn][lvt]3[ASR]2
_chemical_formula_sum              "Zn4 H48 C80 N4 O16"
_cell_length_a       22.7803
_cell_length_b       22.7803
_cell_length_c       22.7803
_cell_angle_alpha    131.168
_cell_angle_beta     119.608
_cell_angle_gamma    81.2379

_symmetry_space_group_name_H-M    "P 1"
_symmetry_Int_Tables_number       1

loop_
  _symmetry_equiv_pos_as_xyz
  'x, y, z'

loop_
  _atom_site_type_symbol
  _atom_site_label
  _atom_site_symmetry_multiplicity
  _atom_site_fract_x
  _atom_site_fract_y
  _atom_site_fract_z
  _atom_site_occupancy
  _atom_site_charge
Zn  Zn1       1.0  0.03354  0.98557  0.95203  1.0000 0.9525528022
Zn  Zn2       1.0  0.46646  0.41849  0.95203  1.0000 0.9525528022
Zn  Zn3       1.0  0.53354  0.58151  0.04797  1.0000 0.9525528022
Zn  Zn4       1.0  0.96646  0.01443  0.04797  1.0000 0.9525528022
H   H1        1.0  0.88360  0.21560  0.07900  1.0000 0.1285606613
H   H2        1.0  0.61640  0.69540  0.33200  1.0000 0.1285606613
H   H3        1.0  0.63660  0.30460  0.92100  1.0000 0.1285606613
H   H4        1.0  0.86340  0.78440  0.66800  1.0000 0.1285606613
H   H5        1.0  0.11640  0.78440  0.92100  1.0000 0.1285606613
H   H6        1.0  0.38360  0.30460  0.66800  1.0000 0.1285606613
H   H7        1.0  0.36340  0.69540  0.07900  1.0000 0.1285606613
H   H8        1.0  0.13660  0.21560  0.33200  1.0000 0.1285606613
H   H9        1.0  0.91490  0.24950  0.91900  1.0000 0.1285606613
H   H10       1.0  0.58510  0.50410  0.33460  1.0000 0.1285606613
H   H11       1.0  0.83050  0.49590  0.08100  1.0000 0.1285606613
H   H12       1.0  0.66950  0.75050  0.66540  1.0000 0.1285606613
H   H13       1.0  0.08510  0.75050  0.08100  1.0000 0.1285606613
H   H14       1.0  0.41490  0.49590  0.66540  1.0000 0.1285606613
H   H15       1.0  0.16950  0.50410  0.91900  1.0000 0.1285606613
H   H16       1.0  0.33050  0.24950  0.33460  1.0000 0.1285606613
H   H17       1.0  0.95640  0.15380  0.92540  1.0000 0.1285606613
H   H18       1.0  0.54360  0.46900  0.19740  1.0000 0.1285606613
H   H19       1.0  0.72840  0.53100  0.07460  1.0000 0.1285606613
H   H20       1.0  0.77160  0.84620  0.80260  1.0000 0.1285606613
H   H21       1.0  0.04360  0.84620  0.07460  1.0000 0.1285606613
H   H22       1.0  0.45640  0.53100  0.80260  1.0000 0.1285606613
H   H23       1.0  0.27160  0.46900  0.92540  1.0000 0.1285606613
H   H24       1.0  0.22840  0.15380  0.19740  1.0000 0.1285606613
H   H25       1.0  0.84900  0.31520  0.07920  1.0000 0.1285606613
H   H26       1.0  0.65100  0.73020  0.46620  1.0000 0.1285606613
H   H27       1.0  0.73600  0.26980  0.92080  1.0000 0.1285606613
H   H28       1.0  0.76400  0.68480  0.53380  1.0000 0.1285606613
H   H29       1.0  0.15100  0.68480  0.92080  1.0000 0.1285606613
H   H30       1.0  0.34900  0.26980  0.53380  1.0000 0.1285606613
H   H31       1.0  0.26400  0.73020  0.07920  1.0000 0.1285606613
H   H32       1.0  0.23600  0.31520  0.46620  1.0000 0.1285606613
H   H33       1.0  0.05600  0.49070  0.10190  1.0000 0.1100014693
H   H34       1.0  0.44400  0.54590  0.43470  1.0000 0.1100014693
H   H35       1.0  0.88880  0.45410  0.89810  1.0000 0.1100014693
H   H36       1.0  0.61120  0.50930  0.56530  1.0000 0.1100014693
H   H37       1.0  0.94400  0.50930  0.89810  1.0000 0.1100014693
H   H38       1.0  0.55600  0.45410  0.56530  1.0000 0.1100014693
H   H39       1.0  0.11120  0.54590  0.10190  1.0000 0.1100014693
H   H40       1.0  0.38880  0.49070  0.43470  1.0000 0.1100014693
H   H41       1.0  0.98800  0.43190  0.10970  1.0000 0.1285606613
H   H42       1.0  0.51200  0.62170  0.44390  1.0000 0.1285606613
H   H43       1.0  0.82220  0.37830  0.89030  1.0000 0.1285606613
H   H44       1.0  0.67780  0.56810  0.55610  1.0000 0.1285606613
H   H45       1.0  0.01200  0.56810  0.89030  1.0000 0.1285606613
H   H46       1.0  0.48800  0.37830  0.55610  1.0000 0.1285606613
H   H47       1.0  0.17780  0.62170  0.10970  1.0000 0.1285606613
H   H48       1.0  0.32220  0.43190  0.44390  1.0000 0.1285606613
C   C1        1.0  0.89102  0.22232  0.04690  1.0000 -0.0735109529
C   C2        1.0  0.60898  0.65588  0.33130  1.0000 -0.0735109529
C   C3        1.0  0.67542  0.34412  0.95310  1.0000 -0.0735109529
C   C4        1.0  0.82458  0.77768  0.66870  1.0000 -0.0735109529
C   C5        1.0  0.10898  0.77768  0.95310  1.0000 -0.0735109529
C   C6        1.0  0.39102  0.34412  0.66870  1.0000 -0.0735109529
C   C7        1.0  0.32458  0.65588  0.04690  1.0000 -0.0735109529
C   C8        1.0  0.17542  0.22232  0.33130  1.0000 -0.0735109529
C   C9        1.0  0.90911  0.24411  0.95300  1.0000 -0.1982662361
C   C10       1.0  0.59089  0.54389  0.33500  1.0000 -0.205403287
C   C11       1.0  0.79111  0.45611  0.04700  1.0000 -0.205403287
C   C12       1.0  0.70889  0.75589  0.66500  1.0000 -0.205403287
C   C13       1.0  0.09089  0.75589  0.04700  1.0000 -0.205403287
C   C14       1.0  0.40911  0.45611  0.66500  1.0000 -0.205403287
C   C15       1.0  0.20889  0.54389  0.95300  1.0000 -0.205403287
C   C16       1.0  0.29111  0.24411  0.33500  1.0000 -0.205403287
C   C17       1.0  0.94797  0.11147  0.00230  1.0000 0.5943919861
C   C18       1.0  0.55203  0.55433  0.16350  1.0000 0.5943919861
C   C19       1.0  0.60917  0.44567  0.99770  1.0000 0.5943919861
C   C20       1.0  0.89083  0.88853  0.83650  1.0000 0.5943919861
C   C21       1.0  0.05203  0.88853  0.99770  1.0000 0.5943919861
C   C22       1.0  0.44797  0.44567  0.83650  1.0000 0.5943919861
C   C23       1.0  0.39083  0.55433  0.00230  1.0000 0.5943919861
C   C24       1.0  0.10917  0.11147  0.16350  1.0000 0.5943919861
C   C25       1.0  0.87677  0.29447  0.00010  1.0000 0.1660274038
C   C26       1.0  0.62323  0.62333  0.41770  1.0000 0.1660274038
C   C27       1.0  0.79437  0.37667  0.99990  1.0000 0.1660274038
C   C28       1.0  0.70563  0.70553  0.58230  1.0000 0.1660274038
C   C29       1.0  0.12323  0.70553  0.99990  1.0000 0.1660274038
C   C30       1.0  0.37677  0.37667  0.58230  1.0000 0.1660274038
C   C31       1.0  0.20563  0.62333  0.00010  1.0000 0.1660274038
C   C32       1.0  0.29437  0.29447  0.41770  1.0000 0.1660274038
C   C33       1.0  0.92278  0.17445  0.00133  1.0000 -0.0621165537
C   C34       1.0  0.57722  0.57855  0.25167  1.0000 -0.0621165537
C   C35       1.0  0.67312  0.42145  0.99867  1.0000 -0.0621165537
C   C36       1.0  0.82688  0.82555  0.74833  1.0000 -0.0621165537
C   C37       1.0  0.07722  0.82555  0.99867  1.0000 -0.0621165537
C   C38       1.0  0.42278  0.42145  0.74833  1.0000 -0.0621165537
C   C39       1.0  0.32688  0.57855  0.00133  1.0000 -0.0621165537
C   C40       1.0  0.17312  0.17445  0.25167  1.0000 -0.0621165537
C   C41       1.0  0.93305  0.18555  0.95550  1.0000 -0.0735109529
C   C42       1.0  0.56695  0.52245  0.25250  1.0000 -0.0735109529
C   C43       1.0  0.73005  0.47755  0.04450  1.0000 -0.0735109529
C   C44       1.0  0.76995  0.81445  0.74750  1.0000 -0.0735109529
C   C45       1.0  0.06695  0.81445  0.04450  1.0000 -0.0735109529
C   C46       1.0  0.43305  0.47755  0.74750  1.0000 -0.0735109529
C   C47       1.0  0.26995  0.52245  0.95550  1.0000 -0.0735109529
C   C48       1.0  0.23005  0.18555  0.25250  1.0000 -0.0735109529
C   C49       1.0  0.86968  0.28178  0.04570  1.0000 -0.1905174197
C   C50       1.0  0.63032  0.67602  0.41210  1.0000 -0.1905174197
C   C51       1.0  0.73608  0.32398  0.95430  1.0000 -0.1905174197
C   C52       1.0  0.76392  0.71822  0.58790  1.0000 -0.1905174197
C   C53       1.0  0.13032  0.71822  0.95430  1.0000 -0.1905174197
C   C54       1.0  0.36968  0.32398  0.58790  1.0000 -0.1905174197
C   C55       1.0  0.26392  0.67602  0.04570  1.0000 -0.1905174197
C   C56       1.0  0.23608  0.28178  0.41210  1.0000 -0.1905174197
C   C57       1.0  0.97880  0.47880  0.00000  1.0000 0.0554576436
C   C58       1.0  0.52120  0.52120  0.50000  1.0000 0.0554576436
C   C59       1.0  0.02120  0.52120  0.00000  1.0000 0.0554576436
C   C60       1.0  0.47880  0.47880  0.50000  1.0000 0.0554576436
C   C61       1.0  0.89670  0.39670  0.00000  1.0000 0.1629730494
C   C62       1.0  0.60330  0.60330  0.50000  1.0000 0.1629730494
C   C63       1.0  0.10330  0.60330  0.00000  1.0000 0.1629730494
C   C64       1.0  0.39670  0.39670  0.50000  1.0000 0.1629730494
C   C65       1.0  0.00780  0.47090  0.06050  1.0000 -0.1454905451
C   C66       1.0  0.49220  0.55270  0.46310  1.0000 -0.1454905451
C   C67       1.0  0.91040  0.44730  0.93950  1.0000 -0.1445912352
C   C68       1.0  0.58960  0.52910  0.53690  1.0000 -0.1454905451
C   C69       1.0  0.99220  0.52910  0.93950  1.0000 -0.1445912352
C   C70       1.0  0.50780  0.44730  0.53690  1.0000 -0.1454905451
C   C71       1.0  0.08960  0.55270  0.06050  1.0000 -0.1454905451
C   C72       1.0  0.41040  0.47090  0.46310  1.0000 -0.1454905451
C   C73       1.0  0.96660  0.43250  0.06330  1.0000 -0.1905174197
C   C74       1.0  0.53340  0.59670  0.46590  1.0000 -0.1982662361
C   C75       1.0  0.86920  0.40330  0.93670  1.0000 -0.1905174197
C   C76       1.0  0.63080  0.56750  0.53410  1.0000 -0.1982662361
C   C77       1.0  0.03340  0.56750  0.93670  1.0000 -0.1905174197
C   C78       1.0  0.46660  0.40330  0.53410  1.0000 -0.1905174197
C   C79       1.0  0.13080  0.59670  0.06330  1.0000 -0.1905174197
C   C80       1.0  0.36920  0.43250  0.46590  1.0000 -0.1905174197
N   N1        1.0  0.85600  0.35600  0.00000  1.0000 -0.1706606715
N   N2        1.0  0.64400  0.64400  0.50000  1.0000 -0.1706606715
N   N3        1.0  0.14400  0.64400  0.00000  1.0000 -0.1706606715
N   N4        1.0  0.35600  0.35600  0.50000  1.0000 -0.1706606715
O   O1        1.0  0.98205  0.07361  0.96306  1.0000 -0.549880535
O   O2        1.0  0.51795  0.48101  0.09156  1.0000 -0.549880535
O   O3        1.0  0.61055  0.51899  0.03694  1.0000 -0.549880535
O   O4        1.0  0.88945  0.92639  0.90844  1.0000 -0.549880535
O   O5        1.0  0.01795  0.92639  0.03694  1.0000 -0.549880535
O   O6        1.0  0.48205  0.51899  0.90844  1.0000 -0.549880535
O   O7        1.0  0.38945  0.48101  0.96306  1.0000 -0.549880535
O   O8        1.0  0.11055  0.07361  0.09156  1.0000 -0.549880535
O   O9        1.0  0.93338  0.09800  0.03942  1.0000 -0.5216176665
O   O10       1.0  0.56662  0.60604  0.16462  1.0000 -0.5216176665
O   O11       1.0  0.55858  0.39396  0.96058  1.0000 -0.5216176665
O   O12       1.0  0.94142  0.90200  0.83538  1.0000 -0.5216176665
O   O13       1.0  0.06662  0.90200  0.96058  1.0000 -0.5216176665
O   O14       1.0  0.43338  0.39396  0.83538  1.0000 -0.5216176665
O   O15       1.0  0.44142  0.60604  0.03942  1.0000 -0.5216176665
O   O16       1.0  0.05858  0.09800  0.16462  1.0000 -0.5216176665
