# DDEC6 charges by PACMAN v1.1 (https://github.com/mtap-research/PACMAN-charge/)
data_2010[Mn][pcu]3[ASR]1
_chemical_formula_sum              "Mn6 H80 C150 N8 O24 F36"
_cell_length_a       19.7598
_cell_length_b       19.7598
_cell_length_c       26.4313
_cell_angle_alpha    55.1455
_cell_angle_beta     124.854
_cell_angle_gamma    139.609

_symmetry_space_group_name_H-M    "P 1"
_symmetry_Int_Tables_number       1

loop_
  _symmetry_equiv_pos_as_xyz
  'x, y, z'

loop_
  _atom_site_type_symbol
  _atom_site_label
  _atom_site_symmetry_multiplicity
  _atom_site_fract_x
  _atom_site_fract_y
  _atom_site_fract_z
  _atom_site_occupancy
  _atom_site_charge
Mn  Mn1       1.0  0.00000  0.50000  0.00000  1.0000 1.0726356412
Mn  Mn2       1.0  0.50000  0.00000  0.50000  1.0000 1.0726356412
Mn  Mn3       1.0  0.71151  0.28511  0.97359  1.0000 0.8474957551
Mn  Mn4       1.0  0.28511  0.71151  0.52641  1.0000 0.8474957551
Mn  Mn5       1.0  0.28849  0.71489  0.02641  1.0000 0.8474957551
Mn  Mn6       1.0  0.71489  0.28849  0.47359  1.0000 0.8474957551
H   H1        1.0  0.70570  0.12910  0.89750  1.0000 0.1186780816
H   H2        1.0  0.12910  0.70570  0.60250  1.0000 0.1186780816
H   H3        1.0  0.29430  0.87090  0.10250  1.0000 0.1186780816
H   H4        1.0  0.87090  0.29430  0.39750  1.0000 0.1186780816
H   H5        1.0  0.72970  0.06310  0.86610  1.0000 0.1186780816
H   H6        1.0  0.06310  0.72970  0.63390  1.0000 0.1186780816
H   H7        1.0  0.27030  0.93690  0.13390  1.0000 0.1186780816
H   H8        1.0  0.93690  0.27030  0.36610  1.0000 0.1186780816
H   H9        1.0  0.04680  0.26460  0.93900  1.0000 0.1186780816
H   H10       1.0  0.26460  0.04680  0.56100  1.0000 0.1186780816
H   H11       1.0  0.95320  0.73540  0.06100  1.0000 0.1186780816
H   H12       1.0  0.73540  0.95320  0.43900  1.0000 0.1186780816
H   H13       1.0  0.02390  0.33910  0.96480  1.0000 0.1301877715
H   H14       1.0  0.33910  0.02390  0.53520  1.0000 0.1301877715
H   H15       1.0  0.97610  0.66090  0.03520  1.0000 0.1301877715
H   H16       1.0  0.66090  0.97610  0.46480  1.0000 0.1301877715
H   H17       1.0  0.55900  0.08600  0.91490  1.0000 0.1112946904
H   H18       1.0  0.08600  0.55900  0.58510  1.0000 0.1112946904
H   H19       1.0  0.44100  0.91400  0.08510  1.0000 0.1112946904
H   H20       1.0  0.91400  0.44100  0.41490  1.0000 0.1112946904
H   H21       1.0  0.25230  0.91810  0.88740  1.0000 0.1390518787
H   H22       1.0  0.91810  0.25230  0.61260  1.0000 0.1390518787
H   H23       1.0  0.74770  0.08190  0.11260  1.0000 0.1390518787
H   H24       1.0  0.08190  0.74770  0.38740  1.0000 0.1390518787
H   H25       1.0  0.20330  0.97270  0.92730  1.0000 0.1390518787
H   H26       1.0  0.97270  0.20330  0.57270  1.0000 0.1390518787
H   H27       1.0  0.79670  0.02730  0.07270  1.0000 0.1390518787
H   H28       1.0  0.02730  0.79670  0.42730  1.0000 0.1390518787
H   H29       1.0  0.68810  0.96690  0.70450  1.0000 0.1186780816
H   H30       1.0  0.96690  0.68810  0.79550  1.0000 0.1186780816
H   H31       1.0  0.31190  0.03310  0.29550  1.0000 0.1186780816
H   H32       1.0  0.03310  0.31190  0.20450  1.0000 0.1186780816
H   H33       1.0  0.77450  0.96170  0.81020  1.0000 0.1186780816
H   H34       1.0  0.96170  0.77450  0.68980  1.0000 0.1186780816
H   H35       1.0  0.22550  0.03830  0.18980  1.0000 0.1186780816
H   H36       1.0  0.03830  0.22550  0.31020  1.0000 0.1186780816
H   H37       1.0  0.88210  0.24950  0.77930  1.0000 0.1186780816
H   H38       1.0  0.24950  0.88210  0.72070  1.0000 0.1186780816
H   H39       1.0  0.11790  0.75050  0.22070  1.0000 0.1186780816
H   H40       1.0  0.75050  0.11790  0.27930  1.0000 0.1186780816
H   H41       1.0  0.80330  0.26050  0.67210  1.0000 0.1186780816
H   H42       1.0  0.26050  0.80330  0.82790  1.0000 0.1186780816
H   H43       1.0  0.19670  0.73950  0.32790  1.0000 0.1186780816
H   H44       1.0  0.73950  0.19670  0.17210  1.0000 0.1186780816
H   H45       1.0  0.71300  0.54720  0.77830  1.0000 0.1301877715
H   H46       1.0  0.54720  0.71300  0.72170  1.0000 0.1301877715
H   H47       1.0  0.28700  0.45280  0.22170  1.0000 0.1301877715
H   H48       1.0  0.45280  0.28700  0.27830  1.0000 0.1301877715
H   H49       1.0  0.75860  0.71360  0.72040  1.0000 0.1186780816
H   H50       1.0  0.71360  0.75860  0.77960  1.0000 0.1186780816
H   H51       1.0  0.24140  0.28640  0.27960  1.0000 0.1186780816
H   H52       1.0  0.28640  0.24140  0.22040  1.0000 0.1186780816
H   H53       1.0  0.98930  0.83150  0.87250  1.0000 0.1112946904
H   H54       1.0  0.83150  0.98930  0.62750  1.0000 0.1112946904
H   H55       1.0  0.01070  0.16850  0.12750  1.0000 0.1112946904
H   H56       1.0  0.16850  0.01070  0.37250  1.0000 0.1112946904
H   H57       1.0  0.94580  0.66580  0.92950  1.0000 0.1186780816
H   H58       1.0  0.66580  0.94580  0.57050  1.0000 0.1186780816
H   H59       1.0  0.05420  0.33420  0.07050  1.0000 0.1186780816
H   H60       1.0  0.33420  0.05420  0.42950  1.0000 0.1186780816
H   H61       1.0  0.38070  0.94410  0.88500  1.0000 0.1301877715
H   H62       1.0  0.94410  0.38070  0.61500  1.0000 0.1301877715
H   H63       1.0  0.61930  0.05590  0.11500  1.0000 0.1301877715
H   H64       1.0  0.05590  0.61930  0.38500  1.0000 0.1301877715
H   H65       1.0  0.71470  0.39770  0.03090  1.0000 0.1186780816
H   H66       1.0  0.39770  0.71470  0.46910  1.0000 0.1186780816
H   H67       1.0  0.28530  0.60230  0.96910  1.0000 0.1186780816
H   H68       1.0  0.60230  0.28530  0.53090  1.0000 0.1186780816
H   H69       1.0  0.41230  0.25010  0.00920  1.0000 0.1390518787
H   H70       1.0  0.25010  0.41230  0.49080  1.0000 0.1390518787
H   H71       1.0  0.58770  0.74990  0.99080  1.0000 0.1390518787
H   H72       1.0  0.74990  0.58770  0.50920  1.0000 0.1390518787
H   H73       1.0  0.58940  0.37300  0.04740  1.0000 0.1390518787
H   H74       1.0  0.37300  0.58940  0.45260  1.0000 0.1390518787
H   H75       1.0  0.41060  0.62700  0.95260  1.0000 0.1390518787
H   H76       1.0  0.62700  0.41060  0.54740  1.0000 0.1390518787
H   H77       1.0  0.25720  0.09420  0.95330  1.0000 0.1390518787
H   H78       1.0  0.09420  0.25720  0.54670  1.0000 0.1390518787
H   H79       1.0  0.74280  0.90580  0.04670  1.0000 0.1390518787
H   H80       1.0  0.90580  0.74280  0.45330  1.0000 0.1390518787
C   C1        1.0  0.85000  0.28900  0.95427  1.0000 0.5787599589
C   C2        1.0  0.28900  0.85000  0.54573  1.0000 0.5787599589
C   C3        1.0  0.15000  0.71100  0.04573  1.0000 0.5787599589
C   C4        1.0  0.71100  0.15000  0.45427  1.0000 0.5787599589
C   C5        1.0  0.86327  0.24153  0.93518  1.0000 -0.0225193669
C   C6        1.0  0.24153  0.86327  0.56482  1.0000 -0.0225193669
C   C7        1.0  0.13673  0.75847  0.06482  1.0000 -0.0225193669
C   C8        1.0  0.75847  0.13673  0.43518  1.0000 -0.0225193669
C   C9        1.0  0.77506  0.15814  0.90520  1.0000 -0.0985635576
C   C10       1.0  0.15814  0.77506  0.59480  1.0000 -0.0985635576
C   C11       1.0  0.22494  0.84186  0.09480  1.0000 -0.0985635576
C   C12       1.0  0.84186  0.22494  0.40520  1.0000 -0.0985635576
C   C13       1.0  0.78974  0.11846  0.88670  1.0000 -0.1416502883
C   C14       1.0  0.11846  0.78974  0.61330  1.0000 -0.1416502883
C   C15       1.0  0.21026  0.88154  0.11330  1.0000 -0.1416502883
C   C16       1.0  0.88154  0.21026  0.38670  1.0000 -0.1416502883
C   C17       1.0  0.88963  0.15757  0.89774  1.0000 0.0760798455
C   C18       1.0  0.15757  0.88963  0.60226  1.0000 0.0760798455
C   C19       1.0  0.11037  0.84243  0.10226  1.0000 0.0760798455
C   C20       1.0  0.84243  0.11037  0.39774  1.0000 0.0760798455
C   C21       1.0  0.97803  0.23877  0.92910  1.0000 -0.1601987408
C   C22       1.0  0.23877  0.97803  0.57090  1.0000 -0.1601987408
C   C23       1.0  0.02197  0.76123  0.07090  1.0000 -0.1601987408
C   C24       1.0  0.76123  0.02197  0.42910  1.0000 -0.1601987408
C   C25       1.0  0.96376  0.28164  0.94590  1.0000 -0.0985635576
C   C26       1.0  0.28164  0.96376  0.55410  1.0000 -0.0985635576
C   C27       1.0  0.03624  0.71836  0.05410  1.0000 -0.0985635576
C   C28       1.0  0.71836  0.03624  0.44590  1.0000 -0.0985635576
C   C29       1.0  0.50740  0.07540  0.91880  1.0000 0.0760798455
C   C30       1.0  0.07540  0.50740  0.58120  1.0000 0.0760798455
C   C31       1.0  0.49260  0.92460  0.08120  1.0000 0.0760798455
C   C32       1.0  0.92460  0.49260  0.41880  1.0000 0.0760798455
C   C33       1.0  0.32440  0.97400  0.90240  1.0000 -0.0893867445
C   C34       1.0  0.97400  0.32440  0.59760  1.0000 -0.0893867445
C   C35       1.0  0.67560  0.02600  0.09760  1.0000 -0.0893867445
C   C36       1.0  0.02600  0.67560  0.40240  1.0000 -0.0893867445
C   C37       1.0  0.27670  0.03110  0.93640  1.0000 -0.1302738768
C   C38       1.0  0.03110  0.27670  0.56360  1.0000 -0.1302738768
C   C39       1.0  0.72330  0.96890  0.06360  1.0000 -0.1302738768
C   C40       1.0  0.96890  0.72330  0.43640  1.0000 -0.1302738768
C   C41       1.0  0.46230  0.12510  0.94740  1.0000 0.1112946904
C   C42       1.0  0.12510  0.46230  0.55260  1.0000 0.1112946904
C   C43       1.0  0.53770  0.87490  0.05260  1.0000 0.1112946904
C   C44       1.0  0.87490  0.53770  0.44740  1.0000 0.1112946904
C   C45       1.0  0.49450  0.19250  0.97370  1.0000 0.0963451321
C   C46       1.0  0.19250  0.49450  0.52630  1.0000 0.0963451321
C   C47       1.0  0.50550  0.80750  0.02630  1.0000 0.0963451321
C   C48       1.0  0.80750  0.50550  0.47370  1.0000 0.0963451321
C   C49       1.0  0.72868  0.02512  0.71917  1.0000 -0.0893867445
C   C50       1.0  0.02512  0.72868  0.78083  1.0000 -0.0893867445
C   C51       1.0  0.27132  0.97488  0.28083  1.0000 -0.0893867445
C   C52       1.0  0.97488  0.27132  0.21917  1.0000 -0.0893867445
C   C53       1.0  0.77894  0.02146  0.78250  1.0000 -0.1416502883
C   C54       1.0  0.02146  0.77894  0.71750  1.0000 -0.1416502883
C   C55       1.0  0.22106  0.97854  0.21750  1.0000 -0.1416502883
C   C56       1.0  0.97854  0.22106  0.28250  1.0000 -0.1416502883
C   C57       1.0  0.83598  0.10382  0.80622  1.0000 0.072467717
C   C58       1.0  0.10382  0.83598  0.69378  1.0000 0.072467717
C   C59       1.0  0.16402  0.89618  0.19378  1.0000 0.072467717
C   C60       1.0  0.89618  0.16402  0.30622  1.0000 0.072467717
C   C61       1.0  0.84386  0.19274  0.76410  1.0000 -0.1416502883
C   C62       1.0  0.19274  0.84386  0.73590  1.0000 -0.1416502883
C   C63       1.0  0.15614  0.80726  0.23590  1.0000 -0.1416502883
C   C64       1.0  0.80726  0.15614  0.26410  1.0000 -0.1416502883
C   C65       1.0  0.79616  0.19924  0.69990  1.0000 -0.1120835637
C   C66       1.0  0.19924  0.79616  0.80010  1.0000 -0.1120835637
C   C67       1.0  0.20384  0.80076  0.30010  1.0000 -0.1120835637
C   C68       1.0  0.80076  0.20384  0.19990  1.0000 -0.1120835637
C   C69       1.0  0.73792  0.11528  0.67667  1.0000 -0.0305538719
C   C70       1.0  0.11528  0.73792  0.82333  1.0000 -0.0305538719
C   C71       1.0  0.26208  0.88472  0.32333  1.0000 -0.0305538719
C   C72       1.0  0.88472  0.26208  0.17667  1.0000 -0.0305538719
C   C73       1.0  0.68682  0.12238  0.60702  1.0000 0.5787599589
C   C74       1.0  0.12238  0.68682  0.89298  1.0000 0.5787599589
C   C75       1.0  0.31318  0.87762  0.39298  1.0000 0.5787599589
C   C76       1.0  0.87762  0.31318  0.10702  1.0000 0.5787599589
C   C77       1.0  0.89800  0.10560  0.87670  1.0000 -0.2817512622
C   C78       1.0  0.10560  0.89800  0.62330  1.0000 -0.2817512622
C   C79       1.0  0.10200  0.89440  0.12330  1.0000 -0.2817512622
C   C80       1.0  0.89440  0.10200  0.37670  1.0000 -0.2817512622
C   C81       1.0  0.85471  0.99389  0.92220  1.0000 0.6595709528
C   C82       1.0  0.99389  0.85471  0.57780  1.0000 0.6595709528
C   C83       1.0  0.14529  0.00611  0.07780  1.0000 0.6595709528
C   C84       1.0  0.00611  0.14529  0.42220  1.0000 0.6595709528
C   C85       1.0  0.01300  0.16640  0.88210  1.0000 0.6489490623
C   C86       1.0  0.16640  0.01300  0.61790  1.0000 0.6489490623
C   C87       1.0  0.98700  0.83360  0.11790  1.0000 0.6489490623
C   C88       1.0  0.83360  0.98700  0.38210  1.0000 0.6489490623
C   C89       1.0  0.78787  0.47773  0.89950  1.0000 0.5585594232
C   C90       1.0  0.47773  0.78787  0.60050  1.0000 0.5585594232
C   C91       1.0  0.21213  0.52227  0.10050  1.0000 0.5585594232
C   C92       1.0  0.52227  0.21213  0.39950  1.0000 0.5585594232
C   C93       1.0  0.82389  0.58931  0.86043  1.0000 -0.0102581149
C   C94       1.0  0.58931  0.82389  0.63957  1.0000 -0.0102581149
C   C95       1.0  0.17611  0.41069  0.13957  1.0000 -0.0102581149
C   C96       1.0  0.41069  0.17611  0.36043  1.0000 -0.0102581149
C   C97       1.0  0.76835  0.60425  0.79749  1.0000 -0.0985635576
C   C98       1.0  0.60425  0.76835  0.70251  1.0000 -0.0985635576
C   C99       1.0  0.23165  0.39575  0.20251  1.0000 -0.0985635576
C   C100      1.0  0.39575  0.23165  0.29749  1.0000 -0.0985635576
C   C101      1.0  0.79507  0.70373  0.76312  1.0000 -0.1416502883
C   C102      1.0  0.70373  0.79507  0.73688  1.0000 -0.1416502883
C   C103      1.0  0.20493  0.29627  0.23688  1.0000 -0.1416502883
C   C104      1.0  0.29627  0.20493  0.26312  1.0000 -0.1416502883
C   C105      1.0  0.87510  0.78910  0.79096  1.0000 0.072467717
C   C106      1.0  0.78910  0.87510  0.70904  1.0000 0.0760798455
C   C107      1.0  0.12490  0.21090  0.20904  1.0000 0.0760798455
C   C108      1.0  0.21090  0.12490  0.29096  1.0000 0.0760798455
C   C109      1.0  0.93271  0.77429  0.85342  1.0000 -0.1601987408
C   C110      1.0  0.77429  0.93271  0.64658  1.0000 -0.1601987408
C   C111      1.0  0.06729  0.22571  0.14658  1.0000 -0.1601987408
C   C112      1.0  0.22571  0.06729  0.35342  1.0000 -0.1601987408
C   C113      1.0  0.90662  0.67498  0.88748  1.0000 -0.0985635576
C   C114      1.0  0.67498  0.90662  0.61252  1.0000 -0.0985635576
C   C115      1.0  0.09338  0.32502  0.11252  1.0000 -0.0985635576
C   C116      1.0  0.32502  0.09338  0.38748  1.0000 -0.0985635576
C   C117      1.0  0.89850  0.89850  0.75000  1.0000 -0.2889765596
C   C118      1.0  0.10150  0.10150  0.25000  1.0000 -0.2889765596
C   C119      1.0  0.96980  0.95560  0.71020  1.0000 0.6595709528
C   C120      1.0  0.95560  0.96980  0.78980  1.0000 0.6595709528
C   C121      1.0  0.03020  0.04440  0.28980  1.0000 0.6595709528
C   C122      1.0  0.04440  0.03020  0.21020  1.0000 0.6595709528
C   C123      1.0  0.39980  0.99080  0.90000  1.0000 -0.1302738768
C   C124      1.0  0.99080  0.39980  0.60000  1.0000 -0.1302738768
C   C125      1.0  0.60020  0.00920  0.10000  1.0000 -0.1302738768
C   C126      1.0  0.00920  0.60020  0.40000  1.0000 -0.1302738768
C   C127      1.0  0.35070  0.03970  0.92740  1.0000 0.0487263071
C   C128      1.0  0.03970  0.35070  0.57260  1.0000 0.0487263071
C   C129      1.0  0.64930  0.96030  0.07260  1.0000 0.0487263071
C   C130      1.0  0.96030  0.64930  0.42740  1.0000 0.0487263071
C   C131      1.0  0.64080  0.34240  0.01840  1.0000 0.1112946904
C   C132      1.0  0.34240  0.64080  0.48160  1.0000 0.1112946904
C   C133      1.0  0.35920  0.65760  0.98160  1.0000 0.1112946904
C   C134      1.0  0.65760  0.35920  0.51840  1.0000 0.1112946904
C   C135      1.0  0.46050  0.25390  0.00690  1.0000 -0.0893867445
C   C136      1.0  0.25390  0.46050  0.49310  1.0000 -0.0893867445
C   C137      1.0  0.53950  0.74610  0.99310  1.0000 -0.0893867445
C   C138      1.0  0.74610  0.53950  0.50690  1.0000 -0.0893867445
C   C139      1.0  0.56440  0.32880  0.02730  1.0000 -0.1416502883
C   C140      1.0  0.32880  0.56440  0.47270  1.0000 -0.1416502883
C   C141      1.0  0.43560  0.67120  0.97270  1.0000 -0.1416502883
C   C142      1.0  0.67120  0.43560  0.52730  1.0000 -0.1416502883
C   C143      1.0  0.30780  0.09680  0.95540  1.0000 -0.1194501278
C   C144      1.0  0.09680  0.30780  0.54460  1.0000 -0.1194501278
C   C145      1.0  0.69220  0.90320  0.04460  1.0000 -0.1194501278
C   C146      1.0  0.90320  0.69220  0.45540  1.0000 -0.1194501278
C   C147      1.0  0.41800  0.17620  0.98040  1.0000 0.0359476673
C   C148      1.0  0.17620  0.41800  0.51960  1.0000 0.0359476673
C   C149      1.0  0.58200  0.82380  0.01960  1.0000 0.0359476673
C   C150      1.0  0.82380  0.58200  0.48040  1.0000 0.0359476673
N   N1        1.0  0.53929  0.14231  0.94260  1.0000 -0.2566612457
N   N2        1.0  0.14231  0.53929  0.55740  1.0000 -0.2566612457
N   N3        1.0  0.46071  0.85769  0.05740  1.0000 -0.2566612457
N   N4        1.0  0.85769  0.46071  0.44260  1.0000 -0.2566612457
N   N5        1.0  0.60455  0.27505  0.99220  1.0000 -0.2709884887
N   N6        1.0  0.27505  0.60455  0.50780  1.0000 -0.2709884887
N   N7        1.0  0.39545  0.72495  0.00780  1.0000 -0.2709884887
N   N8        1.0  0.72495  0.39545  0.49220  1.0000 -0.2709884887
O   O1        1.0  0.93286  0.37314  0.97134  1.0000 -0.5382201617
O   O2        1.0  0.37314  0.93286  0.52866  1.0000 -0.5382201617
O   O3        1.0  0.06714  0.62686  0.02866  1.0000 -0.5382201617
O   O4        1.0  0.62686  0.06714  0.47134  1.0000 -0.5382201617
O   O5        1.0  0.75537  0.23863  0.95147  1.0000 -0.5504996424
O   O6        1.0  0.23863  0.75537  0.54853  1.0000 -0.5504996424
O   O7        1.0  0.24463  0.76137  0.04853  1.0000 -0.5504996424
O   O8        1.0  0.76137  0.24463  0.45147  1.0000 -0.5504996424
O   O9        1.0  0.84370  0.46684  0.95555  1.0000 -0.569776614
O   O10       1.0  0.46684  0.84370  0.54445  1.0000 -0.569776614
O   O11       1.0  0.15630  0.53316  0.04445  1.0000 -0.569776614
O   O12       1.0  0.53316  0.15630  0.45555  1.0000 -0.569776614
O   O13       1.0  0.70332  0.40008  0.87683  1.0000 -0.5035588314
O   O14       1.0  0.40008  0.70332  0.62317  1.0000 -0.5035588314
O   O15       1.0  0.29668  0.59992  0.12317  1.0000 -0.5035588314
O   O16       1.0  0.59992  0.29668  0.37683  1.0000 -0.5035588314
O   O17       1.0  0.60520  0.03620  0.59018  1.0000 -0.5382201617
O   O18       1.0  0.03620  0.60520  0.90982  1.0000 -0.5382201617
O   O19       1.0  0.39480  0.96380  0.40982  1.0000 -0.5382201617
O   O20       1.0  0.96380  0.39480  0.09018  1.0000 -0.5382201617
O   O21       1.0  0.73152  0.21648  0.57074  1.0000 -0.569776614
O   O22       1.0  0.21648  0.73152  0.92926  1.0000 -0.569776614
O   O23       1.0  0.26848  0.78352  0.42926  1.0000 -0.5649280643
O   O24       1.0  0.78352  0.26848  0.07074  1.0000 -0.5649280643
F   F1        1.0  0.06289  0.27171  0.85026  1.0000 -0.1982592765
F   F2        1.0  0.27171  0.06289  0.64974  1.0000 -0.1982592765
F   F3        1.0  0.93711  0.72829  0.14974  1.0000 -0.1982592765
F   F4        1.0  0.72829  0.93711  0.35026  1.0000 -0.1982592765
F   F5        1.0  0.07578  0.16702  0.94095  1.0000 -0.2073403344
F   F6        1.0  0.16702  0.07578  0.55905  1.0000 -0.2073403344
F   F7        1.0  0.92422  0.83298  0.05905  1.0000 -0.2073403344
F   F8        1.0  0.83298  0.92422  0.44095  1.0000 -0.2073403344
F   F9        1.0  0.01948  0.13072  0.85657  1.0000 -0.1917690878
F   F10       1.0  0.13072  0.01948  0.64343  1.0000 -0.1917690878
F   F11       1.0  0.98052  0.86928  0.14343  1.0000 -0.1917690878
F   F12       1.0  0.86928  0.98052  0.35657  1.0000 -0.1917690878
F   F13       1.0  0.87558  0.94622  0.91858  1.0000 -0.1982592765
F   F14       1.0  0.94622  0.87558  0.58142  1.0000 -0.1982592765
F   F15       1.0  0.12442  0.05378  0.08142  1.0000 -0.1982592765
F   F16       1.0  0.05378  0.12442  0.41858  1.0000 -0.1982592765
F   F17       1.0  0.89488  0.99552  0.98245  1.0000 -0.1982592765
F   F18       1.0  0.99552  0.89488  0.51755  1.0000 -0.1982592765
F   F19       1.0  0.10512  0.00448  0.01755  1.0000 -0.1982592765
F   F20       1.0  0.00448  0.10512  0.48245  1.0000 -0.1982592765
F   F21       1.0  0.74685  0.92455  0.91115  1.0000 -0.2073403344
F   F22       1.0  0.92455  0.74685  0.58885  1.0000 -0.2073403344
F   F23       1.0  0.25315  0.07545  0.08885  1.0000 -0.2073403344
F   F24       1.0  0.07545  0.25315  0.41115  1.0000 -0.2073403344
F   F25       1.0  0.05374  0.95766  0.74516  1.0000 -0.1982592765
F   F26       1.0  0.95766  0.05374  0.75484  1.0000 -0.1982592765
F   F27       1.0  0.94626  0.04234  0.25484  1.0000 -0.1982592765
F   F28       1.0  0.04234  0.94626  0.24516  1.0000 -0.1982592765
F   F29       1.0  0.91677  0.90683  0.66507  1.0000 -0.1917690878
F   F30       1.0  0.90683  0.91677  0.83493  1.0000 -0.1917690878
F   F31       1.0  0.08323  0.09317  0.33493  1.0000 -0.1917690878
F   F32       1.0  0.09317  0.08323  0.16507  1.0000 -0.1917690878
F   F33       1.0  0.01196  0.05804  0.67981  1.0000 -0.2073403344
F   F34       1.0  0.05804  0.01196  0.82019  1.0000 -0.2073403344
F   F35       1.0  0.98804  0.94196  0.32019  1.0000 -0.2073403344
F   F36       1.0  0.94196  0.98804  0.17981  1.0000 -0.2073403344
