# DDEC6 charges by PACMAN v1.1 (https://github.com/mtap-research/PACMAN-charge/)
data_2010[Fe][bpq]3[ASR]3
_chemical_formula_sum              "Fe4 H20 C32 O20"
_cell_length_a       15.9623
_cell_length_b       6.9351
_cell_length_c       14.3919
_cell_angle_alpha    90
_cell_angle_beta     90
_cell_angle_gamma    90

_symmetry_space_group_name_H-M    "P 1"
_symmetry_Int_Tables_number       1

loop_
  _symmetry_equiv_pos_as_xyz
  'x, y, z'

loop_
  _atom_site_type_symbol
  _atom_site_label
  _atom_site_symmetry_multiplicity
  _atom_site_fract_x
  _atom_site_fract_y
  _atom_site_fract_z
  _atom_site_occupancy
  _atom_site_charge
Fe  Fe1       1.0  0.50000  0.00000  0.50000  1.0000 1.2896059887
Fe  Fe2       1.0  0.00000  0.50000  0.00000  1.0000 1.2896059887
Fe  Fe3       1.0  0.50000  0.50000  0.50000  1.0000 1.2896059887
Fe  Fe4       1.0  0.00000  0.00000  0.00000  1.0000 1.2896059887
H   H1        1.0  0.69490  0.04530  0.69510  1.0000 0.1259887293
H   H2        1.0  0.50000  0.75000  0.36862  1.0000 0.4052796574
H   H3        1.0  0.19490  0.54530  0.19510  1.0000 0.1259887293
H   H4        1.0  0.00000  0.25000  0.86862  1.0000 0.4052796574
H   H5        1.0  0.30510  0.45470  0.69510  1.0000 0.1259887293
H   H6        1.0  0.80510  0.95470  0.19510  1.0000 0.1259887293
H   H7        1.0  0.30510  0.54530  0.30490  1.0000 0.1259887293
H   H8        1.0  0.50000  0.25000  0.63138  1.0000 0.4052796574
H   H9        1.0  0.80510  0.04530  0.80490  1.0000 0.1259887293
H   H10       1.0  0.00000  0.75000  0.13138  1.0000 0.4052796574
H   H11       1.0  0.69490  0.95470  0.30490  1.0000 0.1259887293
H   H12       1.0  0.19490  0.45470  0.80490  1.0000 0.1259887293
H   H13       1.0  0.30510  0.95470  0.30490  1.0000 0.1259887293
H   H14       1.0  0.80510  0.45470  0.80490  1.0000 0.1259887293
H   H15       1.0  0.69490  0.54530  0.30490  1.0000 0.1259887293
H   H16       1.0  0.19490  0.04530  0.80490  1.0000 0.1259887293
H   H17       1.0  0.69490  0.45470  0.69510  1.0000 0.1259887293
H   H18       1.0  0.19490  0.95470  0.19510  1.0000 0.1259887293
H   H19       1.0  0.30510  0.04530  0.69510  1.0000 0.1259887293
H   H20       1.0  0.80510  0.54530  0.19510  1.0000 0.1259887293
C   C1        1.0  0.71770  0.92290  0.71790  1.0000 -0.0957184401
C   C2        1.0  0.21770  0.42290  0.21790  1.0000 -0.0957184401
C   C3        1.0  0.28230  0.57710  0.71790  1.0000 -0.0957184401
C   C4        1.0  0.78230  0.07710  0.21790  1.0000 -0.0957184401
C   C5        1.0  0.28230  0.42290  0.28210  1.0000 -0.0957184401
C   C6        1.0  0.78230  0.92290  0.78210  1.0000 -0.0957184401
C   C7        1.0  0.71770  0.07710  0.28210  1.0000 -0.0957184401
C   C8        1.0  0.21770  0.57710  0.78210  1.0000 -0.0957184401
C   C9        1.0  0.28230  0.07710  0.28210  1.0000 -0.0957184401
C   C10       1.0  0.78230  0.57710  0.78210  1.0000 -0.0957184401
C   C11       1.0  0.71770  0.42290  0.28210  1.0000 -0.0957184401
C   C12       1.0  0.21770  0.92290  0.78210  1.0000 -0.0957184401
C   C13       1.0  0.71770  0.57710  0.71790  1.0000 -0.0957184401
C   C14       1.0  0.21770  0.07710  0.21790  1.0000 -0.0957184401
C   C15       1.0  0.28230  0.92290  0.71790  1.0000 -0.0957184401
C   C16       1.0  0.78230  0.42290  0.21790  1.0000 -0.0957184401
C   C17       1.0  0.68540  0.75000  0.68570  1.0000 -0.0302975965
C   C18       1.0  0.61690  0.75000  0.61750  1.0000 0.6086549298
C   C19       1.0  0.18540  0.25000  0.18570  1.0000 -0.0302975965
C   C20       1.0  0.11690  0.25000  0.11750  1.0000 0.6086549298
C   C21       1.0  0.31460  0.75000  0.68570  1.0000 -0.0302975965
C   C22       1.0  0.38310  0.75000  0.61750  1.0000 0.6086549298
C   C23       1.0  0.81460  0.25000  0.18570  1.0000 -0.0302975965
C   C24       1.0  0.88310  0.25000  0.11750  1.0000 0.6086549298
C   C25       1.0  0.31460  0.25000  0.31430  1.0000 -0.0302975965
C   C26       1.0  0.38310  0.25000  0.38250  1.0000 0.6086549298
C   C27       1.0  0.81460  0.75000  0.81430  1.0000 -0.0302975965
C   C28       1.0  0.88310  0.75000  0.88250  1.0000 0.6086549298
C   C29       1.0  0.68540  0.25000  0.31430  1.0000 -0.0302975965
C   C30       1.0  0.61690  0.25000  0.38250  1.0000 0.6086549298
C   C31       1.0  0.18540  0.75000  0.81430  1.0000 -0.0302975965
C   C32       1.0  0.11690  0.75000  0.88250  1.0000 0.6086549298
O   O1        1.0  0.58730  0.90860  0.58800  1.0000 -0.5355351655
O   O2        1.0  0.08730  0.40860  0.08800  1.0000 -0.5355351655
O   O3        1.0  0.41270  0.59140  0.58800  1.0000 -0.5355351655
O   O4        1.0  0.91270  0.09140  0.08800  1.0000 -0.5355351655
O   O5        1.0  0.41270  0.40860  0.41200  1.0000 -0.5355351655
O   O6        1.0  0.91270  0.90860  0.91200  1.0000 -0.5355351655
O   O7        1.0  0.58730  0.09140  0.41200  1.0000 -0.5355351655
O   O8        1.0  0.08730  0.59140  0.91200  1.0000 -0.5355351655
O   O9        1.0  0.41270  0.09140  0.41200  1.0000 -0.5355351655
O   O10       1.0  0.91270  0.59140  0.91200  1.0000 -0.5355351655
O   O11       1.0  0.58730  0.40860  0.41200  1.0000 -0.5355351655
O   O12       1.0  0.08730  0.90860  0.91200  1.0000 -0.5355351655
O   O13       1.0  0.58730  0.59140  0.58800  1.0000 -0.5355351655
O   O14       1.0  0.08730  0.09140  0.08800  1.0000 -0.5355351655
O   O15       1.0  0.41270  0.90860  0.58800  1.0000 -0.5355351655
O   O16       1.0  0.91270  0.40860  0.08800  1.0000 -0.5355351655
O   O17       1.0  0.00000  0.25000  0.93810  1.0000 -0.8305408074
O   O18       1.0  0.50000  0.75000  0.43810  1.0000 -0.8305408074
O   O19       1.0  0.00000  0.75000  0.06190  1.0000 -0.8305408074
O   O20       1.0  0.50000  0.25000  0.56190  1.0000 -0.8305408074
