# DDEC6 charges by PACMAN v1.1 (https://github.com/mtap-research/PACMAN-charge/)
data_2010[Zn][nan]3[ASR]2
_chemical_formula_sum              "Zn8 H88 C108 N32 O32"
_cell_length_a       19.9947
_cell_length_b       19.9947
_cell_length_c       19.114
_cell_angle_alpha    87.6244
_cell_angle_beta     92.3756
_cell_angle_gamma    154.031

_symmetry_space_group_name_H-M    "P 1"
_symmetry_Int_Tables_number       1

loop_
  _symmetry_equiv_pos_as_xyz
  'x, y, z'

loop_
  _atom_site_type_symbol
  _atom_site_label
  _atom_site_symmetry_multiplicity
  _atom_site_fract_x
  _atom_site_fract_y
  _atom_site_fract_z
  _atom_site_occupancy
  _atom_site_charge
Zn  Zn1       1.0  0.04888  0.59588  0.40103  1.0000 0.7941772585
Zn  Zn2       1.0  0.59588  0.04888  0.09897  1.0000 0.7941772585
Zn  Zn3       1.0  0.95112  0.40412  0.59897  1.0000 0.7941772585
Zn  Zn4       1.0  0.40412  0.95112  0.90103  1.0000 0.7941772585
Zn  Zn5       1.0  0.10312  0.04498  0.91122  1.0000 0.7959188764
Zn  Zn6       1.0  0.04498  0.10312  0.58878  1.0000 0.7959188764
Zn  Zn7       1.0  0.89688  0.95502  0.08878  1.0000 0.7959188764
Zn  Zn8       1.0  0.95502  0.89688  0.41122  1.0000 0.7959188764
H   H1        1.0  0.63880  0.23680  0.79810  1.0000 0.1404528585
H   H2        1.0  0.23680  0.63880  0.70190  1.0000 0.1404528585
H   H3        1.0  0.36120  0.76320  0.20190  1.0000 0.1404528585
H   H4        1.0  0.76320  0.36120  0.29810  1.0000 0.1404528585
H   H5        1.0  0.57430  0.23170  0.68360  1.0000 0.1404528585
H   H6        1.0  0.23170  0.57430  0.81640  1.0000 0.1404528585
H   H7        1.0  0.42570  0.76830  0.31640  1.0000 0.1404528585
H   H8        1.0  0.76830  0.42570  0.18360  1.0000 0.1404528585
H   H9        1.0  0.20830  0.80890  0.76040  1.0000 0.1209763581
H   H10       1.0  0.80890  0.20830  0.73960  1.0000 0.1209763581
H   H11       1.0  0.79170  0.19110  0.23960  1.0000 0.1209763581
H   H12       1.0  0.19110  0.79170  0.26040  1.0000 0.1209763581
H   H13       1.0  0.18160  0.82600  0.63610  1.0000 0.1209763581
H   H14       1.0  0.82600  0.18160  0.86390  1.0000 0.1209763581
H   H15       1.0  0.81840  0.17400  0.36390  1.0000 0.1209763581
H   H16       1.0  0.17400  0.81840  0.13610  1.0000 0.1209763581
H   H17       1.0  0.32780  0.98440  0.59820  1.0000 0.1209763581
H   H18       1.0  0.98440  0.32780  0.90180  1.0000 0.1209763581
H   H19       1.0  0.67220  0.01560  0.40180  1.0000 0.1209763581
H   H20       1.0  0.01560  0.67220  0.09820  1.0000 0.1209763581
H   H21       1.0  0.98050  0.73050  0.59020  1.0000 0.1319031313
H   H22       1.0  0.73050  0.98050  0.90980  1.0000 0.1319031313
H   H23       1.0  0.01950  0.26950  0.40980  1.0000 0.1319031313
H   H24       1.0  0.26950  0.01950  0.09020  1.0000 0.1319031313
H   H25       1.0  0.06270  0.86510  0.55270  1.0000 0.1319031313
H   H26       1.0  0.86510  0.06270  0.94730  1.0000 0.1319031313
H   H27       1.0  0.93730  0.13490  0.44730  1.0000 0.1319031313
H   H28       1.0  0.13490  0.93730  0.05270  1.0000 0.1319031313
H   H29       1.0  0.98650  0.62710  0.52970  1.0000 0.1319031313
H   H30       1.0  0.62710  0.98650  0.97030  1.0000 0.1319031313
H   H31       1.0  0.01350  0.37290  0.47030  1.0000 0.1319031313
H   H32       1.0  0.37290  0.01350  0.02970  1.0000 0.1319031313
H   H33       1.0  0.29190  0.93690  0.38550  1.0000 0.1209763581
H   H34       1.0  0.93690  0.29190  0.11450  1.0000 0.1209763581
H   H35       1.0  0.70810  0.06310  0.61450  1.0000 0.1209763581
H   H36       1.0  0.06310  0.70810  0.88550  1.0000 0.1209763581
H   H37       1.0  0.28610  0.02970  0.45810  1.0000 0.1404528585
H   H38       1.0  0.02970  0.28610  0.04190  1.0000 0.1404528585
H   H39       1.0  0.71390  0.97030  0.54190  1.0000 0.1404528585
H   H40       1.0  0.97030  0.71390  0.95810  1.0000 0.1404528585
H   H41       1.0  0.00550  0.81070  0.68060  1.0000 0.1319031313
H   H42       1.0  0.81070  0.00550  0.81940  1.0000 0.1319031313
H   H43       1.0  0.99450  0.18930  0.31940  1.0000 0.1319031313
H   H44       1.0  0.18930  0.99450  0.18060  1.0000 0.1319031313
H   H45       1.0  0.05500  0.78700  0.71620  1.0000 0.1209763581
H   H46       1.0  0.78700  0.05500  0.78380  1.0000 0.1209763581
H   H47       1.0  0.94500  0.21300  0.28380  1.0000 0.1209763581
H   H48       1.0  0.21300  0.94500  0.21620  1.0000 0.1209763581
H   H49       1.0  0.35340  0.08260  0.79330  1.0000 0.1209763581
H   H50       1.0  0.08260  0.35340  0.70670  1.0000 0.1209763581
H   H51       1.0  0.64660  0.91740  0.20670  1.0000 0.1209763581
H   H52       1.0  0.91740  0.64660  0.29330  1.0000 0.1209763581
H   H53       1.0  0.35910  0.16750  0.88650  1.0000 0.1404528585
H   H54       1.0  0.16750  0.35910  0.61350  1.0000 0.1404528585
H   H55       1.0  0.64090  0.83250  0.11350  1.0000 0.1404528585
H   H56       1.0  0.83250  0.64090  0.38650  1.0000 0.1404528585
H   H57       1.0  0.00400  0.89220  0.76660  1.0000 0.1319031313
H   H58       1.0  0.89220  0.00400  0.73340  1.0000 0.1319031313
H   H59       1.0  0.99600  0.10780  0.23340  1.0000 0.1319031313
H   H60       1.0  0.10780  0.99600  0.26660  1.0000 0.1319031313
H   H61       1.0  0.40720  0.17040  0.65020  1.0000 0.1209763581
H   H62       1.0  0.17040  0.40720  0.84980  1.0000 0.1209763581
H   H63       1.0  0.59280  0.82960  0.34980  1.0000 0.1209763581
H   H64       1.0  0.82960  0.59280  0.15020  1.0000 0.1209763581
H   H65       1.0  0.35350  0.13110  0.57220  1.0000 0.1404528585
H   H66       1.0  0.13110  0.35350  0.92780  1.0000 0.1404528585
H   H67       1.0  0.64650  0.86890  0.42780  1.0000 0.1404528585
H   H68       1.0  0.86890  0.64650  0.07220  1.0000 0.1404528585
H   H69       1.0  0.46550  0.33670  0.69260  1.0000 0.1404528585
H   H70       1.0  0.33670  0.46550  0.80740  1.0000 0.1404528585
H   H71       1.0  0.53450  0.66330  0.30740  1.0000 0.1404528585
H   H72       1.0  0.66330  0.53450  0.19260  1.0000 0.1404528585
H   H73       1.0  0.35220  0.34600  0.68160  1.0000 0.1319031313
H   H74       1.0  0.34600  0.35220  0.81840  1.0000 0.1319031313
H   H75       1.0  0.64780  0.65400  0.31840  1.0000 0.1319031313
H   H76       1.0  0.65400  0.64780  0.18160  1.0000 0.1319031313
H   H77       1.0  0.09020  0.99040  0.57640  1.0000 0.1209763581
H   H78       1.0  0.99040  0.09020  0.92360  1.0000 0.1209763581
H   H79       1.0  0.90980  0.00960  0.42360  1.0000 0.1209763581
H   H80       1.0  0.00960  0.90980  0.07640  1.0000 0.1209763581
H   H81       1.0  0.57110  0.45350  0.99030  1.0000 0.1209763581
H   H82       1.0  0.45350  0.57110  0.50970  1.0000 0.1209763581
H   H83       1.0  0.42890  0.54650  0.00970  1.0000 0.1209763581
H   H84       1.0  0.54650  0.42890  0.49030  1.0000 0.1209763581
H   H85       1.0  0.54080  0.00000  0.38970  1.0000 0.1107969682
H   H86       1.0  0.00000  0.54080  0.11030  1.0000 0.1107969682
H   H87       1.0  0.45920  0.00000  0.61030  1.0000 0.1107969682
H   H88       1.0  1.00000  0.45920  0.88970  1.0000 0.1107969682
C   C1        1.0  0.54358  0.15002  0.77610  1.0000 -0.0206949486
C   C2        1.0  0.15002  0.54358  0.72390  1.0000 -0.0206949486
C   C3        1.0  0.45642  0.84998  0.22390  1.0000 -0.0206949486
C   C4        1.0  0.84998  0.45642  0.27610  1.0000 -0.0206949486
C   C5        1.0  0.50904  0.14856  0.71300  1.0000 -0.1180809511
C   C6        1.0  0.14856  0.50904  0.78700  1.0000 -0.1180809511
C   C7        1.0  0.49096  0.85144  0.28700  1.0000 -0.1180809511
C   C8        1.0  0.85144  0.49096  0.21300  1.0000 -0.1180809511
C   C9        1.0  0.30651  0.91449  0.75610  1.0000 0.0913283826
C   C10       1.0  0.91449  0.30651  0.74390  1.0000 0.0913283826
C   C11       1.0  0.69349  0.08551  0.24390  1.0000 0.0913283826
C   C12       1.0  0.08551  0.69349  0.25610  1.0000 0.0913283826
C   C13       1.0  0.26420  0.93240  0.63890  1.0000 -0.1992988058
C   C14       1.0  0.93240  0.26420  0.86110  1.0000 -0.1992988058
C   C15       1.0  0.73580  0.06760  0.36110  1.0000 -0.1992988058
C   C16       1.0  0.06760  0.73580  0.13890  1.0000 -0.1992988058
C   C17       1.0  0.19390  0.94030  0.63400  1.0000 0.1404528585
C   C18       1.0  0.94030  0.19390  0.86600  1.0000 0.1404528585
C   C19       1.0  0.80610  0.05970  0.36600  1.0000 0.1404528585
C   C20       1.0  0.05970  0.80610  0.13400  1.0000 0.1404528585
C   C21       1.0  0.07778  0.83342  0.57190  1.0000 -0.1992988058
C   C22       1.0  0.83342  0.07778  0.92810  1.0000 -0.1992988058
C   C23       1.0  0.92222  0.16658  0.42810  1.0000 -0.1992988058
C   C24       1.0  0.16658  0.92222  0.07190  1.0000 -0.1992988058
C   C25       1.0  0.06175  0.71565  0.50260  1.0000 0.1107969682
C   C26       1.0  0.71565  0.06175  0.99740  1.0000 0.1107969682
C   C27       1.0  0.93825  0.28435  0.49740  1.0000 0.1107969682
C   C28       1.0  0.28435  0.93825  0.00260  1.0000 0.1107969682
C   C29       1.0  0.22885  0.88555  0.42380  1.0000 -0.0405304171
C   C30       1.0  0.88555  0.22885  0.07620  1.0000 -0.0405304171
C   C31       1.0  0.77115  0.11445  0.57620  1.0000 -0.0405304171
C   C32       1.0  0.11445  0.77115  0.92380  1.0000 -0.0405304171
C   C33       1.0  0.22707  0.93813  0.46390  1.0000 -0.0899666155
C   C34       1.0  0.93813  0.22707  0.03610  1.0000 -0.0899666155
C   C35       1.0  0.77293  0.06187  0.53610  1.0000 -0.0899666155
C   C36       1.0  0.06187  0.77293  0.96390  1.0000 -0.0899666155
C   C37       1.0  0.09325  0.86395  0.69770  1.0000 -0.1992988058
C   C38       1.0  0.86395  0.09325  0.80230  1.0000 -0.1992988058
C   C39       1.0  0.90675  0.13605  0.30230  1.0000 -0.1992988058
C   C40       1.0  0.13605  0.90675  0.19770  1.0000 -0.1992988058
C   C41       1.0  0.28443  0.05517  0.79920  1.0000 -0.1180809511
C   C42       1.0  0.05517  0.28443  0.70080  1.0000 -0.1180809511
C   C43       1.0  0.71557  0.94483  0.20080  1.0000 -0.1180809511
C   C44       1.0  0.94483  0.71557  0.29920  1.0000 -0.1180809511
C   C45       1.0  0.28676  0.10124  0.85060  1.0000 -0.0405304171
C   C46       1.0  0.10124  0.28676  0.64940  1.0000 -0.0405304171
C   C47       1.0  0.71324  0.89876  0.14940  1.0000 -0.0405304171
C   C48       1.0  0.89876  0.71324  0.35060  1.0000 -0.0405304171
C   C49       1.0  0.09175  0.95045  0.78490  1.0000 0.0994626658
C   C50       1.0  0.95045  0.09175  0.71510  1.0000 0.0994626658
C   C51       1.0  0.90825  0.04955  0.21510  1.0000 0.0994626658
C   C52       1.0  0.04955  0.90825  0.28490  1.0000 0.0994626658
C   C53       1.0  0.32085  0.10535  0.62030  1.0000 -0.1918876002
C   C54       1.0  0.10535  0.32085  0.87970  1.0000 -0.1918876002
C   C55       1.0  0.67915  0.89465  0.37970  1.0000 -0.1918876002
C   C56       1.0  0.89465  0.67915  0.12030  1.0000 -0.1918876002
C   C57       1.0  0.37657  0.26843  0.66810  1.0000 -0.0994055922
C   C58       1.0  0.26843  0.37657  0.83190  1.0000 -0.0994055922
C   C59       1.0  0.62343  0.73157  0.33190  1.0000 -0.0994055922
C   C60       1.0  0.73157  0.62343  0.16810  1.0000 -0.0994055922
C   C61       1.0  0.31348  0.27292  0.66180  1.0000 -0.0405304171
C   C62       1.0  0.27292  0.31348  0.83820  1.0000 -0.0405304171
C   C63       1.0  0.68652  0.72708  0.33820  1.0000 -0.0405304171
C   C64       1.0  0.72708  0.68652  0.16180  1.0000 -0.0405304171
C   C65       1.0  0.16902  0.07738  0.60400  1.0000 0.1107969682
C   C66       1.0  0.07738  0.16902  0.89600  1.0000 0.1107969682
C   C67       1.0  0.83098  0.92262  0.39600  1.0000 0.1107969682
C   C68       1.0  0.92262  0.83098  0.10400  1.0000 0.1107969682
C   C69       1.0  0.80263  0.73737  0.94910  1.0000 0.5540640896
C   C70       1.0  0.73737  0.80263  0.55090  1.0000 0.5540640896
C   C71       1.0  0.19737  0.26263  0.05090  1.0000 0.5540640896
C   C72       1.0  0.26263  0.19737  0.44910  1.0000 0.5540640896
C   C73       1.0  0.64413  0.61427  0.97380  1.0000 -0.0405304171
C   C74       1.0  0.61427  0.64413  0.52620  1.0000 -0.0405304171
C   C75       1.0  0.35587  0.38573  0.02620  1.0000 -0.0405304171
C   C76       1.0  0.38573  0.35587  0.47380  1.0000 -0.0405304171
C   C77       1.0  0.60320  0.64460  0.98080  1.0000 -0.0405304171
C   C78       1.0  0.64460  0.60320  0.51920  1.0000 -0.0405304171
C   C79       1.0  0.39680  0.35540  0.01920  1.0000 -0.0405304171
C   C80       1.0  0.35540  0.39680  0.48080  1.0000 -0.0405304171
C   C81       1.0  0.54178  0.47162  0.99390  1.0000 -0.1432494725
C   C82       1.0  0.47162  0.54178  0.50610  1.0000 -0.1432494725
C   C83       1.0  0.45822  0.52838  0.00610  1.0000 -0.1432494725
C   C84       1.0  0.52838  0.45822  0.49390  1.0000 -0.1432494725
C   C85       1.0  0.70127  0.79133  0.95920  1.0000 0.5813655203
C   C86       1.0  0.79133  0.70127  0.54080  1.0000 0.5813655203
C   C87       1.0  0.29873  0.20867  0.04080  1.0000 0.5813655203
C   C88       1.0  0.20867  0.29873  0.45920  1.0000 0.5813655203
C   C89       1.0  0.29506  0.72114  0.43400  1.0000 0.5813655203
C   C90       1.0  0.72114  0.29506  0.06600  1.0000 0.5813655203
C   C91       1.0  0.70494  0.27886  0.56600  1.0000 0.5813655203
C   C92       1.0  0.27886  0.70494  0.93400  1.0000 0.5813655203
C   C93       1.0  0.39498  0.86202  0.46890  1.0000 -0.0405304171
C   C94       1.0  0.86202  0.39498  0.03110  1.0000 -0.0405304171
C   C95       1.0  0.60502  0.13798  0.53110  1.0000 -0.0405304171
C   C96       1.0  0.13798  0.60502  0.96890  1.0000 -0.0405304171
C   C97       1.0  0.52386  0.99974  0.43440  1.0000 -0.1454652155
C   C98       1.0  0.99974  0.52386  0.06560  1.0000 -0.1432494725
C   C99       1.0  0.47614  0.00026  0.56560  1.0000 -0.1432494725
C   C100      1.0  0.00026  0.47614  0.93440  1.0000 -0.1432494725
C   C101      1.0  0.36971  0.86149  0.53740  1.0000 -0.0483931842
C   C102      1.0  0.86149  0.36971  0.96260  1.0000 -0.0483931842
C   C103      1.0  0.63029  0.13851  0.46260  1.0000 -0.0483931842
C   C104      1.0  0.13851  0.63029  0.03740  1.0000 -0.0483931842
C   C105      1.0  0.22787  0.71673  0.57710  1.0000 0.5540640896
C   C106      1.0  0.71673  0.22787  0.92290  1.0000 0.5540640896
C   C107      1.0  0.77213  0.28327  0.42290  1.0000 0.5540640896
C   C108      1.0  0.28327  0.77213  0.07710  1.0000 0.5540640896
N   N1        1.0  0.41717  0.00443  0.80280  1.0000 -0.2904437723
N   N2        1.0  0.00443  0.41717  0.69720  1.0000 -0.2904437723
N   N3        1.0  0.58283  0.99557  0.19720  1.0000 -0.2904437723
N   N4        1.0  0.99557  0.58283  0.30280  1.0000 -0.2904437723
N   N5        1.0  0.35605  0.99715  0.70140  1.0000 0.0441067118
N   N6        1.0  0.99715  0.35605  0.79860  1.0000 0.0441067118
N   N7        1.0  0.64395  0.00285  0.29860  1.0000 0.0441067118
N   N8        1.0  0.00285  0.64395  0.20140  1.0000 0.0441067118
N   N9        1.0  0.12349  0.74531  0.44810  1.0000 -0.3009024615
N   N10       1.0  0.74531  0.12349  0.05190  1.0000 -0.3009024615
N   N11       1.0  0.87651  0.25469  0.55190  1.0000 -0.3009024615
N   N12       1.0  0.25469  0.87651  0.94810  1.0000 -0.3009024615
N   N13       1.0  0.12084  0.82956  0.51470  1.0000 0.0454241132
N   N14       1.0  0.82956  0.12084  0.98530  1.0000 0.0454241132
N   N15       1.0  0.87916  0.17044  0.48530  1.0000 0.0454241132
N   N16       1.0  0.17044  0.87916  0.01470  1.0000 0.0454241132
N   N17       1.0  0.16037  0.95983  0.75670  1.0000 0.0441067118
N   N18       1.0  0.95983  0.16037  0.74330  1.0000 0.0441067118
N   N19       1.0  0.83963  0.04017  0.24330  1.0000 0.0441067118
N   N20       1.0  0.04017  0.83963  0.25670  1.0000 0.0441067118
N   N21       1.0  0.16396  0.03384  0.84150  1.0000 -0.2904437723
N   N22       1.0  0.03384  0.16396  0.65850  1.0000 -0.2904437723
N   N23       1.0  0.83604  0.96616  0.15850  1.0000 -0.2904437723
N   N24       1.0  0.96616  0.83604  0.34150  1.0000 -0.2904437723
N   N25       1.0  0.18301  0.15279  0.62170  1.0000 -0.3009024615
N   N26       1.0  0.15279  0.18301  0.87830  1.0000 -0.3009024615
N   N27       1.0  0.81699  0.84721  0.37830  1.0000 -0.3009024615
N   N28       1.0  0.84721  0.81699  0.12170  1.0000 -0.3009024615
N   N29       1.0  0.28487  0.14413  0.63130  1.0000 0.0454241132
N   N30       1.0  0.14413  0.28487  0.86870  1.0000 0.0454241132
N   N31       1.0  0.71513  0.85587  0.36870  1.0000 0.0454241132
N   N32       1.0  0.85587  0.71513  0.13130  1.0000 0.0454241132
O   O1        1.0  0.83628  0.70832  0.94530  1.0000 -0.5587597306
O   O2        1.0  0.70832  0.83628  0.55470  1.0000 -0.5587597306
O   O3        1.0  0.16372  0.29168  0.05470  1.0000 -0.5587597306
O   O4        1.0  0.29168  0.16372  0.44530  1.0000 -0.5587597306
O   O5        1.0  0.89081  0.86539  0.93510  1.0000 -0.5486305063
O   O6        1.0  0.86539  0.89081  0.56490  1.0000 -0.5486305063
O   O7        1.0  0.10919  0.13461  0.06490  1.0000 -0.5486305063
O   O8        1.0  0.13461  0.10919  0.43510  1.0000 -0.5486305063
O   O9        1.0  0.68376  0.80124  0.90040  1.0000 -0.5486305063
O   O10       1.0  0.80124  0.68376  0.59960  1.0000 -0.5486305063
O   O11       1.0  0.31624  0.19876  0.09960  1.0000 -0.5486305063
O   O12       1.0  0.19876  0.31624  0.40040  1.0000 -0.5486305063
O   O13       1.0  0.78977  0.89483  0.00554  1.0000 -0.5761224682
O   O14       1.0  0.89483  0.78977  0.49446  1.0000 -0.5761224682
O   O15       1.0  0.21023  0.10517  0.99446  1.0000 -0.5761224682
O   O16       1.0  0.10517  0.21023  0.50554  1.0000 -0.5761224682
O   O17       1.0  0.18718  0.64562  0.39420  1.0000 -0.5650246198
O   O18       1.0  0.64562  0.18718  0.10580  1.0000 -0.5587597306
O   O19       1.0  0.81282  0.35438  0.60580  1.0000 -0.5650246198
O   O20       1.0  0.35438  0.81282  0.89420  1.0000 -0.5650246198
O   O21       1.0  0.33328  0.69652  0.44060  1.0000 -0.5486305063
O   O22       1.0  0.69652  0.33328  0.05940  1.0000 -0.5486305063
O   O23       1.0  0.66667  0.30348  0.55940  1.0000 -0.5486305063
O   O24       1.0  0.30348  0.66667  0.94060  1.0000 -0.5486305063
O   O25       1.0  0.13659  0.59361  0.54860  1.0000 -0.5425043757
O   O26       1.0  0.59361  0.13659  0.95140  1.0000 -0.5425043757
O   O27       1.0  0.86341  0.40639  0.45140  1.0000 -0.5425043757
O   O28       1.0  0.40639  0.86341  0.04860  1.0000 -0.5425043757
O   O29       1.0  0.20373  0.72027  0.63310  1.0000 -0.5425043757
O   O30       1.0  0.72027  0.20373  0.86690  1.0000 -0.5425043757
O   O31       1.0  0.79627  0.27973  0.36690  1.0000 -0.5425043757
O   O32       1.0  0.27973  0.79627  0.13310  1.0000 -0.5425043757
