# DDEC6 charges by PACMAN v1.1 (https://github.com/mtap-research/PACMAN-charge/)
data_2010[Cu][wbl]3[ASR]3
_chemical_formula_sum              "Cu8 H128 C224 O40"
_cell_length_a       46.2441
_cell_length_b       46.2441
_cell_length_c       46.2441
_cell_angle_alpha    141.12
_cell_angle_beta     141.12
_cell_angle_gamma    56.1561

_symmetry_space_group_name_H-M    "P 1"
_symmetry_Int_Tables_number       1

loop_
  _symmetry_equiv_pos_as_xyz
  'x, y, z'

loop_
  _atom_site_type_symbol
  _atom_site_label
  _atom_site_symmetry_multiplicity
  _atom_site_fract_x
  _atom_site_fract_y
  _atom_site_fract_z
  _atom_site_occupancy
  _atom_site_charge
Cu  Cu1       1.0  0.58223  0.13773  0.49870  1.0000 0.8567783829
Cu  Cu2       1.0  0.63903  0.08353  0.50130  1.0000 0.8567783829
Cu  Cu3       1.0  0.88773  0.88903  0.05550  1.0000 0.8567783829
Cu  Cu4       1.0  0.83353  0.83223  0.94450  1.0000 0.8567783829
Cu  Cu5       1.0  0.11097  0.11227  0.94450  1.0000 0.8567783829
Cu  Cu6       1.0  0.16777  0.16647  0.05550  1.0000 0.8567783829
Cu  Cu7       1.0  0.91647  0.36097  0.49870  1.0000 0.8567783829
Cu  Cu8       1.0  0.86227  0.41777  0.50130  1.0000 0.8567783829
H   H1        1.0  0.39430  0.98930  0.27200  1.0000 0.1212134963
H   H2        1.0  0.71730  0.12230  0.72800  1.0000 0.1212134963
H   H3        1.0  0.73930  0.96730  0.09500  1.0000 0.1212134963
H   H4        1.0  0.87230  0.64430  0.90500  1.0000 0.1212134963
H   H5        1.0  0.03270  0.26070  0.90500  1.0000 0.1212134963
H   H6        1.0  0.35570  0.12770  0.09500  1.0000 0.1212134963
H   H7        1.0  0.87770  0.28270  0.27200  1.0000 0.1212134963
H   H8        1.0  0.01070  0.60570  0.72800  1.0000 0.1212134963
H   H9        1.0  0.45270  0.04830  0.35140  1.0000 0.1376679116
H   H10       1.0  0.69690  0.10130  0.64860  1.0000 0.1376679116
H   H11       1.0  0.79830  0.94690  0.09560  1.0000 0.1376679116
H   H12       1.0  0.85130  0.70270  0.90440  1.0000 0.1376679116
H   H13       1.0  0.05310  0.20170  0.90440  1.0000 0.1376679116
H   H14       1.0  0.29730  0.14870  0.09560  1.0000 0.1376679116
H   H15       1.0  0.89870  0.30310  0.35140  1.0000 0.1376679116
H   H16       1.0  0.95170  0.54730  0.64860  1.0000 0.1321613372
H   H17       1.0  0.54650  0.95760  0.35730  1.0000 0.1376679116
H   H18       1.0  0.60030  0.18920  0.64270  1.0000 0.1376679116
H   H19       1.0  0.70760  0.85030  0.91110  1.0000 0.1376679116
H   H20       1.0  0.93920  0.79650  0.08890  1.0000 0.1376679116
H   H21       1.0  0.14970  0.29240  0.08890  1.0000 0.1376679116
H   H22       1.0  0.20350  0.06080  0.91110  1.0000 0.1376679116
H   H23       1.0  0.81080  0.39970  0.35730  1.0000 0.1376679116
H   H24       1.0  0.04240  0.45350  0.64270  1.0000 0.1376679116
H   H25       1.0  0.48800  0.89860  0.27780  1.0000 0.1212134963
H   H26       1.0  0.62080  0.21020  0.72220  1.0000 0.1212134963
H   H27       1.0  0.64860  0.87080  0.91060  1.0000 0.1212134963
H   H28       1.0  0.96020  0.73800  0.08940  1.0000 0.1212134963
H   H29       1.0  0.12920  0.35140  0.08940  1.0000 0.1212134963
H   H30       1.0  0.26200  0.03980  0.91060  1.0000 0.1212134963
H   H31       1.0  0.78980  0.37920  0.27780  1.0000 0.1212134963
H   H32       1.0  0.10140  0.51200  0.72220  1.0000 0.1212134963
H   H33       1.0  0.23600  0.01270  0.08290  1.0000 0.1212134963
H   H34       1.0  0.92980  0.15310  0.91710  1.0000 0.1212134963
H   H35       1.0  0.76270  0.17980  0.27670  1.0000 0.1212134963
H   H36       1.0  0.90310  0.48600  0.72330  1.0000 0.1212134963
H   H37       1.0  0.82020  0.23730  0.72330  1.0000 0.1212134963
H   H38       1.0  0.51400  0.09690  0.27670  1.0000 0.1212134963
H   H39       1.0  0.84690  0.07020  0.08290  1.0000 0.1212134963
H   H40       1.0  0.98730  0.76400  0.91710  1.0000 0.1212134963
H   H41       1.0  0.22690  0.07320  0.09150  1.0000 0.1376679116
H   H42       1.0  0.98170  0.13540  0.90850  1.0000 0.1376679116
H   H43       1.0  0.82320  0.23170  0.34630  1.0000 0.1376679116
H   H44       1.0  0.88540  0.47690  0.65370  1.0000 0.1376679116
H   H45       1.0  0.76830  0.17680  0.65370  1.0000 0.1376679116
H   H46       1.0  0.52310  0.11460  0.34630  1.0000 0.1376679116
H   H47       1.0  0.86460  0.01830  0.09150  1.0000 0.1376679116
H   H48       1.0  0.92680  0.77310  0.90850  1.0000 0.1376679116
H   H49       1.0  0.11620  0.99710  0.91050  1.0000 0.1321613372
H   H50       1.0  0.08660  0.20570  0.08950  1.0000 0.1376679116
H   H51       1.0  0.74710  0.33660  0.38090  1.0000 0.1376679116
H   H52       1.0  0.95570  0.36620  0.61910  1.0000 0.1376679116
H   H53       1.0  0.66340  0.25290  0.61910  1.0000 0.1376679116
H   H54       1.0  0.63380  0.04430  0.38090  1.0000 0.1321613372
H   H55       1.0  0.79430  0.91340  0.91050  1.0000 0.1321613372
H   H56       1.0  0.00290  0.88380  0.08950  1.0000 0.1321613372
H   H57       1.0  0.12530  0.93670  0.90200  1.0000 0.1212134963
H   H58       1.0  0.03470  0.22330  0.09800  1.0000 0.1212134963
H   H59       1.0  0.68670  0.28470  0.31140  1.0000 0.1212134963
H   H60       1.0  0.97330  0.37530  0.68860  1.0000 0.1212134963
H   H61       1.0  0.71530  0.31330  0.68860  1.0000 0.1212134963
H   H62       1.0  0.62470  0.02670  0.31140  1.0000 0.1212134963
H   H63       1.0  0.77670  0.96530  0.90200  1.0000 0.1212134963
H   H64       1.0  0.06330  0.87470  0.09800  1.0000 0.1212134963
H   H65       1.0  0.35170  0.83180  0.15530  1.0000 0.1321613372
H   H66       1.0  0.67650  0.19640  0.84470  1.0000 0.1321613372
H   H67       1.0  0.58180  0.92650  0.98010  1.0000 0.1321613372
H   H68       1.0  0.94640  0.60170  0.01990  1.0000 0.1321613372
H   H69       1.0  0.07350  0.41820  0.01990  1.0000 0.1321613372
H   H70       1.0  0.39830  0.05360  0.98010  1.0000 0.1321613372
H   H71       1.0  0.80360  0.32350  0.15530  1.0000 0.1321613372
H   H72       1.0  0.16820  0.64830  0.84470  1.0000 0.1321613372
H   H73       1.0  0.29170  0.91910  0.10780  1.0000 0.1095062744
H   H74       1.0  0.81130  0.18390  0.89220  1.0000 0.1095062744
H   H75       1.0  0.66910  0.06130  0.12740  1.0000 0.1095062744
H   H76       1.0  0.93390  0.54170  0.87260  1.0000 0.1095062744
H   H77       1.0  0.93870  0.33090  0.87260  1.0000 0.1095062744
H   H78       1.0  0.45830  0.06610  0.12740  1.0000 0.1095062744
H   H79       1.0  0.81610  0.18870  0.10780  1.0000 0.1095062744
H   H80       1.0  0.08090  0.70830  0.89220  1.0000 0.1095062744
H   H81       1.0  0.16310  0.85820  0.94410  1.0000 0.1212134963
H   H82       1.0  0.91410  0.21900  0.05590  1.0000 0.1212134963
H   H83       1.0  0.60820  0.16410  0.19510  1.0000 0.1212134963
H   H84       1.0  0.96900  0.41310  0.80490  1.0000 0.1212134963
H   H85       1.0  0.83590  0.39180  0.80490  1.0000 0.1212134963
H   H86       1.0  0.58690  0.03100  0.19510  1.0000 0.1212134963
H   H87       1.0  0.78100  0.08590  0.94410  1.0000 0.1212134963
H   H88       1.0  0.14180  0.83690  0.05590  1.0000 0.1212134963
H   H89       1.0  0.17340  0.80090  0.94230  1.0000 0.1212134963
H   H90       1.0  0.85860  0.23110  0.05770  1.0000 0.1212134963
H   H91       1.0  0.55090  0.10860  0.12750  1.0000 0.1212134963
H   H92       1.0  0.98110  0.42340  0.87250  1.0000 0.1212134963
H   H93       1.0  0.89140  0.44910  0.87250  1.0000 0.1212134963
H   H94       1.0  0.57660  0.01890  0.12750  1.0000 0.1212134963
H   H95       1.0  0.76890  0.14140  0.94230  1.0000 0.1212134963
H   H96       1.0  0.19910  0.82660  0.05770  1.0000 0.1212134963
H   H97       1.0  0.34510  0.93060  0.18230  1.0000 0.1046430316
H   H98       1.0  0.74830  0.16280  0.81770  1.0000 0.1095062744
H   H99       1.0  0.68060  0.99830  0.08550  1.0000 0.1095062744
H   H100      1.0  0.91280  0.59510  0.91450  1.0000 0.1046430316
H   H101      1.0  0.00170  0.31940  0.91450  1.0000 0.1095062744
H   H102      1.0  0.40490  0.08720  0.08550  1.0000 0.1095062744
H   H103      1.0  0.83720  0.25170  0.18230  1.0000 0.1095062744
H   H104      1.0  0.06940  0.65490  0.81770  1.0000 0.1046430316
H   H105      1.0  0.40710  0.87140  0.20710  1.0000 0.1095062744
H   H106      1.0  0.66430  0.20000  0.79290  1.0000 0.1212134963
H   H107      1.0  0.62140  0.91430  0.96430  1.0000 0.1095062744
H   H108      1.0  0.95000  0.65710  0.03570  1.0000 0.1095062744
H   H109      1.0  0.08570  0.37860  0.03570  1.0000 0.1212134963
H   H110      1.0  0.34290  0.05000  0.96430  1.0000 0.1212134963
H   H111      1.0  0.80000  0.33570  0.20710  1.0000 0.1212134963
H   H112      1.0  0.12860  0.59290  0.79290  1.0000 0.1212134963
H   H113      1.0  0.24640  0.95890  0.07010  1.0000 0.1095062744
H   H114      1.0  0.88880  0.17630  0.92990  1.0000 0.1095062744
H   H115      1.0  0.70890  0.13880  0.21250  1.0000 0.1095062744
H   H116      1.0  0.92630  0.49640  0.78750  1.0000 0.1095062744
H   H117      1.0  0.86120  0.29110  0.78750  1.0000 0.1095062744
H   H118      1.0  0.50360  0.07370  0.21250  1.0000 0.1095062744
H   H119      1.0  0.82370  0.11120  0.07010  1.0000 0.1095062744
H   H120      1.0  0.04110  0.75360  0.92990  1.0000 0.1095062744
H   H121      1.0  0.16210  0.90160  0.94430  1.0000 0.1095062744
H   H122      1.0  0.95730  0.21780  0.05570  1.0000 0.1095062744
H   H123      1.0  0.65160  0.20730  0.23950  1.0000 0.1095062744
H   H124      1.0  0.96780  0.41210  0.76050  1.0000 0.1095062744
H   H125      1.0  0.79270  0.34840  0.76050  1.0000 0.1095062744
H   H126      1.0  0.58790  0.03220  0.23950  1.0000 0.1095062744
H   H127      1.0  0.78220  0.04270  0.94430  1.0000 0.1095062744
H   H128      1.0  0.09840  0.83790  0.05570  1.0000 0.1095062744
C   C1        1.0  0.43536  0.93816  0.26700  1.0000 0.1212134963
C   C2        1.0  0.67116  0.16836  0.73300  1.0000 0.1212134963
C   C3        1.0  0.68816  0.92116  0.00280  1.0000 0.1212134963
C   C4        1.0  0.91836  0.68536  0.99720  1.0000 0.1212134963
C   C5        1.0  0.07884  0.31184  0.99720  1.0000 0.1212134963
C   C6        1.0  0.31464  0.08164  0.00280  1.0000 0.1212134963
C   C7        1.0  0.83164  0.32884  0.26700  1.0000 0.1212134963
C   C8        1.0  0.06184  0.56464  0.73300  1.0000 0.1212134963
C   C9        1.0  0.42480  0.98290  0.28910  1.0000 -0.1491066754
C   C10       1.0  0.69380  0.13570  0.71090  1.0000 -0.1491066754
C   C11       1.0  0.73290  0.94380  0.05810  1.0000 -0.1491066754
C   C12       1.0  0.88570  0.67480  0.94190  1.0000 -0.1491066754
C   C13       1.0  0.05620  0.26710  0.94190  1.0000 -0.1491066754
C   C14       1.0  0.32520  0.11430  0.05810  1.0000 -0.1491066754
C   C15       1.0  0.86430  0.30620  0.28910  1.0000 -0.1491066754
C   C16       1.0  0.01710  0.57520  0.71090  1.0000 -0.1491066754
C   C17       1.0  0.45980  0.01830  0.33670  1.0000 -0.0899109811
C   C18       1.0  0.68160  0.12310  0.66330  1.0000 -0.0899109811
C   C19       1.0  0.76830  0.93160  0.05850  1.0000 -0.0899109811
C   C20       1.0  0.87310  0.70980  0.94150  1.0000 -0.0899109811
C   C21       1.0  0.06840  0.23170  0.94150  1.0000 -0.0899109811
C   C22       1.0  0.29020  0.12690  0.05850  1.0000 -0.0899109811
C   C23       1.0  0.87690  0.31840  0.33670  1.0000 -0.0899109811
C   C24       1.0  0.98170  0.54020  0.66330  1.0000 -0.0899109811
C   C25       1.0  0.50537  0.00877  0.36220  1.0000 -0.012601149
C   C26       1.0  0.64657  0.14317  0.63780  1.0000 -0.012601149
C   C27       1.0  0.75877  0.89657  0.00340  1.0000 -0.012601149
C   C28       1.0  0.89317  0.75537  0.99660  1.0000 -0.012601149
C   C29       1.0  0.10343  0.24123  0.99660  1.0000 -0.012601149
C   C30       1.0  0.24463  0.10683  0.00340  1.0000 -0.012601149
C   C31       1.0  0.85683  0.35343  0.36220  1.0000 -0.012601149
C   C32       1.0  0.99123  0.49463  0.63780  1.0000 -0.012601149
C   C33       1.0  0.51600  0.96400  0.34020  1.0000 -0.0899109811
C   C34       1.0  0.62380  0.17580  0.65980  1.0000 -0.0899109811
C   C35       1.0  0.71400  0.87380  0.94800  1.0000 -0.0899109811
C   C36       1.0  0.92580  0.76600  0.05200  1.0000 -0.0899109811
C   C37       1.0  0.12620  0.28600  0.05200  1.0000 -0.0899109811
C   C38       1.0  0.23400  0.07420  0.94800  1.0000 -0.0899109811
C   C39       1.0  0.82420  0.37620  0.34020  1.0000 -0.0899109811
C   C40       1.0  0.03600  0.48400  0.65980  1.0000 -0.0899109811
C   C41       1.0  0.48100  0.92860  0.29260  1.0000 -0.1375622325
C   C42       1.0  0.63600  0.18840  0.70740  1.0000 -0.1375622325
C   C43       1.0  0.67860  0.88600  0.94760  1.0000 -0.1375622325
C   C44       1.0  0.93840  0.73100  0.05240  1.0000 -0.1375622325
C   C45       1.0  0.11400  0.32140  0.05240  1.0000 -0.1375622325
C   C46       1.0  0.26900  0.06160  0.94760  1.0000 -0.1375622325
C   C47       1.0  0.81160  0.36400  0.29260  1.0000 -0.1375622325
C   C48       1.0  0.07140  0.51900  0.70740  1.0000 -0.1375622325
C   C49       1.0  0.54510  0.04860  0.41650  1.0000 0.5818328928
C   C50       1.0  0.63210  0.12860  0.58350  1.0000 0.5818328928
C   C51       1.0  0.79860  0.88210  0.00350  1.0000 0.5818328928
C   C52       1.0  0.87860  0.79510  0.99650  1.0000 0.5818328928
C   C53       1.0  0.11790  0.20140  0.99650  1.0000 0.5818328928
C   C54       1.0  0.20490  0.12140  0.00350  1.0000 0.5818328928
C   C55       1.0  0.87140  0.36790  0.41650  1.0000 0.5818328928
C   C56       1.0  0.95140  0.45490  0.58350  1.0000 0.5818328928
C   C57       1.0  0.18161  0.96871  0.99170  1.0000 0.1321613372
C   C58       1.0  0.97701  0.18991  0.00830  1.0000 0.1321613372
C   C59       1.0  0.71871  0.22701  0.28710  1.0000 0.1321613372
C   C60       1.0  0.93991  0.43161  0.71290  1.0000 0.1321613372
C   C61       1.0  0.77299  0.28129  0.71290  1.0000 0.1321613372
C   C62       1.0  0.56839  0.06009  0.28710  1.0000 0.1321613372
C   C63       1.0  0.81009  0.02299  0.99170  1.0000 0.1321613372
C   C64       1.0  0.03129  0.81839  0.00830  1.0000 0.1321613372
C   C65       1.0  0.21200  0.00960  0.04840  1.0000 -0.1565081472
C   C66       1.0  0.96120  0.16360  0.95160  1.0000 -0.1565081472
C   C67       1.0  0.75960  0.21120  0.29760  1.0000 -0.1565081472
C   C68       1.0  0.91360  0.46200  0.70240  1.0000 -0.1565081472
C   C69       1.0  0.78880  0.24040  0.70240  1.0000 -0.1565081472
C   C70       1.0  0.53800  0.08640  0.29760  1.0000 -0.1565081472
C   C71       1.0  0.83640  0.03880  0.04840  1.0000 -0.1565081472
C   C72       1.0  0.99040  0.78800  0.95160  1.0000 -0.1565081472
C   C73       1.0  0.20650  0.04580  0.05350  1.0000 -0.0772095252
C   C74       1.0  0.99230  0.15300  0.94650  1.0000 -0.0772095252
C   C75       1.0  0.79580  0.24230  0.33930  1.0000 -0.0772095252
C   C76       1.0  0.90300  0.45650  0.66070  1.0000 -0.0772095252
C   C77       1.0  0.75770  0.20420  0.66070  1.0000 -0.0772095252
C   C78       1.0  0.54350  0.09700  0.33930  1.0000 -0.0772095252
C   C79       1.0  0.84700  0.00770  0.05350  1.0000 -0.073871665
C   C80       1.0  0.95420  0.79350  0.94650  1.0000 -0.073871665
C   C81       1.0  0.17066  0.04116  0.00190  1.0000 -0.047387075
C   C82       1.0  0.03926  0.16876  0.99810  1.0000 -0.047387075
C   C83       1.0  0.79116  0.28926  0.37050  1.0000 -0.047387075
C   C84       1.0  0.91876  0.42066  0.62950  1.0000 -0.047387075
C   C85       1.0  0.71074  0.20884  0.62950  1.0000 -0.047387075
C   C86       1.0  0.57934  0.08124  0.37050  1.0000 -0.047387075
C   C87       1.0  0.83124  0.96074  0.00190  1.0000 -0.047387075
C   C88       1.0  0.95884  0.82934  0.99810  1.0000 -0.047387075
C   C89       1.0  0.14020  0.00030  0.94510  1.0000 -0.0772095252
C   C90       1.0  0.05520  0.19510  0.05490  1.0000 -0.0772095252
C   C91       1.0  0.75030  0.30520  0.36010  1.0000 -0.0772095252
C   C92       1.0  0.94510  0.39020  0.63990  1.0000 -0.0772095252
C   C93       1.0  0.69480  0.24970  0.63990  1.0000 -0.0772095252
C   C94       1.0  0.60980  0.05490  0.36010  1.0000 -0.0772095252
C   C95       1.0  0.80490  0.94480  0.94510  1.0000 -0.0772095252
C   C96       1.0  0.99970  0.85980  0.05490  1.0000 -0.0772095252
C   C97       1.0  0.14570  0.96410  0.94000  1.0000 -0.1491066754
C   C98       1.0  0.02410  0.20570  0.06000  1.0000 -0.1491066754
C   C99       1.0  0.71410  0.27410  0.31840  1.0000 -0.1491066754
C   C100      1.0  0.95570  0.39570  0.68160  1.0000 -0.1491066754
C   C101      1.0  0.72590  0.28590  0.68160  1.0000 -0.1491066754
C   C102      1.0  0.60430  0.04430  0.31840  1.0000 -0.1491066754
C   C103      1.0  0.79430  0.97590  0.94000  1.0000 -0.1491066754
C   C104      1.0  0.03590  0.85430  0.06000  1.0000 -0.1491066754
C   C105      1.0  0.16140  0.07660  0.00140  1.0000 0.5715534236
C   C106      1.0  0.07520  0.16000  0.99860  1.0000 0.5715534236
C   C107      1.0  0.82660  0.32520  0.41520  1.0000 0.5715534236
C   C108      1.0  0.91000  0.41140  0.58480  1.0000 0.5715534236
C   C109      1.0  0.67480  0.17340  0.58480  1.0000 0.5715534236
C   C110      1.0  0.58860  0.09000  0.41520  1.0000 0.5715534236
C   C111      1.0  0.84000  0.92480  0.00140  1.0000 0.5715534236
C   C112      1.0  0.92340  0.83860  0.99860  1.0000 0.5715534236
C   C113      1.0  0.24621  0.79181  0.02400  1.0000 -0.0361214446
C   C114      1.0  0.76781  0.22221  0.97600  1.0000 -0.0335321609
C   C115      1.0  0.54181  0.01781  0.04560  1.0000 -0.0335321609
C   C116      1.0  0.97221  0.49621  0.95440  1.0000 -0.0335321609
C   C117      1.0  0.98219  0.45819  0.95440  1.0000 -0.0335321609
C   C118      1.0  0.50379  0.02779  0.04560  1.0000 -0.0361214446
C   C119      1.0  0.77779  0.23219  0.02400  1.0000 -0.0361214446
C   C120      1.0  0.20819  0.75379  0.97600  1.0000 -0.0335321609
C   C121      1.0  0.28847  0.79417  0.07310  1.0000 0.2687402438
C   C122      1.0  0.72107  0.21537  0.92690  1.0000 0.2687402438
C   C123      1.0  0.54417  0.97107  0.00570  1.0000 0.2687402438
C   C124      1.0  0.96537  0.53847  0.99430  1.0000 0.2687402438
C   C125      1.0  0.02893  0.45583  0.99430  1.0000 0.2687402438
C   C126      1.0  0.46153  0.03463  0.00570  1.0000 0.2687402438
C   C127      1.0  0.78463  0.27893  0.07310  1.0000 0.2687402438
C   C128      1.0  0.20583  0.71153  0.92690  1.0000 0.2687402438
C   C129      1.0  0.32350  0.83020  0.12250  1.0000 -0.2411840133
C   C130      1.0  0.70770  0.20100  0.87750  1.0000 -0.2411840133
C   C131      1.0  0.58020  0.95770  0.00670  1.0000 -0.2411840133
C   C132      1.0  0.95100  0.57350  0.99330  1.0000 -0.2411840133
C   C133      1.0  0.04230  0.41980  0.99330  1.0000 -0.2411840133
C   C134      1.0  0.42650  0.04900  0.00670  1.0000 -0.2411840133
C   C135      1.0  0.79900  0.29230  0.12250  1.0000 -0.2411840133
C   C136      1.0  0.16980  0.67650  0.87750  1.0000 -0.2411840133
C   C137      1.0  0.31602  0.86392  0.12270  1.0000 0.0881389432
C   C138      1.0  0.74122  0.19332  0.87730  1.0000 0.0881389432
C   C139      1.0  0.61392  0.99122  0.04790  1.0000 0.0881389432
C   C140      1.0  0.94332  0.56602  0.95210  1.0000 0.0881389432
C   C141      1.0  0.00878  0.38608  0.95210  1.0000 0.0881389432
C   C142      1.0  0.43398  0.05668  0.04790  1.0000 0.0881389432
C   C143      1.0  0.80668  0.25878  0.12270  1.0000 0.0881389432
C   C144      1.0  0.13608  0.68398  0.87730  1.0000 0.0881389432
C   C145      1.0  0.27375  0.86155  0.07360  1.0000 0.0232291958
C   C146      1.0  0.78795  0.20015  0.92640  1.0000 0.0232291958
C   C147      1.0  0.61155  0.03795  0.08780  1.0000 0.0232291958
C   C148      1.0  0.95015  0.52375  0.91220  1.0000 0.0232291958
C   C149      1.0  0.96205  0.38845  0.91220  1.0000 0.0232291958
C   C150      1.0  0.47625  0.04985  0.08780  1.0000 0.0232291958
C   C151      1.0  0.79985  0.21205  0.07360  1.0000 0.0232291958
C   C152      1.0  0.13845  0.72625  0.92640  1.0000 0.0232291958
C   C153      1.0  0.23890  0.82560  0.02430  1.0000 0.0360727291
C   C154      1.0  0.80130  0.21460  0.97570  1.0000 0.0346090585
C   C155      1.0  0.57560  0.05130  0.08670  1.0000 0.0346090585
C   C156      1.0  0.96460  0.48890  0.91330  1.0000 0.0346090585
C   C157      1.0  0.94870  0.42440  0.91330  1.0000 0.0360727291
C   C158      1.0  0.51110  0.03540  0.08670  1.0000 0.0360727291
C   C159      1.0  0.78540  0.19870  0.02430  1.0000 0.0360727291
C   C160      1.0  0.17440  0.76110  0.97570  1.0000 0.0360727291
C   C161      1.0  0.26750  0.89570  0.07440  1.0000 -0.1852993075
C   C162      1.0  0.82130  0.19310  0.92560  1.0000 -0.1852993075
C   C163      1.0  0.64570  0.07130  0.12820  1.0000 -0.1852993075
C   C164      1.0  0.94310  0.51750  0.87180  1.0000 -0.1852993075
C   C165      1.0  0.92870  0.35430  0.87180  1.0000 -0.1844883565
C   C166      1.0  0.48250  0.05690  0.12820  1.0000 -0.1844883565
C   C167      1.0  0.80690  0.17870  0.07440  1.0000 -0.1844883565
C   C168      1.0  0.10430  0.73250  0.92560  1.0000 -0.1852993075
C   C169      1.0  0.22570  0.89520  0.02610  1.0000 0.1212134963
C   C170      1.0  0.86910  0.19960  0.97390  1.0000 0.1212134963
C   C171      1.0  0.64520  0.11910  0.16950  1.0000 0.1212134963
C   C172      1.0  0.94960  0.47570  0.83050  1.0000 0.1321613372
C   C173      1.0  0.88090  0.35480  0.83050  1.0000 0.1212134963
C   C174      1.0  0.52430  0.05040  0.16950  1.0000 0.1212134963
C   C175      1.0  0.80040  0.13090  0.02610  1.0000 0.1212134963
C   C176      1.0  0.10480  0.77430  0.97390  1.0000 0.1212134963
C   C177      1.0  0.19100  0.85960  0.97700  1.0000 -0.1491066754
C   C178      1.0  0.88260  0.21400  0.02300  1.0000 -0.1491066754
C   C179      1.0  0.60960  0.13260  0.16860  1.0000 -0.1491066754
C   C180      1.0  0.96400  0.44100  0.83140  1.0000 -0.1491066754
C   C181      1.0  0.86740  0.39040  0.83140  1.0000 -0.1491066754
C   C182      1.0  0.55900  0.03600  0.16860  1.0000 -0.1491066754
C   C183      1.0  0.78600  0.11740  0.97700  1.0000 -0.1491066754
C   C184      1.0  0.14040  0.80900  0.02300  1.0000 -0.1491066754
C   C185      1.0  0.19750  0.82470  0.97600  1.0000 -0.1252552573
C   C186      1.0  0.84870  0.22150  0.02400  1.0000 -0.1252552573
C   C187      1.0  0.57470  0.09870  0.12720  1.0000 -0.1244976971
C   C188      1.0  0.97150  0.44750  0.87280  1.0000 -0.1244976971
C   C189      1.0  0.90130  0.42530  0.87280  1.0000 -0.1252552573
C   C190      1.0  0.55250  0.02850  0.12720  1.0000 -0.1252552573
C   C191      1.0  0.77850  0.15130  0.97600  1.0000 -0.1244976971
C   C192      1.0  0.17530  0.80250  0.02400  1.0000 -0.1252552573
C   C193      1.0  0.35290  0.90340  0.17550  1.0000 -0.1491066754
C   C194      1.0  0.72790  0.17740  0.82450  1.0000 -0.1491066754
C   C195      1.0  0.65340  0.97790  0.05050  1.0000 -0.1491066754
C   C196      1.0  0.92740  0.60290  0.94950  1.0000 -0.1491066754
C   C197      1.0  0.02210  0.34660  0.94950  1.0000 -0.1491066754
C   C198      1.0  0.39710  0.07260  0.05050  1.0000 -0.1491066754
C   C199      1.0  0.82260  0.27210  0.17550  1.0000 -0.1491066754
C   C200      1.0  0.09660  0.64710  0.82450  1.0000 -0.1491066754
C   C201      1.0  0.39920  0.89870  0.21430  1.0000 -0.1491066754
C   C202      1.0  0.68440  0.18490  0.78570  1.0000 -0.1491066754
C   C203      1.0  0.64870  0.93440  0.99950  1.0000 -0.1491066754
C   C204      1.0  0.93490  0.64920  0.00050  1.0000 -0.1491066754
C   C205      1.0  0.06560  0.35130  0.00050  1.0000 -0.1491066754
C   C206      1.0  0.35080  0.06510  0.99950  1.0000 -0.1491066754
C   C207      1.0  0.81510  0.31560  0.21430  1.0000 -0.1491066754
C   C208      1.0  0.10130  0.60080  0.78570  1.0000 -0.1491066754
C   C209      1.0  0.22370  0.93340  0.03390  1.0000 -0.1565081472
C   C210      1.0  0.89950  0.18980  0.96610  1.0000 -0.1565081472
C   C211      1.0  0.68340  0.14950  0.20970  1.0000 -0.1565081472
C   C212      1.0  0.93980  0.47370  0.79030  1.0000 -0.1565081472
C   C213      1.0  0.85050  0.31660  0.79030  1.0000 -0.1565081472
C   C214      1.0  0.52630  0.06020  0.20970  1.0000 -0.1565081472
C   C215      1.0  0.81020  0.10050  0.03390  1.0000 -0.1565081472
C   C216      1.0  0.06660  0.77630  0.96610  1.0000 -0.1565081472
C   C217      1.0  0.18420  0.92770  0.98130  1.0000 -0.1672555808
C   C218      1.0  0.94640  0.20290  0.01870  1.0000 -0.1672555808
C   C219      1.0  0.67770  0.19640  0.24350  1.0000 -0.1672555808
C   C220      1.0  0.95290  0.43420  0.75650  1.0000 -0.1672555808
C   C221      1.0  0.80360  0.32230  0.75650  1.0000 -0.1672555808
C   C222      1.0  0.56580  0.04710  0.24350  1.0000 -0.1672555808
C   C223      1.0  0.79710  0.05360  0.98130  1.0000 -0.1672555808
C   C224      1.0  0.07230  0.81580  0.01870  1.0000 -0.1672555808
O   O1        1.0  0.53400  0.08980  0.43780  1.0000 -0.5026176178
O   O2        1.0  0.65200  0.09620  0.56220  1.0000 -0.5060123805
O   O3        1.0  0.83980  0.90200  0.05580  1.0000 -0.5060123805
O   O4        1.0  0.84620  0.78400  0.94420  1.0000 -0.5060123805
O   O5        1.0  0.09800  0.16020  0.94420  1.0000 -0.5060123805
O   O6        1.0  0.21600  0.15380  0.05580  1.0000 -0.5026176178
O   O7        1.0  0.90380  0.34800  0.43780  1.0000 -0.5026176178
O   O8        1.0  0.91020  0.46600  0.56220  1.0000 -0.5026176178
O   O9        1.0  0.58560  0.04110  0.43870  1.0000 -0.5026176178
O   O10       1.0  0.60240  0.14690  0.56130  1.0000 -0.5026176178
O   O11       1.0  0.79110  0.85240  0.95550  1.0000 -0.5026176178
O   O12       1.0  0.89690  0.83560  0.04450  1.0000 -0.5026176178
O   O13       1.0  0.14760  0.20890  0.04450  1.0000 -0.5026176178
O   O14       1.0  0.16440  0.10310  0.95550  1.0000 -0.5026176178
O   O15       1.0  0.85310  0.39760  0.43870  1.0000 -0.5026176178
O   O16       1.0  0.95890  0.41440  0.56130  1.0000 -0.5026176178
O   O17       1.0  0.12660  0.06840  0.95040  1.0000 -0.5162580166
O   O18       1.0  0.11800  0.17620  0.04960  1.0000 -0.5162580166
O   O19       1.0  0.81840  0.36800  0.44180  1.0000 -0.5162580166
O   O20       1.0  0.92620  0.37660  0.55820  1.0000 -0.5162580166
O   O21       1.0  0.63200  0.18160  0.55820  1.0000 -0.5162580166
O   O22       1.0  0.62340  0.07380  0.44180  1.0000 -0.5162580166
O   O23       1.0  0.82380  0.88200  0.95040  1.0000 -0.5162580166
O   O24       1.0  0.93160  0.87340  0.04960  1.0000 -0.5162580166
O   O25       1.0  0.18450  0.11620  0.04850  1.0000 -0.4829840217
O   O26       1.0  0.06770  0.13600  0.95150  1.0000 -0.4829840217
O   O27       1.0  0.86620  0.31770  0.43170  1.0000 -0.4829840217
O   O28       1.0  0.88600  0.43450  0.56830  1.0000 -0.4829840217
O   O29       1.0  0.68230  0.13380  0.56830  1.0000 -0.4829840217
O   O30       1.0  0.56550  0.11400  0.43170  1.0000 -0.4829840217
O   O31       1.0  0.86400  0.93230  0.04850  1.0000 -0.4829840217
O   O32       1.0  0.88380  0.81550  0.95150  1.0000 -0.4829840217
O   O33       1.0  0.29660  0.76040  0.07220  1.0000 -0.4160827998
O   O34       1.0  0.68820  0.22440  0.92780  1.0000 -0.4160827998
O   O35       1.0  0.51040  0.93820  0.96380  1.0000 -0.4143642489
O   O36       1.0  0.97440  0.54660  0.03620  1.0000 -0.4160827998
O   O37       1.0  0.06180  0.48960  0.03620  1.0000 -0.4143642489
O   O38       1.0  0.45340  0.02560  0.96380  1.0000 -0.4143642489
O   O39       1.0  0.77560  0.31180  0.07220  1.0000 -0.3971772198
O   O40       1.0  0.23960  0.70340  0.92780  1.0000 -0.4143642489
