# DDEC6 charges by PACMAN v1.1 (https://github.com/mtap-research/PACMAN-charge/)
data_2010[Cu][nan]3[ASR]8
_chemical_formula_sum              "Cu8 H12 C32 S4 O32"
_cell_length_a       7.2949
_cell_length_b       18.2726
_cell_length_c       11.9636
_cell_angle_alpha    90
_cell_angle_beta     122.521
_cell_angle_gamma    90

_symmetry_space_group_name_H-M    "P 1"
_symmetry_Int_Tables_number       1

loop_
  _symmetry_equiv_pos_as_xyz
  'x, y, z'

loop_
  _atom_site_type_symbol
  _atom_site_label
  _atom_site_symmetry_multiplicity
  _atom_site_fract_x
  _atom_site_fract_y
  _atom_site_fract_z
  _atom_site_occupancy
  _atom_site_charge
Cu  Cu1       1.0  0.35081  0.09248  0.21714  1.0000 1.043562826
Cu  Cu2       1.0  0.64919  0.59248  0.28286  1.0000 1.043562826
Cu  Cu3       1.0  0.64919  0.90752  0.78286  1.0000 1.043562826
Cu  Cu4       1.0  0.35081  0.40752  0.71714  1.0000 1.043562826
Cu  Cu5       1.0  0.88436  0.06851  0.93577  1.0000 1.1410151387
Cu  Cu6       1.0  0.11564  0.56851  0.56423  1.0000 1.1410151387
Cu  Cu7       1.0  0.11564  0.93149  0.06423  1.0000 1.1410151387
Cu  Cu8       1.0  0.88436  0.43149  0.43577  1.0000 1.1410151387
H   H1        1.0  0.37880  0.30500  0.17090  1.0000 0.1495846425
H   H2        1.0  0.62120  0.80500  0.32910  1.0000 0.1495846425
H   H3        1.0  0.62120  0.69500  0.82910  1.0000 0.1495846425
H   H4        1.0  0.37880  0.19500  0.67090  1.0000 0.1495846425
H   H5        1.0  0.84900  0.29320  0.80100  1.0000 0.1495846425
H   H6        1.0  0.15100  0.79320  0.69900  1.0000 0.1495846425
H   H7        1.0  0.15100  0.70680  0.19900  1.0000 0.1495846425
H   H8        1.0  0.84900  0.20680  0.30100  1.0000 0.1495846425
H   H9        1.0  0.15520  0.48670  0.94570  1.0000 0.1495846425
H   H10       1.0  0.84480  0.98670  0.55430  1.0000 0.1495846425
H   H11       1.0  0.84480  0.51330  0.05430  1.0000 0.1495846425
H   H12       1.0  0.15520  0.01330  0.44570  1.0000 0.1495846425
C   C1        1.0  0.98150  0.39511  0.85550  1.0000 -0.0663736386
C   C2        1.0  0.01850  0.89511  0.64450  1.0000 -0.0663736386
C   C3        1.0  0.01850  0.60489  0.14450  1.0000 -0.0663736386
C   C4        1.0  0.98150  0.10489  0.35550  1.0000 -0.0663736386
C   C5        1.0  0.29390  0.40243  0.07700  1.0000 -0.0029481892
C   C6        1.0  0.70610  0.90243  0.42300  1.0000 -0.0029481892
C   C7        1.0  0.70610  0.59757  0.92300  1.0000 -0.0029481892
C   C8        1.0  0.29390  0.09757  0.57700  1.0000 -0.0029481892
C   C9        1.0  0.27760  0.32779  0.09160  1.0000 -0.0822061878
C   C10       1.0  0.72240  0.82779  0.40840  1.0000 -0.0822061878
C   C11       1.0  0.72240  0.67221  0.90840  1.0000 -0.0822061878
C   C12       1.0  0.27760  0.17221  0.59160  1.0000 -0.0822061878
C   C13       1.0  0.11150  0.28642  0.98910  1.0000 -0.0052771445
C   C14       1.0  0.88850  0.78642  0.51090  1.0000 -0.0052771445
C   C15       1.0  0.88850  0.71358  0.01090  1.0000 -0.0052771445
C   C16       1.0  0.11150  0.21358  0.48910  1.0000 -0.0052771445
C   C17       1.0  0.10340  0.20632  0.01170  1.0000 0.62042233
C   C18       1.0  0.89660  0.70632  0.48830  1.0000 0.62042233
C   C19       1.0  0.89660  0.79368  0.98830  1.0000 0.62042233
C   C20       1.0  0.10340  0.29368  0.51170  1.0000 0.62042233
C   C21       1.0  0.96120  0.32004  0.87000  1.0000 -0.0822061878
C   C22       1.0  0.03880  0.82004  0.63000  1.0000 -0.0822061878
C   C23       1.0  0.03880  0.67996  0.13000  1.0000 -0.0858224054
C   C24       1.0  0.96120  0.17996  0.37000  1.0000 -0.0822061878
C   C25       1.0  0.14480  0.43689  0.95700  1.0000 -0.0858224054
C   C26       1.0  0.85520  0.93689  0.54300  1.0000 -0.0858224054
C   C27       1.0  0.85520  0.56311  0.04300  1.0000 -0.0858224054
C   C28       1.0  0.14480  0.06311  0.45700  1.0000 -0.0858224054
C   C29       1.0  0.47610  0.44445  0.18880  1.0000 0.61240932
C   C30       1.0  0.52390  0.94445  0.31120  1.0000 0.61240932
C   C31       1.0  0.52390  0.55555  0.81120  1.0000 0.61240932
C   C32       1.0  0.47610  0.05555  0.68880  1.0000 0.61240932
S   S1        1.0  0.81022  0.43351  0.69624  1.0000 1.1937842831
S   S2        1.0  0.18978  0.93351  0.80376  1.0000 1.1961534882
S   S3        1.0  0.18978  0.56649  0.30376  1.0000 1.1937842831
S   S4        1.0  0.81022  0.06649  0.19624  1.0000 1.1937842831
O   O1        1.0  0.96079  0.16769  0.91639  1.0000 -0.5191452985
O   O2        1.0  0.03921  0.66769  0.58361  1.0000 -0.5191452985
O   O3        1.0  0.03921  0.83231  0.08361  1.0000 -0.5191452985
O   O4        1.0  0.96079  0.33231  0.41639  1.0000 -0.5191452985
O   O5        1.0  0.18587  0.03499  0.05287  1.0000 -0.8895403778
O   O6        1.0  0.81413  0.53499  0.44713  1.0000 -0.8895403778
O   O7        1.0  0.81413  0.96501  0.94713  1.0000 -0.8895403778
O   O8        1.0  0.18587  0.46501  0.55287  1.0000 -0.8895403778
O   O9        1.0  0.50412  0.50975  0.16722  1.0000 -0.5545279419
O   O10       1.0  0.49588  0.00975  0.33278  1.0000 -0.5545279419
O   O11       1.0  0.49588  0.49025  0.83278  1.0000 -0.5545279419
O   O12       1.0  0.50412  0.99025  0.66722  1.0000 -0.5545279419
O   O13       1.0  0.24299  0.18455  0.12719  1.0000 -0.5318130737
O   O14       1.0  0.75701  0.68455  0.37281  1.0000 -0.5318130737
O   O15       1.0  0.75701  0.81545  0.87281  1.0000 -0.5318130737
O   O16       1.0  0.24299  0.31545  0.62719  1.0000 -0.5318130737
O   O17       1.0  0.81651  0.51246  0.70861  1.0000 -0.5191452985
O   O18       1.0  0.18349  0.01246  0.79139  1.0000 -0.5191452985
O   O19       1.0  0.18349  0.48754  0.29139  1.0000 -0.5191452985
O   O20       1.0  0.81651  0.98754  0.20861  1.0000 -0.5191452985
O   O21       1.0  0.59178  0.40928  0.29678  1.0000 -0.4992797708
O   O22       1.0  0.40822  0.90928  0.20322  1.0000 -0.4992797708
O   O23       1.0  0.40822  0.59072  0.70322  1.0000 -0.4992797708
O   O24       1.0  0.59178  0.09072  0.79678  1.0000 -0.4992797708
O   O25       1.0  0.90598  0.40706  0.62328  1.0000 -0.6497148608
O   O26       1.0  0.09402  0.90706  0.87672  1.0000 -0.6497148608
O   O27       1.0  0.09402  0.59294  0.37672  1.0000 -0.6497148608
O   O28       1.0  0.90598  0.09294  0.12328  1.0000 -0.6497148608
O   O29       1.0  0.59474  0.40195  0.64284  1.0000 -0.5716356968
O   O30       1.0  0.40526  0.90195  0.85716  1.0000 -0.5716356968
O   O31       1.0  0.40526  0.59805  0.35716  1.0000 -0.5716356968
O   O32       1.0  0.59474  0.09805  0.14284  1.0000 -0.5716356968
