# DDEC6 charges by PACMAN v1.1 (https://github.com/mtap-research/PACMAN-charge/)
data_2010[Bi][sxb]3[ASR]1
_chemical_formula_sum              "Bi12 H48 C72 O84"
_cell_length_a       15.162
_cell_length_b       15.162
_cell_length_c       27.7363
_cell_angle_alpha    87.5369
_cell_angle_beta     92.4631
_cell_angle_gamma    143.455

_symmetry_space_group_name_H-M    "P 1"
_symmetry_Int_Tables_number       1

loop_
  _symmetry_equiv_pos_as_xyz
  'x, y, z'

loop_
  _atom_site_type_symbol
  _atom_site_label
  _atom_site_symmetry_multiplicity
  _atom_site_fract_x
  _atom_site_fract_y
  _atom_site_fract_z
  _atom_site_occupancy
  _atom_site_charge
Bi  Bi1       1.0  0.68343  0.48323  0.02216  1.0000 1.4074983987
Bi  Bi2       1.0  0.48323  0.68343  0.47784  1.0000 1.4074983987
Bi  Bi3       1.0  0.31657  0.51677  0.97784  1.0000 1.4074983987
Bi  Bi4       1.0  0.51677  0.31657  0.52216  1.0000 1.4074983987
Bi  Bi5       1.0  0.69582  0.20312  0.00215  1.0000 1.3581726345
Bi  Bi6       1.0  0.20312  0.69582  0.49785  1.0000 1.3581726345
Bi  Bi7       1.0  0.30418  0.79688  0.99785  1.0000 1.3581726345
Bi  Bi8       1.0  0.79688  0.30418  0.50215  1.0000 1.3581726345
Bi  Bi9       1.0  0.40133  0.42335  0.85679  1.0000 1.3734435829
Bi  Bi10      1.0  0.42335  0.40133  0.64321  1.0000 1.3761405739
Bi  Bi11      1.0  0.59867  0.57665  0.14321  1.0000 1.3761405739
Bi  Bi12      1.0  0.57665  0.59867  0.35679  1.0000 1.3761405739
H   H1        1.0  0.16340  0.09640  0.02570  1.0000 0.1788649338
H   H2        1.0  0.09640  0.16340  0.47430  1.0000 0.1788649338
H   H3        1.0  0.83660  0.90360  0.97430  1.0000 0.1788649338
H   H4        1.0  0.90360  0.83660  0.52570  1.0000 0.1788649338
H   H5        1.0  0.15000  0.08640  0.96940  1.0000 0.1788649338
H   H6        1.0  0.08640  0.15000  0.53060  1.0000 0.1788649338
H   H7        1.0  0.85000  0.91360  0.03060  1.0000 0.1788649338
H   H8        1.0  0.91360  0.85000  0.46940  1.0000 0.1788649338
H   H9        1.0  0.28620  0.04300  0.02670  1.0000 0.1967517192
H   H10       1.0  0.04300  0.28620  0.47330  1.0000 0.1967517192
H   H11       1.0  0.71380  0.95700  0.97330  1.0000 0.1967517192
H   H12       1.0  0.95700  0.71380  0.52670  1.0000 0.1967517192
H   H13       1.0  0.23810  0.01390  0.97230  1.0000 0.1906989234
H   H14       1.0  0.01390  0.23810  0.52770  1.0000 0.1906989234
H   H15       1.0  0.76190  0.98610  0.02770  1.0000 0.1906989234
H   H16       1.0  0.98610  0.76190  0.47230  1.0000 0.1906989234
H   H17       1.0  0.97080  0.48860  0.86300  1.0000 0.1710725481
H   H18       1.0  0.48860  0.97080  0.63700  1.0000 0.1710725481
H   H19       1.0  0.02920  0.51140  0.13700  1.0000 0.1710725481
H   H20       1.0  0.51140  0.02920  0.36300  1.0000 0.1710725481
H   H21       1.0  0.05420  0.46500  0.86880  1.0000 0.1710725481
H   H22       1.0  0.46500  0.05420  0.63120  1.0000 0.1710725481
H   H23       1.0  0.94580  0.53500  0.13120  1.0000 0.1710725481
H   H24       1.0  0.53500  0.94580  0.36880  1.0000 0.1710725481
H   H25       1.0  0.82290  0.19850  0.85700  1.0000 0.1710725481
H   H26       1.0  0.19850  0.82290  0.64300  1.0000 0.1710725481
H   H27       1.0  0.17710  0.80150  0.14300  1.0000 0.1710725481
H   H28       1.0  0.80150  0.17710  0.35700  1.0000 0.1710725481
H   H29       1.0  0.74210  0.22470  0.84910  1.0000 0.1710725481
H   H30       1.0  0.22470  0.74210  0.65090  1.0000 0.1710725481
H   H31       1.0  0.25790  0.77530  0.15090  1.0000 0.1710725481
H   H32       1.0  0.77530  0.25790  0.34910  1.0000 0.1710725481
H   H33       1.0  0.52570  0.30610  0.26590  1.0000 0.1788649338
H   H34       1.0  0.30610  0.52570  0.23410  1.0000 0.1788649338
H   H35       1.0  0.47430  0.69390  0.73410  1.0000 0.1788649338
H   H36       1.0  0.69390  0.47430  0.76590  1.0000 0.1788649338
H   H37       1.0  0.69690  0.43630  0.27630  1.0000 0.1788649338
H   H38       1.0  0.43630  0.69690  0.22370  1.0000 0.1788649338
H   H39       1.0  0.30310  0.56370  0.72370  1.0000 0.1788649338
H   H40       1.0  0.56370  0.30310  0.77630  1.0000 0.1788649338
H   H41       1.0  0.53200  0.26040  0.18810  1.0000 0.1906989234
H   H42       1.0  0.26040  0.53200  0.31190  1.0000 0.1906989234
H   H43       1.0  0.46800  0.73960  0.81190  1.0000 0.1906989234
H   H44       1.0  0.73960  0.46800  0.68810  1.0000 0.1906989234
H   H45       1.0  0.70180  0.37780  0.19370  1.0000 0.1788649338
H   H46       1.0  0.37780  0.70180  0.30630  1.0000 0.1788649338
H   H47       1.0  0.29820  0.62220  0.80630  1.0000 0.1788649338
H   H48       1.0  0.62220  0.29820  0.69370  1.0000 0.1788649338
C   C1        1.0  0.43580  0.30060  0.94610  1.0000 0.535970548
C   C2        1.0  0.30060  0.43580  0.55390  1.0000 0.535970548
C   C3        1.0  0.56420  0.69940  0.05390  1.0000 0.535970548
C   C4        1.0  0.69940  0.56420  0.44610  1.0000 0.535970548
C   C5        1.0  0.35700  0.21540  0.99420  1.0000 0.2851263078
C   C6        1.0  0.21540  0.35700  0.50580  1.0000 0.2851263078
C   C7        1.0  0.64300  0.78460  0.00580  1.0000 0.2851263078
C   C8        1.0  0.78460  0.64300  0.49420  1.0000 0.2845266255
C   C9        1.0  0.21380  0.15360  0.99610  1.0000 -0.391234262
C   C10       1.0  0.15360  0.21380  0.50390  1.0000 -0.391234262
C   C11       1.0  0.78620  0.84640  0.00390  1.0000 -0.391234262
C   C12       1.0  0.84640  0.78620  0.49610  1.0000 -0.391234262
C   C13       1.0  0.31980  0.08800  0.99470  1.0000 -0.3988769261
C   C14       1.0  0.08800  0.31980  0.50530  1.0000 -0.3988769261
C   C15       1.0  0.68020  0.91200  0.00530  1.0000 -0.3988769261
C   C16       1.0  0.91200  0.68020  0.49470  1.0000 -0.3988769261
C   C17       1.0  0.44790  0.13050  0.98150  1.0000 0.6705898585
C   C18       1.0  0.13050  0.44790  0.51850  1.0000 0.6705898585
C   C19       1.0  0.55210  0.86950  0.01850  1.0000 0.6705898585
C   C20       1.0  0.86950  0.55210  0.48150  1.0000 0.6705898585
C   C21       1.0  0.92090  0.28570  0.94660  1.0000 0.5509621294
C   C22       1.0  0.28570  0.92090  0.55340  1.0000 0.5509621294
C   C23       1.0  0.07910  0.71430  0.05340  1.0000 0.5509621294
C   C24       1.0  0.71430  0.07910  0.44660  1.0000 0.5509621294
C   C25       1.0  0.86890  0.31990  0.91150  1.0000 0.2647408935
C   C26       1.0  0.31990  0.86890  0.58850  1.0000 0.2665431251
C   C27       1.0  0.13110  0.68010  0.08850  1.0000 0.2665431251
C   C28       1.0  0.68010  0.13110  0.41150  1.0000 0.2665431251
C   C29       1.0  0.00440  0.47000  0.88630  1.0000 -0.3692586845
C   C30       1.0  0.47000  0.00440  0.61370  1.0000 -0.3692586845
C   C31       1.0  0.99560  0.53000  0.11370  1.0000 -0.3692586845
C   C32       1.0  0.53000  0.99560  0.38630  1.0000 -0.3692586845
C   C33       1.0  0.76800  0.19940  0.87310  1.0000 -0.391234262
C   C34       1.0  0.19940  0.76800  0.62690  1.0000 -0.391234262
C   C35       1.0  0.23200  0.80060  0.12690  1.0000 -0.391234262
C   C36       1.0  0.80060  0.23200  0.37310  1.0000 -0.391234262
C   C37       1.0  0.62680  0.04540  0.89280  1.0000 0.6705898585
C   C38       1.0  0.04540  0.62680  0.60720  1.0000 0.6705898585
C   C39       1.0  0.37320  0.95460  0.10720  1.0000 0.6705898585
C   C40       1.0  0.95460  0.37320  0.39280  1.0000 0.6705898585
C   C41       1.0  0.80360  0.62240  0.20800  1.0000 0.5113745722
C   C42       1.0  0.62240  0.80360  0.29200  1.0000 0.5113745722
C   C43       1.0  0.19640  0.37760  0.79200  1.0000 0.5113745722
C   C44       1.0  0.37760  0.19640  0.70800  1.0000 0.5113745722
C   C45       1.0  0.64850  0.46390  0.21290  1.0000 0.2665431251
C   C46       1.0  0.46390  0.64850  0.28710  1.0000 0.2665431251
C   C47       1.0  0.35150  0.53610  0.78710  1.0000 0.2665431251
C   C48       1.0  0.53610  0.35150  0.71290  1.0000 0.2665431251
C   C49       1.0  0.61910  0.41290  0.26400  1.0000 -0.3692586845
C   C50       1.0  0.41290  0.61910  0.23600  1.0000 -0.381816825
C   C51       1.0  0.38090  0.58710  0.73600  1.0000 -0.3692586845
C   C52       1.0  0.58710  0.38090  0.76400  1.0000 -0.3692586845
C   C53       1.0  0.62940  0.36340  0.18220  1.0000 -0.381816825
C   C54       1.0  0.36340  0.62940  0.31780  1.0000 -0.381816825
C   C55       1.0  0.37060  0.63660  0.81780  1.0000 -0.381816825
C   C56       1.0  0.63660  0.37060  0.68220  1.0000 -0.381816825
C   C57       1.0  0.64690  0.39250  0.12870  1.0000 0.6581730189
C   C58       1.0  0.39250  0.64690  0.37130  1.0000 0.6581730189
C   C59       1.0  0.35310  0.60750  0.87130  1.0000 0.6581730189
C   C60       1.0  0.60750  0.35310  0.62870  1.0000 0.6581730189
C   C61       1.0  0.23310  0.26710  0.99370  1.0000 0.6581730189
C   C62       1.0  0.26710  0.23310  0.50630  1.0000 0.6581730189
C   C63       1.0  0.76690  0.73290  0.00630  1.0000 0.6581730189
C   C64       1.0  0.73290  0.76690  0.49370  1.0000 0.6581730189
C   C65       1.0  0.11450  0.59890  0.92120  1.0000 0.6536471041
C   C66       1.0  0.59890  0.11450  0.57880  1.0000 0.6536471041
C   C67       1.0  0.88550  0.40110  0.07880  1.0000 0.6536471041
C   C68       1.0  0.40110  0.88550  0.42120  1.0000 0.6536471041
C   C69       1.0  0.61140  0.49060  0.29600  1.0000 0.6361933741
C   C70       1.0  0.49060  0.61140  0.20400  1.0000 0.6361933741
C   C71       1.0  0.38860  0.50940  0.70400  1.0000 0.6361933741
C   C72       1.0  0.50940  0.38860  0.79600  1.0000 0.6361933741
O   O1        1.0  0.57490  0.43170  0.94830  1.0000 -0.4916045416
O   O2        1.0  0.43170  0.57490  0.55170  1.0000 -0.4916045416
O   O3        1.0  0.42510  0.56830  0.05170  1.0000 -0.4916045416
O   O4        1.0  0.56830  0.42510  0.44830  1.0000 -0.4916045416
O   O5        1.0  0.36460  0.23480  0.90740  1.0000 -0.4991905821
O   O6        1.0  0.23480  0.36460  0.59260  1.0000 -0.4991905821
O   O7        1.0  0.63540  0.76520  0.09260  1.0000 -0.4991905821
O   O8        1.0  0.76520  0.63540  0.40740  1.0000 -0.4991905821
O   O9        1.0  0.45030  0.30870  0.03320  1.0000 -0.5202775863
O   O10       1.0  0.30870  0.45030  0.46680  1.0000 -0.5202775863
O   O11       1.0  0.54970  0.69130  0.96680  1.0000 -0.5202775863
O   O12       1.0  0.69130  0.54970  0.53320  1.0000 -0.5202775863
O   O13       1.0  0.57940  0.25840  0.99220  1.0000 -0.5393738506
O   O14       1.0  0.25840  0.57940  0.50780  1.0000 -0.5393738506
O   O15       1.0  0.42060  0.74160  0.00780  1.0000 -0.5393738506
O   O16       1.0  0.74160  0.42060  0.49220  1.0000 -0.5393738506
O   O17       1.0  0.42170  0.04110  0.96050  1.0000 -0.5099170563
O   O18       1.0  0.04110  0.42170  0.53950  1.0000 -0.5099170563
O   O19       1.0  0.57830  0.95890  0.03950  1.0000 -0.5099170563
O   O20       1.0  0.95890  0.57830  0.46050  1.0000 -0.5099170563
O   O21       1.0  0.87860  0.25300  0.99040  1.0000 -0.4837111356
O   O22       1.0  0.25300  0.87860  0.50960  1.0000 -0.4837111356
O   O23       1.0  0.12140  0.74700  0.00960  1.0000 -0.4916045416
O   O24       1.0  0.74700  0.12140  0.49040  1.0000 -0.4837111356
O   O25       1.0  0.00700  0.29900  0.93170  1.0000 -0.4991905821
O   O26       1.0  0.29900  0.00700  0.56830  1.0000 -0.4991905821
O   O27       1.0  0.99300  0.70100  0.06830  1.0000 -0.4991905821
O   O28       1.0  0.70100  0.99300  0.43170  1.0000 -0.4991905821
O   O29       1.0  0.79200  0.32460  0.93490  1.0000 -0.4916045416
O   O30       1.0  0.32460  0.79200  0.56510  1.0000 -0.4916045416
O   O31       1.0  0.20800  0.67540  0.06510  1.0000 -0.4916045416
O   O32       1.0  0.67540  0.20800  0.43490  1.0000 -0.4916045416
O   O33       1.0  0.59570  0.01730  0.93490  1.0000 -0.5273463932
O   O34       1.0  0.01730  0.59570  0.56510  1.0000 -0.5202775863
O   O35       1.0  0.40430  0.98270  0.06510  1.0000 -0.5273463932
O   O36       1.0  0.98270  0.40430  0.43490  1.0000 -0.5202775863
O   O37       1.0  0.54700  0.94420  0.85990  1.0000 -0.4916045416
O   O38       1.0  0.94420  0.54700  0.64010  1.0000 -0.4916045416
O   O39       1.0  0.45300  0.05580  0.14010  1.0000 -0.4916045416
O   O40       1.0  0.05580  0.45300  0.35990  1.0000 -0.4916045416
O   O41       1.0  0.81490  0.70810  0.18580  1.0000 -0.4837111356
O   O42       1.0  0.70810  0.81490  0.31420  1.0000 -0.4837111356
O   O43       1.0  0.18510  0.29190  0.81420  1.0000 -0.4837111356
O   O44       1.0  0.29190  0.18510  0.68580  1.0000 -0.4837111356
O   O45       1.0  0.90770  0.66270  0.22240  1.0000 -0.4084217904
O   O46       1.0  0.66270  0.90770  0.27760  1.0000 -0.4084217904
O   O47       1.0  0.09230  0.33730  0.77760  1.0000 -0.4084217904
O   O48       1.0  0.33730  0.09230  0.72240  1.0000 -0.4084217904
O   O49       1.0  0.53900  0.43720  0.19790  1.0000 -0.4916045416
O   O50       1.0  0.43720  0.53900  0.30210  1.0000 -0.4916045416
O   O51       1.0  0.46100  0.56280  0.80210  1.0000 -0.4916045416
O   O52       1.0  0.56280  0.46100  0.69790  1.0000 -0.4916045416
O   O53       1.0  0.63640  0.32020  0.10320  1.0000 -0.4481039105
O   O54       1.0  0.32020  0.63640  0.39680  1.0000 -0.4481039105
O   O55       1.0  0.36360  0.67980  0.89680  1.0000 -0.4481039105
O   O56       1.0  0.67980  0.36360  0.60320  1.0000 -0.4481039105
O   O57       1.0  0.67120  0.48900  0.11080  1.0000 -0.5393738506
O   O58       1.0  0.48900  0.67120  0.38920  1.0000 -0.5393738506
O   O59       1.0  0.32880  0.51100  0.88920  1.0000 -0.5393738506
O   O60       1.0  0.51100  0.32880  0.61080  1.0000 -0.5393738506
O   O61       1.0  0.18770  0.72490  0.90840  1.0000 -0.4738256169
O   O62       1.0  0.72490  0.18770  0.59160  1.0000 -0.4738256169
O   O63       1.0  0.81230  0.27510  0.09160  1.0000 -0.4738256169
O   O64       1.0  0.27510  0.81230  0.40840  1.0000 -0.4738256169
O   O65       1.0  0.15950  0.25650  0.01990  1.0000 -0.5202775863
O   O66       1.0  0.25650  0.15950  0.48010  1.0000 -0.5202775863
O   O67       1.0  0.84050  0.74350  0.98010  1.0000 -0.5202775863
O   O68       1.0  0.74350  0.84050  0.51990  1.0000 -0.5202775863
O   O69       1.0  0.32360  0.37440  0.96360  1.0000 -0.5496971813
O   O70       1.0  0.37440  0.32360  0.53640  1.0000 -0.5496971813
O   O71       1.0  0.67640  0.62560  0.03640  1.0000 -0.5496971813
O   O72       1.0  0.62560  0.67640  0.46360  1.0000 -0.5496971813
O   O73       1.0  0.12970  0.57310  0.96240  1.0000 -0.5099170563
O   O74       1.0  0.57310  0.12970  0.53760  1.0000 -0.5099170563
O   O75       1.0  0.87030  0.42690  0.03760  1.0000 -0.5099170563
O   O76       1.0  0.42690  0.87030  0.46240  1.0000 -0.5099170563
O   O77       1.0  0.49270  0.39930  0.32230  1.0000 -0.5099170563
O   O78       1.0  0.39930  0.49270  0.17770  1.0000 -0.5099170563
O   O79       1.0  0.50730  0.60070  0.67770  1.0000 -0.5099170563
O   O80       1.0  0.60070  0.50730  0.82230  1.0000 -0.5099170563
O   O81       1.0  0.70780  0.61980  0.29600  1.0000 -0.3692586845
O   O82       1.0  0.61980  0.70780  0.20400  1.0000 -0.3692586845
O   O83       1.0  0.29220  0.38020  0.70400  1.0000 -0.3692586845
O   O84       1.0  0.38020  0.29220  0.79600  1.0000 -0.3692586845
