# DDEC6 charges by PACMAN v1.1 (https://github.com/mtap-research/PACMAN-charge/)
data_2010[Cd][nuc]3[ASR]6
_chemical_formula_sum              "Cd4 H144 C192 N48"
_cell_length_a       15.8508
_cell_length_b       15.8508
_cell_length_c       21.766
_cell_angle_alpha    90
_cell_angle_beta     90
_cell_angle_gamma    90

_symmetry_space_group_name_H-M    "P 1"
_symmetry_Int_Tables_number       1

loop_
  _symmetry_equiv_pos_as_xyz
  'x, y, z'

loop_
  _atom_site_type_symbol
  _atom_site_label
  _atom_site_symmetry_multiplicity
  _atom_site_fract_x
  _atom_site_fract_y
  _atom_site_fract_z
  _atom_site_occupancy
  _atom_site_charge
Cd  Cd1       1.0  0.94031  0.05969  0.75000  1.0000 0.6415027699
Cd  Cd2       1.0  0.05969  0.94031  0.25000  1.0000 0.6415027699
Cd  Cd3       1.0  0.44031  0.44031  0.50000  1.0000 0.6415027699
Cd  Cd4       1.0  0.55969  0.55969  0.00000  1.0000 0.6415027699
H   H1        1.0  0.25670  0.50480  0.42930  1.0000 0.0995210833
H   H2        1.0  0.74330  0.49520  0.92930  1.0000 0.0995210833
H   H3        1.0  0.99520  0.75670  0.17930  1.0000 0.0995210833
H   H4        1.0  0.00480  0.24330  0.67930  1.0000 0.0995210833
H   H5        1.0  0.24330  0.00480  0.32070  1.0000 0.0995210833
H   H6        1.0  0.75670  0.99520  0.82070  1.0000 0.0995210833
H   H7        1.0  0.50480  0.25670  0.57070  1.0000 0.0995210833
H   H8        1.0  0.49520  0.74330  0.07070  1.0000 0.0995210833
H   H9        1.0  0.14670  0.59650  0.44110  1.0000 0.1281470417
H   H10       1.0  0.85330  0.40350  0.94110  1.0000 0.1281470417
H   H11       1.0  0.90350  0.64670  0.19110  1.0000 0.1281470417
H   H12       1.0  0.09650  0.35330  0.69110  1.0000 0.1281470417
H   H13       1.0  0.35330  0.09650  0.30890  1.0000 0.1281470417
H   H14       1.0  0.64670  0.90350  0.80890  1.0000 0.1281470417
H   H15       1.0  0.59650  0.14670  0.55890  1.0000 0.1281470417
H   H16       1.0  0.40350  0.85330  0.05890  1.0000 0.1281470417
H   H17       1.0  0.23590  0.65450  0.60670  1.0000 0.1281470417
H   H18       1.0  0.76410  0.34550  0.10670  1.0000 0.1281470417
H   H19       1.0  0.84550  0.73590  0.35670  1.0000 0.1281470417
H   H20       1.0  0.15450  0.26410  0.85670  1.0000 0.1281470417
H   H21       1.0  0.26410  0.15450  0.14330  1.0000 0.1281470417
H   H22       1.0  0.73590  0.84550  0.64330  1.0000 0.1281470417
H   H23       1.0  0.65450  0.23590  0.39330  1.0000 0.1281470417
H   H24       1.0  0.34550  0.76410  0.89330  1.0000 0.1281470417
H   H25       1.0  0.34210  0.55940  0.59130  1.0000 0.0995210833
H   H26       1.0  0.65790  0.44060  0.09130  1.0000 0.0995210833
H   H27       1.0  0.94060  0.84210  0.34130  1.0000 0.0995210833
H   H28       1.0  0.05940  0.15790  0.84130  1.0000 0.0995210833
H   H29       1.0  0.15790  0.05940  0.15870  1.0000 0.0995210833
H   H30       1.0  0.84210  0.94060  0.65870  1.0000 0.0995210833
H   H31       1.0  0.55940  0.34210  0.40870  1.0000 0.0995210833
H   H32       1.0  0.44060  0.65790  0.90870  1.0000 0.0995210833
H   H33       1.0  0.03300  0.66330  0.46580  1.0000 0.1095818544
H   H34       1.0  0.96700  0.33670  0.96580  1.0000 0.1095818544
H   H35       1.0  0.83670  0.53300  0.21580  1.0000 0.1095818544
H   H36       1.0  0.16330  0.46700  0.71580  1.0000 0.1095818544
H   H37       1.0  0.46700  0.16330  0.28420  1.0000 0.1095818544
H   H38       1.0  0.53300  0.83670  0.78420  1.0000 0.1095818544
H   H39       1.0  0.66330  0.03300  0.53420  1.0000 0.1095818544
H   H40       1.0  0.33670  0.96700  0.03420  1.0000 0.1095818544
H   H41       1.0  0.93280  0.76590  0.47630  1.0000 0.1095818544
H   H42       1.0  0.06720  0.23410  0.97630  1.0000 0.1095818544
H   H43       1.0  0.73410  0.43280  0.22630  1.0000 0.1095818544
H   H44       1.0  0.26590  0.56720  0.72630  1.0000 0.1095818544
H   H45       1.0  0.56720  0.26590  0.27370  1.0000 0.1095818544
H   H46       1.0  0.43280  0.73410  0.77370  1.0000 0.1095818544
H   H47       1.0  0.76590  0.93280  0.52370  1.0000 0.1095818544
H   H48       1.0  0.23410  0.06720  0.02370  1.0000 0.1095818544
H   H49       1.0  0.95390  0.87920  0.54140  1.0000 0.1095818544
H   H50       1.0  0.04610  0.12080  0.04140  1.0000 0.1095818544
H   H51       1.0  0.62080  0.45390  0.29140  1.0000 0.1095818544
H   H52       1.0  0.37920  0.54610  0.79140  1.0000 0.1095818544
H   H53       1.0  0.54610  0.37920  0.20860  1.0000 0.1095818544
H   H54       1.0  0.45390  0.62080  0.70860  1.0000 0.1095818544
H   H55       1.0  0.87920  0.95390  0.45860  1.0000 0.1095818544
H   H56       1.0  0.12080  0.04610  0.95860  1.0000 0.1095818544
H   H57       1.0  0.17390  0.77610  0.59520  1.0000 0.1095818544
H   H58       1.0  0.82610  0.22390  0.09520  1.0000 0.1095818544
H   H59       1.0  0.72390  0.67390  0.34520  1.0000 0.1095818544
H   H60       1.0  0.27610  0.32610  0.84520  1.0000 0.1095818544
H   H61       1.0  0.32610  0.27610  0.15480  1.0000 0.1095818544
H   H62       1.0  0.67390  0.72390  0.65480  1.0000 0.1095818544
H   H63       1.0  0.77610  0.17390  0.40480  1.0000 0.1095818544
H   H64       1.0  0.22390  0.82610  0.90480  1.0000 0.1095818544
H   H65       1.0  0.19830  0.99800  0.79090  1.0000 0.1095818544
H   H66       1.0  0.80170  0.00200  0.29090  1.0000 0.1095818544
H   H67       1.0  0.50200  0.69830  0.54090  1.0000 0.1095818544
H   H68       1.0  0.49800  0.30170  0.04090  1.0000 0.1095818544
H   H69       1.0  0.30170  0.49800  0.95910  1.0000 0.1095818544
H   H70       1.0  0.69830  0.50200  0.45910  1.0000 0.1095818544
H   H71       1.0  0.99800  0.19830  0.20910  1.0000 0.1095818544
H   H72       1.0  0.00200  0.80170  0.70910  1.0000 0.1095818544
H   H73       1.0  0.29420  0.09070  0.83580  1.0000 0.1095818544
H   H74       1.0  0.70580  0.90930  0.33580  1.0000 0.1095818544
H   H75       1.0  0.40930  0.79420  0.58580  1.0000 0.1095818544
H   H76       1.0  0.59070  0.20580  0.08580  1.0000 0.1095818544
H   H77       1.0  0.20580  0.59070  0.91420  1.0000 0.1095818544
H   H78       1.0  0.79420  0.40930  0.41420  1.0000 0.1095818544
H   H79       1.0  0.09070  0.29420  0.16420  1.0000 0.1095818544
H   H80       1.0  0.90930  0.70580  0.66420  1.0000 0.1095818544
H   H81       1.0  0.34400  0.20520  0.78060  1.0000 0.0995210833
H   H82       1.0  0.65600  0.79480  0.28060  1.0000 0.0995210833
H   H83       1.0  0.29480  0.84400  0.53060  1.0000 0.0995210833
H   H84       1.0  0.70520  0.15600  0.03060  1.0000 0.0995210833
H   H85       1.0  0.15600  0.70520  0.96940  1.0000 0.0995210833
H   H86       1.0  0.84400  0.29480  0.46940  1.0000 0.0995210833
H   H87       1.0  0.20520  0.34400  0.21940  1.0000 0.0995210833
H   H88       1.0  0.79480  0.65600  0.71940  1.0000 0.0995210833
H   H89       1.0  0.19570  0.14070  0.63950  1.0000 0.1095818544
H   H90       1.0  0.80430  0.85930  0.13950  1.0000 0.1095818544
H   H91       1.0  0.35930  0.69570  0.38950  1.0000 0.1095818544
H   H92       1.0  0.64070  0.30430  0.88950  1.0000 0.1095818544
H   H93       1.0  0.30430  0.64070  0.11050  1.0000 0.1095818544
H   H94       1.0  0.69570  0.35930  0.61050  1.0000 0.1095818544
H   H95       1.0  0.14070  0.19570  0.36050  1.0000 0.1095818544
H   H96       1.0  0.85930  0.80430  0.86050  1.0000 0.1095818544
H   H97       1.0  0.41260  0.28550  0.71520  1.0000 0.1281470417
H   H98       1.0  0.58740  0.71450  0.21520  1.0000 0.1281470417
H   H99       1.0  0.21450  0.91260  0.46520  1.0000 0.1281470417
H   H100      1.0  0.78550  0.08740  0.96520  1.0000 0.1281470417
H   H101      1.0  0.08740  0.78550  0.03480  1.0000 0.1281470417
H   H102      1.0  0.91260  0.21450  0.53480  1.0000 0.1281470417
H   H103      1.0  0.28550  0.41260  0.28480  1.0000 0.1281470417
H   H104      1.0  0.71450  0.58740  0.78480  1.0000 0.1281470417
H   H105      1.0  0.46310  0.38600  0.64930  1.0000 0.0995210833
H   H106      1.0  0.53690  0.61400  0.14930  1.0000 0.0995210833
H   H107      1.0  0.11400  0.96310  0.39930  1.0000 0.0995210833
H   H108      1.0  0.88600  0.03690  0.89930  1.0000 0.0995210833
H   H109      1.0  0.03690  0.88600  0.10070  1.0000 0.0995210833
H   H110      1.0  0.96310  0.11400  0.60070  1.0000 0.0995210833
H   H111      1.0  0.38600  0.46310  0.35070  1.0000 0.0995210833
H   H112      1.0  0.61400  0.53690  0.85070  1.0000 0.0995210833
H   H113      1.0  0.26830  0.36010  0.54280  1.0000 0.0995210833
H   H114      1.0  0.73170  0.63990  0.04280  1.0000 0.0995210833
H   H115      1.0  0.13990  0.76830  0.29280  1.0000 0.0995210833
H   H116      1.0  0.86010  0.23170  0.79280  1.0000 0.0995210833
H   H117      1.0  0.23170  0.86010  0.20720  1.0000 0.0995210833
H   H118      1.0  0.76830  0.13990  0.70720  1.0000 0.0995210833
H   H119      1.0  0.36010  0.26830  0.45720  1.0000 0.0995210833
H   H120      1.0  0.63990  0.73170  0.95720  1.0000 0.0995210833
H   H121      1.0  0.20990  0.26430  0.60670  1.0000 0.1281470417
H   H122      1.0  0.79010  0.73570  0.10670  1.0000 0.1281470417
H   H123      1.0  0.23570  0.70990  0.35670  1.0000 0.1281470417
H   H124      1.0  0.76430  0.29010  0.85670  1.0000 0.1281470417
H   H125      1.0  0.29010  0.76430  0.14330  1.0000 0.1281470417
H   H126      1.0  0.70990  0.23570  0.64330  1.0000 0.1281470417
H   H127      1.0  0.26430  0.20990  0.39330  1.0000 0.1281470417
H   H128      1.0  0.73570  0.79010  0.89330  1.0000 0.1281470417
H   H129      1.0  0.25840  0.97350  0.61340  1.0000 0.2514984778
H   H130      1.0  0.74160  0.02650  0.11340  1.0000 0.2514984778
H   H131      1.0  0.52650  0.75840  0.36340  1.0000 0.2514984778
H   H132      1.0  0.47350  0.24160  0.86340  1.0000 0.2514984778
H   H133      1.0  0.24160  0.47350  0.13660  1.0000 0.2514984778
H   H134      1.0  0.75840  0.52650  0.63660  1.0000 0.2514984778
H   H135      1.0  0.97350  0.25840  0.38660  1.0000 0.2514984778
H   H136      1.0  0.02650  0.74160  0.88660  1.0000 0.2514984778
H   H137      1.0  0.25700  0.89420  0.64690  1.0000 0.2378963104
H   H138      1.0  0.74300  0.10580  0.14690  1.0000 0.2378963104
H   H139      1.0  0.60580  0.75700  0.39690  1.0000 0.2378963104
H   H140      1.0  0.39420  0.24300  0.89690  1.0000 0.2378963104
H   H141      1.0  0.24300  0.39420  0.10310  1.0000 0.2378963104
H   H142      1.0  0.75700  0.60580  0.60310  1.0000 0.2378963104
H   H143      1.0  0.89420  0.25700  0.35310  1.0000 0.2378963104
H   H144      1.0  0.10580  0.74300  0.85310  1.0000 0.2378963104
C   C1        1.0  0.25290  0.53570  0.46550  1.0000 0.0467584546
C   C2        1.0  0.74710  0.46430  0.96550  1.0000 0.0467584546
C   C3        1.0  0.96430  0.75290  0.21550  1.0000 0.0467584546
C   C4        1.0  0.03570  0.24710  0.71550  1.0000 0.0467584546
C   C5        1.0  0.24710  0.03570  0.28450  1.0000 0.0467584546
C   C6        1.0  0.75290  0.96430  0.78450  1.0000 0.0467584546
C   C7        1.0  0.53570  0.25290  0.53450  1.0000 0.0467584546
C   C8        1.0  0.46430  0.74710  0.03450  1.0000 0.0467584546
C   C9        1.0  0.18680  0.59180  0.47210  1.0000 -0.2024951059
C   C10       1.0  0.81320  0.40820  0.97210  1.0000 -0.2024951059
C   C11       1.0  0.90820  0.68680  0.22210  1.0000 -0.2024951059
C   C12       1.0  0.09180  0.31320  0.72210  1.0000 -0.2024951059
C   C13       1.0  0.31320  0.09180  0.27790  1.0000 -0.2024951059
C   C14       1.0  0.68680  0.90820  0.77790  1.0000 -0.2024951059
C   C15       1.0  0.59180  0.18680  0.52790  1.0000 -0.2024951059
C   C16       1.0  0.40820  0.81320  0.02790  1.0000 -0.2024951059
C   C17       1.0  0.17960  0.64070  0.52380  1.0000 0.1095818544
C   C18       1.0  0.82040  0.35930  0.02380  1.0000 0.1095818544
C   C19       1.0  0.85930  0.67960  0.27380  1.0000 0.1095818544
C   C20       1.0  0.14070  0.32040  0.77380  1.0000 0.1095818544
C   C21       1.0  0.32040  0.14070  0.22620  1.0000 0.1095818544
C   C22       1.0  0.67960  0.85930  0.72620  1.0000 0.1095818544
C   C23       1.0  0.64070  0.17960  0.47620  1.0000 0.1095818544
C   C24       1.0  0.35930  0.82040  0.97620  1.0000 0.1095818544
C   C25       1.0  0.23920  0.62560  0.56960  1.0000 -0.2024951059
C   C26       1.0  0.76080  0.37440  0.06960  1.0000 -0.2024951059
C   C27       1.0  0.87440  0.73920  0.31960  1.0000 -0.2024951059
C   C28       1.0  0.12560  0.26080  0.81960  1.0000 -0.2024951059
C   C29       1.0  0.26080  0.12560  0.18040  1.0000 -0.2024951059
C   C30       1.0  0.73920  0.87440  0.68040  1.0000 -0.2024951059
C   C31       1.0  0.62560  0.23920  0.43040  1.0000 -0.2024951059
C   C32       1.0  0.37440  0.76080  0.93040  1.0000 -0.2024951059
C   C33       1.0  0.30300  0.56780  0.56000  1.0000 0.0699292589
C   C34       1.0  0.69700  0.43220  0.06000  1.0000 0.0699292589
C   C35       1.0  0.93220  0.80300  0.31000  1.0000 0.0699292589
C   C36       1.0  0.06780  0.19700  0.81000  1.0000 0.0699292589
C   C37       1.0  0.19700  0.06780  0.19000  1.0000 0.0699292589
C   C38       1.0  0.80300  0.93220  0.69000  1.0000 0.0699292589
C   C39       1.0  0.56780  0.30300  0.44000  1.0000 0.0699292589
C   C40       1.0  0.43220  0.69700  0.94000  1.0000 0.0699292589
C   C41       1.0  0.11400  0.70710  0.53010  1.0000 0.0699292589
C   C42       1.0  0.88600  0.29290  0.03010  1.0000 0.0699292589
C   C43       1.0  0.79290  0.61400  0.28010  1.0000 0.0699292589
C   C44       1.0  0.20710  0.38600  0.78010  1.0000 0.0699292589
C   C45       1.0  0.38600  0.20710  0.21990  1.0000 0.0699292589
C   C46       1.0  0.61400  0.79290  0.71990  1.0000 0.0699292589
C   C47       1.0  0.70710  0.11400  0.46990  1.0000 0.0699292589
C   C48       1.0  0.29290  0.88600  0.96990  1.0000 0.0699292589
C   C49       1.0  0.04130  0.70660  0.49400  1.0000 -0.1627681514
C   C50       1.0  0.95870  0.29340  0.99400  1.0000 -0.1627681514
C   C51       1.0  0.79340  0.54130  0.24400  1.0000 -0.1627681514
C   C52       1.0  0.20660  0.45870  0.74400  1.0000 -0.1627681514
C   C53       1.0  0.45870  0.20660  0.25600  1.0000 -0.1627681514
C   C54       1.0  0.54130  0.79340  0.75600  1.0000 -0.1627681514
C   C55       1.0  0.70660  0.04130  0.50600  1.0000 -0.1627681514
C   C56       1.0  0.29340  0.95870  0.00600  1.0000 -0.1627681514
C   C57       1.0  0.98200  0.76890  0.49960  1.0000 -0.1108834638
C   C58       1.0  0.01800  0.23110  0.99960  1.0000 -0.1108834638
C   C59       1.0  0.73110  0.48200  0.24960  1.0000 -0.1108834638
C   C60       1.0  0.26890  0.51800  0.74960  1.0000 -0.1108834638
C   C61       1.0  0.51800  0.26890  0.25040  1.0000 -0.1108834638
C   C62       1.0  0.48200  0.73110  0.75040  1.0000 -0.1108834638
C   C63       1.0  0.76890  0.98200  0.50040  1.0000 -0.1108834638
C   C64       1.0  0.23110  0.01800  0.00040  1.0000 -0.1108834638
C   C65       1.0  0.99370  0.83620  0.53900  1.0000 -0.1627681514
C   C66       1.0  0.00630  0.16380  0.03900  1.0000 -0.1627681514
C   C67       1.0  0.66380  0.49370  0.28900  1.0000 -0.1627681514
C   C68       1.0  0.33620  0.50630  0.78900  1.0000 -0.1627681514
C   C69       1.0  0.50630  0.33620  0.21100  1.0000 -0.1627681514
C   C70       1.0  0.49370  0.66380  0.71100  1.0000 -0.1627681514
C   C71       1.0  0.83620  0.99370  0.46100  1.0000 -0.1627681514
C   C72       1.0  0.16380  0.00630  0.96100  1.0000 -0.1627681514
C   C73       1.0  0.06630  0.83870  0.57530  1.0000 0.0356862417
C   C74       1.0  0.93370  0.16130  0.07530  1.0000 0.0356862417
C   C75       1.0  0.66130  0.56630  0.32530  1.0000 0.0356862417
C   C76       1.0  0.33870  0.43370  0.82530  1.0000 0.0356862417
C   C77       1.0  0.43370  0.33870  0.17470  1.0000 0.0356862417
C   C78       1.0  0.56630  0.66130  0.67470  1.0000 0.0356862417
C   C79       1.0  0.83870  0.06630  0.42470  1.0000 0.0356862417
C   C80       1.0  0.16130  0.93370  0.92470  1.0000 0.0356862417
C   C81       1.0  0.12580  0.77430  0.57080  1.0000 -0.2024951059
C   C82       1.0  0.87420  0.22570  0.07080  1.0000 -0.2024951059
C   C83       1.0  0.72570  0.62580  0.32080  1.0000 -0.2024951059
C   C84       1.0  0.27430  0.37420  0.82080  1.0000 -0.2024951059
C   C85       1.0  0.37420  0.27430  0.17920  1.0000 -0.2024951059
C   C86       1.0  0.62580  0.72570  0.67920  1.0000 -0.2024951059
C   C87       1.0  0.77430  0.12580  0.42920  1.0000 -0.2024951059
C   C88       1.0  0.22570  0.87420  0.92920  1.0000 -0.2024951059
C   C89       1.0  0.07500  0.90840  0.61870  1.0000 0.1712281316
C   C90       1.0  0.92500  0.09160  0.11870  1.0000 0.1712281316
C   C91       1.0  0.59160  0.57500  0.36870  1.0000 0.1712281316
C   C92       1.0  0.40840  0.42500  0.86870  1.0000 0.1712281316
C   C93       1.0  0.42500  0.40840  0.13130  1.0000 0.1712281316
C   C94       1.0  0.57500  0.59160  0.63130  1.0000 0.1712281316
C   C95       1.0  0.90840  0.07500  0.38130  1.0000 0.1712281316
C   C96       1.0  0.09160  0.92500  0.88130  1.0000 0.1712281316
C   C97       1.0  0.12560  0.00450  0.68030  1.0000 0.1712281316
C   C98       1.0  0.87440  0.99550  0.18030  1.0000 0.1712281316
C   C99       1.0  0.49550  0.62560  0.43030  1.0000 0.1712281316
C   C100      1.0  0.50450  0.37440  0.93030  1.0000 0.1712281316
C   C101      1.0  0.37440  0.50450  0.06970  1.0000 0.1712281316
C   C102      1.0  0.62560  0.49550  0.56970  1.0000 0.1712281316
C   C103      1.0  0.00450  0.12560  0.31970  1.0000 0.1712281316
C   C104      1.0  0.99550  0.87440  0.81970  1.0000 0.1712281316
C   C105      1.0  0.18730  0.06130  0.71090  1.0000 0.0204819227
C   C106      1.0  0.81270  0.93870  0.21090  1.0000 0.0204819227
C   C107      1.0  0.43870  0.68730  0.46090  1.0000 0.0204819227
C   C108      1.0  0.56130  0.31270  0.96090  1.0000 0.0204819227
C   C109      1.0  0.31270  0.56130  0.03910  1.0000 0.0204819227
C   C110      1.0  0.68730  0.43870  0.53910  1.0000 0.0204819227
C   C111      1.0  0.06130  0.18730  0.28910  1.0000 0.0204819227
C   C112      1.0  0.93870  0.81270  0.78910  1.0000 0.0204819227
C   C113      1.0  0.21700  0.04520  0.76940  1.0000 -0.1676227578
C   C114      1.0  0.78300  0.95480  0.26940  1.0000 -0.1676227578
C   C115      1.0  0.45480  0.71700  0.51940  1.0000 -0.1676227578
C   C116      1.0  0.54520  0.28300  0.01940  1.0000 -0.1676227578
C   C117      1.0  0.28300  0.54520  0.98060  1.0000 -0.1676227578
C   C118      1.0  0.71700  0.45480  0.48060  1.0000 -0.1676227578
C   C119      1.0  0.04520  0.21700  0.23060  1.0000 -0.1676227578
C   C120      1.0  0.95480  0.78300  0.73060  1.0000 -0.1676227578
C   C121      1.0  0.27510  0.10020  0.79600  1.0000 -0.1108834638
C   C122      1.0  0.72490  0.89980  0.29600  1.0000 -0.1108834638
C   C123      1.0  0.39980  0.77510  0.54600  1.0000 -0.1108834638
C   C124      1.0  0.60020  0.22490  0.04600  1.0000 -0.1108834638
C   C125      1.0  0.22490  0.60020  0.95400  1.0000 -0.1108834638
C   C126      1.0  0.77510  0.39980  0.45400  1.0000 -0.1108834638
C   C127      1.0  0.10020  0.27510  0.20400  1.0000 -0.1108834638
C   C128      1.0  0.89980  0.72490  0.70400  1.0000 -0.1108834638
C   C129      1.0  0.30460  0.16930  0.76300  1.0000 -0.1676227578
C   C130      1.0  0.69540  0.83070  0.26300  1.0000 -0.1676227578
C   C131      1.0  0.33070  0.80460  0.51300  1.0000 -0.1676227578
C   C132      1.0  0.66930  0.19540  0.01300  1.0000 -0.1676227578
C   C133      1.0  0.19540  0.66930  0.98700  1.0000 -0.1676227578
C   C134      1.0  0.80460  0.33070  0.48700  1.0000 -0.1676227578
C   C135      1.0  0.16930  0.30460  0.23700  1.0000 -0.1676227578
C   C136      1.0  0.83070  0.69540  0.73700  1.0000 -0.1676227578
C   C137      1.0  0.27580  0.18490  0.70410  1.0000 0.0699292589
C   C138      1.0  0.72420  0.81510  0.20410  1.0000 0.0699292589
C   C139      1.0  0.31510  0.77580  0.45410  1.0000 0.0699292589
C   C140      1.0  0.68490  0.22420  0.95410  1.0000 0.0699292589
C   C141      1.0  0.22420  0.68490  0.04590  1.0000 0.0699292589
C   C142      1.0  0.77580  0.31510  0.54590  1.0000 0.0699292589
C   C143      1.0  0.18490  0.27580  0.29590  1.0000 0.0699292589
C   C144      1.0  0.81510  0.72420  0.79590  1.0000 0.0699292589
C   C145      1.0  0.21620  0.13030  0.67880  1.0000 -0.2088148498
C   C146      1.0  0.78380  0.86970  0.17880  1.0000 -0.2088148498
C   C147      1.0  0.36970  0.71620  0.42880  1.0000 -0.2088148498
C   C148      1.0  0.63030  0.28380  0.92880  1.0000 -0.2088148498
C   C149      1.0  0.28380  0.63030  0.07120  1.0000 -0.2088148498
C   C150      1.0  0.71620  0.36970  0.57120  1.0000 -0.2088148498
C   C151      1.0  0.13030  0.21620  0.32120  1.0000 -0.2088148498
C   C152      1.0  0.86970  0.78380  0.82120  1.0000 -0.2088148498
C   C153      1.0  0.30670  0.25730  0.66667  1.0000 0.1157877317
C   C154      1.0  0.69330  0.74270  0.16667  1.0000 0.1157877317
C   C155      1.0  0.24270  0.80670  0.41667  1.0000 0.1157877317
C   C156      1.0  0.75730  0.19330  0.91667  1.0000 0.1157877317
C   C157      1.0  0.19330  0.75730  0.08333  1.0000 0.1157877317
C   C158      1.0  0.80670  0.24270  0.58333  1.0000 0.1157877317
C   C159      1.0  0.25730  0.30670  0.33333  1.0000 0.1157877317
C   C160      1.0  0.74270  0.69330  0.83333  1.0000 0.1157877317
C   C161      1.0  0.38270  0.29850  0.67960  1.0000 -0.2088148498
C   C162      1.0  0.61730  0.70150  0.17960  1.0000 -0.2088148498
C   C163      1.0  0.20150  0.88270  0.42960  1.0000 -0.2088148498
C   C164      1.0  0.79850  0.11730  0.92960  1.0000 -0.2088148498
C   C165      1.0  0.11730  0.79850  0.07040  1.0000 -0.2088148498
C   C166      1.0  0.88270  0.20150  0.57040  1.0000 -0.2088148498
C   C167      1.0  0.29850  0.38270  0.32040  1.0000 -0.2088148498
C   C168      1.0  0.70150  0.61730  0.82040  1.0000 -0.2088148498
C   C169      1.0  0.41300  0.35870  0.63950  1.0000 0.0467584546
C   C170      1.0  0.58700  0.64130  0.13950  1.0000 0.0467584546
C   C171      1.0  0.14130  0.91300  0.38950  1.0000 0.0467584546
C   C172      1.0  0.85870  0.08700  0.88950  1.0000 0.0467584546
C   C173      1.0  0.08700  0.85870  0.11050  1.0000 0.0467584546
C   C174      1.0  0.91300  0.14130  0.61050  1.0000 0.0467584546
C   C175      1.0  0.35870  0.41300  0.36050  1.0000 0.0467584546
C   C176      1.0  0.64130  0.58700  0.86050  1.0000 0.0467584546
C   C177      1.0  0.29860  0.34400  0.57750  1.0000 0.0329423903
C   C178      1.0  0.70140  0.65600  0.07750  1.0000 0.0329423903
C   C179      1.0  0.15600  0.79860  0.32750  1.0000 0.0329423903
C   C180      1.0  0.84400  0.20140  0.82750  1.0000 0.0329423903
C   C181      1.0  0.20140  0.84400  0.17250  1.0000 0.0329423903
C   C182      1.0  0.79860  0.15600  0.67250  1.0000 0.0329423903
C   C183      1.0  0.34400  0.29860  0.42250  1.0000 0.0329423903
C   C184      1.0  0.65600  0.70140  0.92250  1.0000 0.0329423903
C   C185      1.0  0.26340  0.28550  0.61530  1.0000 -0.2088148498
C   C186      1.0  0.73660  0.71450  0.11530  1.0000 -0.2088148498
C   C187      1.0  0.21450  0.76340  0.36530  1.0000 -0.2088148498
C   C188      1.0  0.78550  0.23660  0.86530  1.0000 -0.2088148498
C   C189      1.0  0.23660  0.78550  0.13470  1.0000 -0.2088148498
C   C190      1.0  0.76340  0.21450  0.63470  1.0000 -0.2088148498
C   C191      1.0  0.28550  0.26340  0.38470  1.0000 -0.2088148498
C   C192      1.0  0.71450  0.73660  0.88470  1.0000 -0.2088148498
N   N1        1.0  0.31150  0.52370  0.50870  1.0000 -0.2362869854
N   N2        1.0  0.68850  0.47630  0.00870  1.0000 -0.2362869854
N   N3        1.0  0.97630  0.81150  0.25870  1.0000 -0.2362869854
N   N4        1.0  0.02370  0.18850  0.75870  1.0000 -0.2362869854
N   N5        1.0  0.18850  0.02370  0.24130  1.0000 -0.2362869854
N   N6        1.0  0.81150  0.97630  0.74130  1.0000 -0.2362869854
N   N7        1.0  0.52370  0.31150  0.49130  1.0000 -0.2362869854
N   N8        1.0  0.47630  0.68850  0.99130  1.0000 -0.2362869854
N   N9        1.0  0.01100  0.94580  0.64530  1.0000 -0.2780564704
N   N10       1.0  0.98900  0.05420  0.14530  1.0000 -0.2780564704
N   N11       1.0  0.55420  0.51100  0.39530  1.0000 -0.2780564704
N   N12       1.0  0.44580  0.48900  0.89530  1.0000 -0.2780564704
N   N13       1.0  0.48900  0.44580  0.10470  1.0000 -0.2780564704
N   N14       1.0  0.51100  0.55420  0.60470  1.0000 -0.2780564704
N   N15       1.0  0.94580  0.01100  0.35470  1.0000 -0.2780564704
N   N16       1.0  0.05420  0.98900  0.85470  1.0000 -0.2780564704
N   N17       1.0  0.04390  0.00680  0.68380  1.0000 -0.2281686046
N   N18       1.0  0.95610  0.99320  0.18380  1.0000 -0.2281686046
N   N19       1.0  0.49320  0.54390  0.43380  1.0000 -0.2281686046
N   N20       1.0  0.50680  0.45610  0.93380  1.0000 -0.2281686046
N   N21       1.0  0.45610  0.50680  0.06620  1.0000 -0.2281686046
N   N22       1.0  0.54390  0.49320  0.56620  1.0000 -0.2281686046
N   N23       1.0  0.00680  0.04390  0.31620  1.0000 -0.2281686046
N   N24       1.0  0.99320  0.95610  0.81620  1.0000 -0.2281686046
N   N25       1.0  0.14840  0.94390  0.63990  1.0000 0.0566195713
N   N26       1.0  0.85160  0.05610  0.13990  1.0000 0.0566195713
N   N27       1.0  0.55610  0.64840  0.38990  1.0000 0.0566195713
N   N28       1.0  0.44390  0.35160  0.88990  1.0000 0.0566195713
N   N29       1.0  0.35160  0.44390  0.11010  1.0000 0.0566195713
N   N30       1.0  0.64840  0.55610  0.61010  1.0000 0.0566195713
N   N31       1.0  0.94390  0.14840  0.36010  1.0000 0.0566195713
N   N32       1.0  0.05610  0.85160  0.86010  1.0000 0.0566195713
N   N33       1.0  0.23040  0.92540  0.61900  1.0000 -0.5089957395
N   N34       1.0  0.76960  0.07460  0.11900  1.0000 -0.5089957395
N   N35       1.0  0.57460  0.73040  0.36900  1.0000 -0.5089957395
N   N36       1.0  0.42540  0.26960  0.86900  1.0000 -0.5089957395
N   N37       1.0  0.26960  0.42540  0.13100  1.0000 -0.5089957395
N   N38       1.0  0.73040  0.57460  0.63100  1.0000 -0.5089957395
N   N39       1.0  0.92540  0.23040  0.38100  1.0000 -0.5089957395
N   N40       1.0  0.07460  0.76960  0.88100  1.0000 -0.5089957395
N   N41       1.0  0.37380  0.38010  0.58680  1.0000 -0.2362869854
N   N42       1.0  0.62620  0.61990  0.08680  1.0000 -0.2362869854
N   N43       1.0  0.11990  0.87380  0.33680  1.0000 -0.2362869854
N   N44       1.0  0.88010  0.12620  0.83680  1.0000 -0.2362869854
N   N45       1.0  0.12620  0.88010  0.16320  1.0000 -0.2362869854
N   N46       1.0  0.87380  0.11990  0.66320  1.0000 -0.2362869854
N   N47       1.0  0.38010  0.37380  0.41320  1.0000 -0.2362869854
N   N48       1.0  0.61990  0.62620  0.91320  1.0000 -0.2362869854
