# DDEC6 charges by PACMAN v1.1 (https://github.com/mtap-research/PACMAN-charge/)
data_2010[Cu][nan]3[ASR]12
_chemical_formula_sum              "Cu8 H12 C32 S4 O32"
_cell_length_a       7.3378
_cell_length_b       18.201
_cell_length_c       12.0563
_cell_angle_alpha    90
_cell_angle_beta     122.968
_cell_angle_gamma    90

_symmetry_space_group_name_H-M    "P 1"
_symmetry_Int_Tables_number       1

loop_
  _symmetry_equiv_pos_as_xyz
  'x, y, z'

loop_
  _atom_site_type_symbol
  _atom_site_label
  _atom_site_symmetry_multiplicity
  _atom_site_fract_x
  _atom_site_fract_y
  _atom_site_fract_z
  _atom_site_occupancy
  _atom_site_charge
Cu  Cu1       1.0  0.35135  0.09399  0.21787  1.0000 1.0433139875
Cu  Cu2       1.0  0.64865  0.59399  0.28213  1.0000 1.0433139875
Cu  Cu3       1.0  0.64865  0.90601  0.78213  1.0000 1.0433139875
Cu  Cu4       1.0  0.35135  0.40601  0.71787  1.0000 1.0433139875
Cu  Cu5       1.0  0.88592  0.06843  0.93329  1.0000 1.1451891735
Cu  Cu6       1.0  0.11408  0.56843  0.56671  1.0000 1.1451891735
Cu  Cu7       1.0  0.11408  0.93157  0.06671  1.0000 1.1444523408
Cu  Cu8       1.0  0.88592  0.43157  0.43329  1.0000 1.1444523408
H   H1        1.0  0.38030  0.30620  0.16680  1.0000 0.1478656058
H   H2        1.0  0.61970  0.80620  0.33320  1.0000 0.1478656058
H   H3        1.0  0.61970  0.69380  0.83320  1.0000 0.1478656058
H   H4        1.0  0.38030  0.19380  0.66680  1.0000 0.1478656058
H   H5        1.0  0.85100  0.29330  0.79800  1.0000 0.1478656058
H   H6        1.0  0.14900  0.79330  0.70200  1.0000 0.1478656058
H   H7        1.0  0.14900  0.70670  0.20200  1.0000 0.1478656058
H   H8        1.0  0.85100  0.20670  0.29800  1.0000 0.1478656058
H   H9        1.0  0.15580  0.48750  0.93930  1.0000 0.1478656058
H   H10       1.0  0.84420  0.98750  0.56070  1.0000 0.1478656058
H   H11       1.0  0.84420  0.51250  0.06070  1.0000 0.1478656058
H   H12       1.0  0.15580  0.01250  0.43930  1.0000 0.1478656058
C   C1        1.0  0.98460  0.39542  0.85010  1.0000 -0.0715033301
C   C2        1.0  0.01540  0.89542  0.64990  1.0000 -0.0715033301
C   C3        1.0  0.01540  0.60458  0.14990  1.0000 -0.0715033301
C   C4        1.0  0.98460  0.10458  0.35010  1.0000 -0.0715033301
C   C5        1.0  0.29760  0.40387  0.07190  1.0000 -0.0030598776
C   C6        1.0  0.70240  0.90387  0.42810  1.0000 -0.0030598776
C   C7        1.0  0.70240  0.59613  0.92810  1.0000 -0.0030598776
C   C8        1.0  0.29760  0.09613  0.57190  1.0000 -0.0030598776
C   C9        1.0  0.27950  0.32881  0.08710  1.0000 -0.0820706897
C   C10       1.0  0.72050  0.82881  0.41290  1.0000 -0.0820706897
C   C11       1.0  0.72050  0.67119  0.91290  1.0000 -0.0820706897
C   C12       1.0  0.27950  0.17119  0.58710  1.0000 -0.0820706897
C   C13       1.0  0.11460  0.28712  0.98590  1.0000 -0.0057003983
C   C14       1.0  0.88540  0.78712  0.51410  1.0000 -0.0057003983
C   C15       1.0  0.88540  0.71288  0.01410  1.0000 -0.0057003983
C   C16       1.0  0.11460  0.21288  0.48590  1.0000 -0.0057003983
C   C17       1.0  0.10430  0.20696  0.00980  1.0000 0.6258471086
C   C18       1.0  0.89570  0.70696  0.49020  1.0000 0.6244260147
C   C19       1.0  0.89570  0.79304  0.99020  1.0000 0.6258471086
C   C20       1.0  0.10430  0.29304  0.50980  1.0000 0.6258471086
C   C21       1.0  0.96380  0.32044  0.86620  1.0000 -0.0820706897
C   C22       1.0  0.03620  0.82044  0.63380  1.0000 -0.0820706897
C   C23       1.0  0.03620  0.67956  0.13380  1.0000 -0.0820706897
C   C24       1.0  0.96380  0.17956  0.36620  1.0000 -0.0820706897
C   C25       1.0  0.14680  0.43748  0.95120  1.0000 -0.0885682405
C   C26       1.0  0.85320  0.93748  0.54880  1.0000 -0.0885682405
C   C27       1.0  0.85320  0.56252  0.04880  1.0000 -0.0885682405
C   C28       1.0  0.14680  0.06252  0.45120  1.0000 -0.0885682405
C   C29       1.0  0.47930  0.44574  0.18350  1.0000 0.6112036183
C   C30       1.0  0.52070  0.94574  0.31650  1.0000 0.6112036183
C   C31       1.0  0.52070  0.55426  0.81650  1.0000 0.6112036183
C   C32       1.0  0.47930  0.05426  0.68350  1.0000 0.6112036183
S   S1        1.0  0.80857  0.43423  0.69170  1.0000 1.1883952393
S   S2        1.0  0.19143  0.93423  0.80830  1.0000 1.1883952393
S   S3        1.0  0.19143  0.56577  0.30830  1.0000 1.1883952393
S   S4        1.0  0.80857  0.06577  0.19170  1.0000 1.1883952393
O   O1        1.0  0.96370  0.16793  0.91530  1.0000 -0.5137094484
O   O2        1.0  0.03630  0.66793  0.58470  1.0000 -0.5137094484
O   O3        1.0  0.03630  0.83207  0.08470  1.0000 -0.5137094484
O   O4        1.0  0.96370  0.33207  0.41530  1.0000 -0.5137094484
O   O5        1.0  0.18550  0.03527  0.05630  1.0000 -0.8961303607
O   O6        1.0  0.81450  0.53527  0.44370  1.0000 -0.8961303607
O   O7        1.0  0.81450  0.96473  0.94370  1.0000 -0.8961303607
O   O8        1.0  0.18550  0.46473  0.55630  1.0000 -0.8961303607
O   O9        1.0  0.50370  0.51181  0.16340  1.0000 -0.5525957272
O   O10       1.0  0.49630  0.01181  0.33660  1.0000 -0.5525957272
O   O11       1.0  0.49630  0.48819  0.83660  1.0000 -0.5525957272
O   O12       1.0  0.50370  0.98819  0.66340  1.0000 -0.5525957272
O   O13       1.0  0.24200  0.18594  0.12570  1.0000 -0.5325608776
O   O14       1.0  0.75800  0.68594  0.37430  1.0000 -0.5325608776
O   O15       1.0  0.75800  0.81406  0.87430  1.0000 -0.5325608776
O   O16       1.0  0.24200  0.31406  0.62570  1.0000 -0.5325608776
O   O17       1.0  0.82020  0.51287  0.70290  1.0000 -0.5172580258
O   O18       1.0  0.17980  0.01287  0.79710  1.0000 -0.5172580258
O   O19       1.0  0.17980  0.48713  0.29710  1.0000 -0.5172580258
O   O20       1.0  0.82020  0.98713  0.20290  1.0000 -0.5172580258
O   O21       1.0  0.59590  0.41021  0.28910  1.0000 -0.4988094494
O   O22       1.0  0.40410  0.91021  0.21090  1.0000 -0.4988094494
O   O23       1.0  0.40410  0.58979  0.71090  1.0000 -0.4988094494
O   O24       1.0  0.59590  0.08979  0.78910  1.0000 -0.4988094494
O   O25       1.0  0.89100  0.40485  0.61550  1.0000 -0.6419337616
O   O26       1.0  0.10900  0.90485  0.88450  1.0000 -0.6419337616
O   O27       1.0  0.10900  0.59515  0.38450  1.0000 -0.6419337616
O   O28       1.0  0.89100  0.09515  0.11550  1.0000 -0.6419337616
O   O29       1.0  0.59320  0.40431  0.64270  1.0000 -0.5708513782
O   O30       1.0  0.40680  0.90431  0.85730  1.0000 -0.5708513782
O   O31       1.0  0.40680  0.59569  0.35730  1.0000 -0.5708513782
O   O32       1.0  0.59320  0.09569  0.14270  1.0000 -0.5708513782
