# DDEC6 charges by PACMAN v1.1 (https://github.com/mtap-research/PACMAN-charge/)
data_2010[Cd][nan]3[ASR]12
_chemical_formula_sum              "Cd4 H32 C40 S4 N8 O16"
_cell_length_a       13.2162
_cell_length_b       13.2162
_cell_length_c       13.5716
_cell_angle_alpha    61.7992
_cell_angle_beta     118.201
_cell_angle_gamma    136.533

_symmetry_space_group_name_H-M    "P 1"
_symmetry_Int_Tables_number       1

loop_
  _symmetry_equiv_pos_as_xyz
  'x, y, z'

loop_
  _atom_site_type_symbol
  _atom_site_label
  _atom_site_symmetry_multiplicity
  _atom_site_fract_x
  _atom_site_fract_y
  _atom_site_fract_z
  _atom_site_occupancy
  _atom_site_charge
Cd  Cd1       1.0  0.36339  0.85659  0.89820  1.0000 0.9592586895
Cd  Cd2       1.0  0.85659  0.36339  0.10180  1.0000 0.9592586895
Cd  Cd3       1.0  0.35842  0.84610  0.35669  1.0000 0.9475664637
Cd  Cd4       1.0  0.84610  0.35842  0.64331  1.0000 0.9475664637
H   H1        1.0  0.72450  0.07630  0.96120  1.0000 0.101573773
H   H2        1.0  0.07630  0.72450  0.03880  1.0000 0.101573773
H   H3        1.0  0.92250  0.07530  0.04830  1.0000 0.1279224655
H   H4        1.0  0.07530  0.92250  0.95170  1.0000 0.1279224655
H   H5        1.0  0.62160  0.62620  0.14100  1.0000 0.1377566894
H   H6        1.0  0.62620  0.62160  0.85900  1.0000 0.1377566894
H   H7        1.0  0.43050  0.63730  0.04810  1.0000 0.1279224655
H   H8        1.0  0.63730  0.43050  0.95190  1.0000 0.1279224655
H   H9        1.0  0.79490  0.61870  0.19760  1.0000 0.145307011
H   H10       1.0  0.61870  0.79490  0.80240  1.0000 0.145307011
H   H11       1.0  0.98860  0.61560  0.28380  1.0000 0.1279224655
H   H12       1.0  0.61560  0.98860  0.71620  1.0000 0.1279224655
H   H13       1.0  0.00700  0.63700  0.79550  1.0000 0.1224043328
H   H14       1.0  0.63700  0.00700  0.20450  1.0000 0.1224043328
H   H15       1.0  0.81010  0.63010  0.70950  1.0000 0.1377566894
H   H16       1.0  0.63010  0.81010  0.29050  1.0000 0.1377566894
H   H17       1.0  0.09860  0.08180  0.63940  1.0000 0.1279224655
H   H18       1.0  0.08180  0.09860  0.36060  1.0000 0.1279224655
H   H19       1.0  0.29150  0.07590  0.74270  1.0000 0.1224043328
H   H20       1.0  0.07590  0.29150  0.25730  1.0000 0.1224043328
H   H21       1.0  0.63340  0.63280  0.60840  1.0000 0.145307011
H   H22       1.0  0.63280  0.63340  0.39160  1.0000 0.145307011
H   H23       1.0  0.92240  0.08000  0.55920  1.0000 0.1279224655
H   H24       1.0  0.08000  0.92240  0.44080  1.0000 0.1279224655
H   H25       1.0  0.28240  0.05700  0.22270  1.0000 0.1102108693
H   H26       1.0  0.05700  0.28240  0.77730  1.0000 0.1224043328
H   H27       1.0  0.09180  0.06880  0.13750  1.0000 0.1377566894
H   H28       1.0  0.06880  0.09180  0.86250  1.0000 0.1377566894
H   H29       1.0  0.71530  0.07070  0.45390  1.0000 0.1102108693
H   H30       1.0  0.07070  0.71530  0.54610  1.0000 0.1102108693
H   H31       1.0  0.44310  0.63610  0.51310  1.0000 0.1224043328
H   H32       1.0  0.63610  0.44310  0.48690  1.0000 0.1224043328
C   C1        1.0  0.70330  0.98450  0.99690  1.0000 0.101573773
C   C2        1.0  0.98450  0.70330  0.00310  1.0000 0.101573773
C   C3        1.0  0.82390  0.98510  0.04920  1.0000 -0.2028425121
C   C4        1.0  0.98510  0.82390  0.95080  1.0000 -0.2028425121
C   C5        1.0  0.79360  0.84760  0.10300  1.0000 0.0917801847
C   C6        1.0  0.84760  0.79360  0.89700  1.0000 0.0917801847
C   C7        1.0  0.64540  0.71900  0.10350  1.0000 -0.1782523924
C   C8        1.0  0.71900  0.64540  0.89650  1.0000 -0.1782523924
C   C9        1.0  0.53000  0.72600  0.04850  1.0000 0.1102108693
C   C10       1.0  0.72600  0.53000  0.95150  1.0000 0.1102108693
C   C11       1.0  0.91860  0.84280  0.15990  1.0000 0.101573773
C   C12       1.0  0.84280  0.91860  0.84010  1.0000 0.101573773
C   C13       1.0  0.89340  0.70940  0.20330  1.0000 -0.167873227
C   C14       1.0  0.70940  0.89340  0.79670  1.0000 -0.167873227
C   C15       1.0  0.00960  0.70740  0.25430  1.0000 0.0630127592
C   C16       1.0  0.70740  0.00960  0.74570  1.0000 0.0630127592
C   C17       1.0  0.02560  0.72740  0.76720  1.0000 0.0917801847
C   C18       1.0  0.72740  0.02560  0.23280  1.0000 0.0917801847
C   C19       1.0  0.90720  0.72280  0.71270  1.0000 -0.1782523924
C   C20       1.0  0.72280  0.90720  0.28730  1.0000 -0.1782523924
C   C21       1.0  0.92710  0.85370  0.66130  1.0000 0.101573773
C   C22       1.0  0.85370  0.92710  0.33870  1.0000 0.101573773
C   C23       1.0  0.07760  0.99000  0.67290  1.0000 -0.2028425121
C   C24       1.0  0.99000  0.07760  0.32710  1.0000 -0.2028425121
C   C25       1.0  0.19290  0.98570  0.73430  1.0000 0.0726613505
C   C26       1.0  0.98570  0.19290  0.26570  1.0000 0.0726613505
C   C27       1.0  0.79860  0.85540  0.59750  1.0000 0.0917801847
C   C28       1.0  0.85540  0.79860  0.40250  1.0000 0.0917801847
C   C29       1.0  0.65370  0.72410  0.57940  1.0000 -0.167873227
C   C30       1.0  0.72410  0.65370  0.42060  1.0000 -0.167873227
C   C31       1.0  0.82530  0.98830  0.55000  1.0000 -0.1881883601
C   C32       1.0  0.98830  0.82530  0.45000  1.0000 -0.1881883601
C   C33       1.0  0.18300  0.96760  0.21880  1.0000 0.101573773
C   C34       1.0  0.96760  0.18300  0.78120  1.0000 0.101573773
C   C35       1.0  0.06850  0.97590  0.16690  1.0000 -0.2074499289
C   C36       1.0  0.97590  0.06850  0.83310  1.0000 -0.2074499289
C   C37       1.0  0.69920  0.98140  0.48590  1.0000 0.101573773
C   C38       1.0  0.98140  0.69920  0.51410  1.0000 0.101573773
C   C39       1.0  0.54100  0.72740  0.52000  1.0000 0.0630127592
C   C40       1.0  0.72740  0.54100  0.48000  1.0000 0.0630127592
S   S1        1.0  0.24189  0.61149  0.77632  1.0000 1.3788485667
S   S2        1.0  0.61149  0.24189  0.22368  1.0000 1.3788485667
S   S3        1.0  0.64080  0.25868  0.81189  1.0000 1.4053148171
S   S4        1.0  0.25868  0.64080  0.18811  1.0000 1.4044515034
N   N1        1.0  0.56030  0.85970  0.99550  1.0000 -0.2395868102
N   N2        1.0  0.85970  0.56030  0.00450  1.0000 -0.2395868102
N   N3        1.0  0.16750  0.85370  0.78300  1.0000 -0.2395868102
N   N4        1.0  0.85370  0.16750  0.21700  1.0000 -0.2395868102
N   N5        1.0  0.15720  0.83940  0.26260  1.0000 -0.24903451
N   N6        1.0  0.83940  0.15720  0.73740  1.0000 -0.24903451
N   N7        1.0  0.56030  0.85350  0.47000  1.0000 -0.2348632226
N   N8        1.0  0.85350  0.56030  0.53000  1.0000 -0.2395868102
O   O1        1.0  0.21230  0.61490  0.86710  1.0000 -0.6163636902
O   O2        1.0  0.61490  0.21230  0.13290  1.0000 -0.6163636902
O   O3        1.0  0.52910  0.10330  0.78780  1.0000 -0.7143186191
O   O4        1.0  0.10330  0.52910  0.21220  1.0000 -0.7143186191
O   O5        1.0  0.66250  0.24670  0.93210  1.0000 -0.6800561407
O   O6        1.0  0.24670  0.66250  0.06790  1.0000 -0.6800561407
O   O7        1.0  0.10190  0.52730  0.69600  1.0000 -0.6800561407
O   O8        1.0  0.52730  0.10190  0.30400  1.0000 -0.6800561407
O   O9        1.0  0.78670  0.33350  0.79420  1.0000 -0.6800561407
O   O10       1.0  0.33350  0.78670  0.20580  1.0000 -0.6800561407
O   O11       1.0  0.34030  0.76670  0.72310  1.0000 -0.641369448
O   O12       1.0  0.76670  0.34030  0.27690  1.0000 -0.641369448
O   O13       1.0  0.30820  0.54260  0.83170  1.0000 -0.6565582613
O   O14       1.0  0.54260  0.30820  0.16830  1.0000 -0.6565582613
O   O15       1.0  0.59070  0.34390  0.73590  1.0000 -0.6936795572
O   O16       1.0  0.34390  0.59070  0.26410  1.0000 -0.6936795572
