# DDEC6 charges by PACMAN v1.1 (https://github.com/mtap-research/PACMAN-charge/)
data_2010[Zn][lvt]3[ASR]1
_chemical_formula_sum              "Zn4 H48 C80 N4 O16"
_cell_length_a       23.0847
_cell_length_b       23.0847
_cell_length_c       23.0847
_cell_angle_alpha    136.204
_cell_angle_beta     119.46
_cell_angle_gamma    77.6654

_symmetry_space_group_name_H-M    "P 1"
_symmetry_Int_Tables_number       1

loop_
  _symmetry_equiv_pos_as_xyz
  'x, y, z'

loop_
  _atom_site_type_symbol
  _atom_site_label
  _atom_site_symmetry_multiplicity
  _atom_site_fract_x
  _atom_site_fract_y
  _atom_site_fract_z
  _atom_site_occupancy
  _atom_site_charge
Zn  Zn1       1.0  0.03000  0.97175  0.94175  1.0000 0.9417891864
Zn  Zn2       1.0  0.47000  0.41175  0.94175  1.0000 0.9417891864
Zn  Zn3       1.0  0.53000  0.58825  0.05825  1.0000 0.9417891864
Zn  Zn4       1.0  0.97000  0.02825  0.05825  1.0000 0.9417891864
H   H1        1.0  0.92270  0.24480  0.91250  1.0000 0.1281803545
H   H2        1.0  0.57730  0.48980  0.32210  1.0000 0.1281803545
H   H3        1.0  0.83230  0.51020  0.08750  1.0000 0.1281803545
H   H4        1.0  0.66770  0.75520  0.67790  1.0000 0.1281803545
H   H5        1.0  0.07730  0.75520  0.08750  1.0000 0.1281803545
H   H6        1.0  0.42270  0.51020  0.67790  1.0000 0.1281803545
H   H7        1.0  0.16770  0.48980  0.91250  1.0000 0.1281803545
H   H8        1.0  0.33230  0.24480  0.32210  1.0000 0.1281803545
H   H9        1.0  0.89040  0.23070  0.08330  1.0000 0.1281803545
H   H10       1.0  0.60960  0.69290  0.34030  1.0000 0.1281803545
H   H11       1.0  0.64740  0.30710  0.91670  1.0000 0.1281803545
H   H12       1.0  0.85260  0.76930  0.65970  1.0000 0.1281803545
H   H13       1.0  0.10960  0.76930  0.91670  1.0000 0.1281803545
H   H14       1.0  0.39040  0.30710  0.65970  1.0000 0.1281803545
H   H15       1.0  0.35260  0.69290  0.08330  1.0000 0.1281803545
H   H16       1.0  0.14740  0.23070  0.34030  1.0000 0.1281803545
H   H17       1.0  0.96660  0.14830  0.91790  1.0000 0.1281803545
H   H18       1.0  0.53340  0.45130  0.18170  1.0000 0.1281803545
H   H19       1.0  0.73040  0.54870  0.08210  1.0000 0.1281803545
H   H20       1.0  0.76960  0.85170  0.81830  1.0000 0.1281803545
H   H21       1.0  0.03340  0.85170  0.08210  1.0000 0.1281803545
H   H22       1.0  0.46660  0.54870  0.81830  1.0000 0.1281803545
H   H23       1.0  0.26960  0.45130  0.91790  1.0000 0.1281803545
H   H24       1.0  0.23040  0.14830  0.18170  1.0000 0.1281803545
H   H25       1.0  0.85690  0.33340  0.08810  1.0000 0.1281803545
H   H26       1.0  0.64310  0.73120  0.47650  1.0000 0.1281803545
H   H27       1.0  0.74530  0.26880  0.91190  1.0000 0.1281803545
H   H28       1.0  0.75470  0.66667  0.52350  1.0000 0.1281803545
H   H29       1.0  0.14310  0.66667  0.91190  1.0000 0.1281803545
H   H30       1.0  0.35690  0.26880  0.52350  1.0000 0.1281803545
H   H31       1.0  0.25470  0.73120  0.08810  1.0000 0.1281803545
H   H32       1.0  0.24530  0.33340  0.47650  1.0000 0.1281803545
H   H33       1.0  0.82550  0.38280  0.89410  1.0000 0.1281803545
H   H34       1.0  0.67450  0.56860  0.55730  1.0000 0.1281803545
H   H35       1.0  0.98870  0.43140  0.10590  1.0000 0.1281803545
H   H36       1.0  0.51130  0.61720  0.44270  1.0000 0.1281803545
H   H37       1.0  0.17450  0.61720  0.10590  1.0000 0.1281803545
H   H38       1.0  0.32550  0.43140  0.44270  1.0000 0.1281803545
H   H39       1.0  0.01130  0.56860  0.89410  1.0000 0.1281803545
H   H40       1.0  0.48870  0.38280  0.55730  1.0000 0.1281803545
H   H41       1.0  0.88770  0.45370  0.89800  1.0000 0.1100194685
H   H42       1.0  0.61230  0.51030  0.56600  1.0000 0.1100194685
H   H43       1.0  0.05570  0.48970  0.10200  1.0000 0.1100194685
H   H44       1.0  0.44430  0.54630  0.43400  1.0000 0.1100194685
H   H45       1.0  0.11230  0.54630  0.10200  1.0000 0.1100194685
H   H46       1.0  0.38770  0.48970  0.43400  1.0000 0.1100194685
H   H47       1.0  0.94430  0.51030  0.89800  1.0000 0.1100194685
H   H48       1.0  0.55570  0.45370  0.56600  1.0000 0.1100194685
C   C1        1.0  0.95671  0.11193  0.99918  1.0000 0.5906149362
C   C2        1.0  0.54329  0.54247  0.15522  1.0000 0.5906149362
C   C3        1.0  0.61275  0.45753  0.00082  1.0000 0.5906149362
C   C4        1.0  0.88725  0.88807  0.84478  1.0000 0.5906149362
C   C5        1.0  0.04329  0.88807  0.00082  1.0000 0.5906149362
C   C6        1.0  0.45671  0.45753  0.84478  1.0000 0.5906149362
C   C7        1.0  0.38725  0.54247  0.99918  1.0000 0.5906149362
C   C8        1.0  0.11275  0.11193  0.15522  1.0000 0.5906149362
C   C9        1.0  0.91717  0.24293  0.94844  1.0000 -0.1904076534
C   C10       1.0  0.58283  0.53127  0.32576  1.0000 -0.1904076534
C   C11       1.0  0.79449  0.46873  0.05156  1.0000 -0.1904076534
C   C12       1.0  0.70551  0.75707  0.67424  1.0000 -0.1904076534
C   C13       1.0  0.08283  0.75707  0.05156  1.0000 -0.1904076534
C   C14       1.0  0.41717  0.46873  0.67424  1.0000 -0.1904076534
C   C15       1.0  0.20551  0.53127  0.94844  1.0000 -0.1904076534
C   C16       1.0  0.29449  0.24293  0.32576  1.0000 -0.1904076534
C   C17       1.0  0.88437  0.29954  0.99963  1.0000 0.1663511962
C   C18       1.0  0.61563  0.61526  0.41517  1.0000 0.1663511962
C   C19       1.0  0.79991  0.38474  0.00037  1.0000 0.1663511962
C   C20       1.0  0.70009  0.70046  0.58483  1.0000 0.1663511962
C   C21       1.0  0.11563  0.70046  0.00037  1.0000 0.1663511962
C   C22       1.0  0.38437  0.38474  0.58483  1.0000 0.1663511962
C   C23       1.0  0.20009  0.61526  0.99963  1.0000 0.1663511962
C   C24       1.0  0.29991  0.29954  0.41517  1.0000 0.1663511962
C   C25       1.0  0.89791  0.23376  0.04935  1.0000 -0.079420949
C   C26       1.0  0.60209  0.65144  0.33585  1.0000 -0.079420949
C   C27       1.0  0.68441  0.34856  0.95065  1.0000 -0.079420949
C   C28       1.0  0.81559  0.76624  0.66415  1.0000 -0.079420949
C   C29       1.0  0.10209  0.76624  0.95065  1.0000 -0.079420949
C   C30       1.0  0.39791  0.34856  0.66415  1.0000 -0.079420949
C   C31       1.0  0.31559  0.65144  0.04935  1.0000 -0.079420949
C   C32       1.0  0.18441  0.23376  0.33585  1.0000 -0.079420949
C   C33       1.0  0.93052  0.17629  0.99723  1.0000 -0.0577047329
C   C34       1.0  0.56948  0.56671  0.24577  1.0000 -0.0577047329
C   C35       1.0  0.67906  0.43329  0.00277  1.0000 -0.0577047329
C   C36       1.0  0.82094  0.82371  0.75423  1.0000 -0.0577047329
C   C37       1.0  0.06948  0.82371  0.00277  1.0000 -0.0577047329
C   C38       1.0  0.43052  0.43329  0.75423  1.0000 -0.0577047329
C   C39       1.0  0.32094  0.56671  0.99723  1.0000 -0.0577047329
C   C40       1.0  0.17906  0.17629  0.24577  1.0000 -0.0577047329
C   C41       1.0  0.94208  0.18338  0.94950  1.0000 -0.079420949
C   C42       1.0  0.55792  0.50742  0.24130  1.0000 -0.079420949
C   C43       1.0  0.73388  0.49258  0.05050  1.0000 -0.079420949
C   C44       1.0  0.76612  0.81662  0.75870  1.0000 -0.079420949
C   C45       1.0  0.05792  0.81662  0.05050  1.0000 -0.079420949
C   C46       1.0  0.44208  0.49258  0.75870  1.0000 -0.079420949
C   C47       1.0  0.26612  0.50742  0.94950  1.0000 -0.079420949
C   C48       1.0  0.23388  0.18338  0.24130  1.0000 -0.079420949
C   C49       1.0  0.87703  0.29422  0.05081  1.0000 -0.182251527
C   C50       1.0  0.62297  0.67378  0.41719  1.0000 -0.182251527
C   C51       1.0  0.74341  0.32622  0.94919  1.0000 -0.182251527
C   C52       1.0  0.75659  0.70578  0.58281  1.0000 -0.182251527
C   C53       1.0  0.12297  0.70578  0.94919  1.0000 -0.182251527
C   C54       1.0  0.37703  0.32622  0.58281  1.0000 -0.182251527
C   C55       1.0  0.25659  0.67378  0.05081  1.0000 -0.182251527
C   C56       1.0  0.24341  0.29422  0.41719  1.0000 -0.182251527
C   C57       1.0  0.90156  0.40156  0.00000  1.0000 0.1356142525
C   C58       1.0  0.59844  0.59844  0.50000  1.0000 0.1356142525
C   C59       1.0  0.09844  0.59844  0.00000  1.0000 0.1356142525
C   C60       1.0  0.40156  0.40156  0.50000  1.0000 0.1356142525
C   C61       1.0  0.87210  0.40671  0.93859  1.0000 -0.182251527
C   C62       1.0  0.62790  0.56649  0.53461  1.0000 -0.182251527
C   C63       1.0  0.96812  0.43351  0.06141  1.0000 -0.182251527
C   C64       1.0  0.53188  0.59329  0.46539  1.0000 -0.182251527
C   C65       1.0  0.12790  0.59329  0.06141  1.0000 -0.182251527
C   C66       1.0  0.37210  0.43351  0.46539  1.0000 -0.182251527
C   C67       1.0  0.03188  0.56649  0.93859  1.0000 -0.182251527
C   C68       1.0  0.46812  0.40671  0.53461  1.0000 -0.182251527
C   C69       1.0  0.90996  0.44789  0.93927  1.0000 -0.1436187636
C   C70       1.0  0.59004  0.52931  0.53793  1.0000 -0.1436187636
C   C71       1.0  0.00862  0.47069  0.06073  1.0000 -0.1436187636
C   C72       1.0  0.49138  0.55211  0.46207  1.0000 -0.1436187636
C   C73       1.0  0.09004  0.55211  0.06073  1.0000 -0.1436187636
C   C74       1.0  0.40996  0.47069  0.46207  1.0000 -0.1436187636
C   C75       1.0  0.99138  0.52931  0.93927  1.0000 -0.1436187636
C   C76       1.0  0.50862  0.44789  0.53793  1.0000 -0.1436187636
C   C77       1.0  0.97907  0.47907  0.00000  1.0000 0.0528792933
C   C78       1.0  0.52093  0.52093  0.50000  1.0000 0.0528792933
C   C79       1.0  0.02093  0.52093  0.00000  1.0000 0.0528792933
C   C80       1.0  0.47907  0.47907  0.50000  1.0000 0.0528792933
N   N1        1.0  0.86153  0.36153  0.00000  1.0000 -0.182251527
N   N2        1.0  0.63847  0.63847  0.50000  1.0000 -0.182251527
N   N3        1.0  0.13847  0.63847  0.00000  1.0000 -0.1749146666
N   N4        1.0  0.36153  0.36153  0.50000  1.0000 -0.182251527
O   O1        1.0  0.98867  0.06542  0.95481  1.0000 -0.5351918127
O   O2        1.0  0.51133  0.46614  0.07675  1.0000 -0.5332720717
O   O3        1.0  0.61061  0.53386  0.04519  1.0000 -0.5332720717
O   O4        1.0  0.88939  0.93458  0.92325  1.0000 -0.5351918127
O   O5        1.0  0.01133  0.93458  0.04519  1.0000 -0.5332720717
O   O6        1.0  0.48867  0.53386  0.92325  1.0000 -0.5351918127
O   O7        1.0  0.38939  0.46614  0.95481  1.0000 -0.5351918127
O   O8        1.0  0.11061  0.06542  0.07675  1.0000 -0.5351918127
O   O9        1.0  0.94307  0.10806  0.04231  1.0000 -0.5332720717
O   O10       1.0  0.55693  0.59924  0.16499  1.0000 -0.5332720717
O   O11       1.0  0.56575  0.40076  0.95769  1.0000 -0.5332720717
O   O12       1.0  0.93425  0.89194  0.83501  1.0000 -0.5332720717
O   O13       1.0  0.05693  0.89194  0.95769  1.0000 -0.5332720717
O   O14       1.0  0.44307  0.40076  0.83501  1.0000 -0.5332720717
O   O15       1.0  0.43425  0.59924  0.04231  1.0000 -0.5332720717
O   O16       1.0  0.06575  0.10806  0.16499  1.0000 -0.5332720717
