# DDEC6 charges by PACMAN v1.1 (https://github.com/mtap-research/PACMAN-charge/)
data_2010[Cd][nbo]3[ASR]1
_chemical_formula_sum              "Cd3 H54 C78 N12 Cl6"
_cell_length_a       16.174
_cell_length_b       16.174
_cell_length_c       16.174
_cell_angle_alpha    112.853
_cell_angle_beta     112.853
_cell_angle_gamma    112.853

_symmetry_space_group_name_H-M    "P 1"
_symmetry_Int_Tables_number       1

loop_
  _symmetry_equiv_pos_as_xyz
  'x, y, z'

loop_
  _atom_site_type_symbol
  _atom_site_label
  _atom_site_symmetry_multiplicity
  _atom_site_fract_x
  _atom_site_fract_y
  _atom_site_fract_z
  _atom_site_occupancy
  _atom_site_charge
Cd  Cd1       1.0  0.00000  0.50000  0.50000  1.0000 0.6730950804
Cd  Cd2       1.0  0.50000  0.50000  0.00000  1.0000 0.6730950804
Cd  Cd3       1.0  0.50000  0.00000  0.50000  1.0000 0.6730950804
H   H1        1.0  0.83720  0.39570  0.55830  1.0000 0.1054280531
H   H2        1.0  0.39570  0.55830  0.83720  1.0000 0.1054280531
H   H3        1.0  0.55830  0.83720  0.39570  1.0000 0.1054280531
H   H4        1.0  0.16280  0.44170  0.60430  1.0000 0.1054280531
H   H5        1.0  0.60430  0.16280  0.44170  1.0000 0.1054280531
H   H6        1.0  0.44170  0.60430  0.16280  1.0000 0.1054280531
H   H7        1.0  0.16280  0.60430  0.44170  1.0000 0.1054280531
H   H8        1.0  0.60430  0.44170  0.16280  1.0000 0.1054280531
H   H9        1.0  0.44170  0.16280  0.60430  1.0000 0.1054280531
H   H10       1.0  0.83720  0.55830  0.39570  1.0000 0.1054280531
H   H11       1.0  0.39570  0.83720  0.55830  1.0000 0.1054280531
H   H12       1.0  0.55830  0.39570  0.83720  1.0000 0.1054280531
H   H13       1.0  0.83420  0.38140  0.69410  1.0000 0.1351889875
H   H14       1.0  0.38140  0.69410  0.83420  1.0000 0.1351889875
H   H15       1.0  0.69410  0.83420  0.38140  1.0000 0.1351889875
H   H16       1.0  0.16580  0.30590  0.61860  1.0000 0.1351889875
H   H17       1.0  0.61860  0.16580  0.30590  1.0000 0.1351889875
H   H18       1.0  0.30590  0.61860  0.16580  1.0000 0.1351889875
H   H19       1.0  0.16580  0.61860  0.30590  1.0000 0.1351889875
H   H20       1.0  0.61860  0.30590  0.16580  1.0000 0.1351889875
H   H21       1.0  0.30590  0.16580  0.61860  1.0000 0.1351889875
H   H22       1.0  0.83420  0.69410  0.38140  1.0000 0.1351889875
H   H23       1.0  0.38140  0.83420  0.69410  1.0000 0.1351889875
H   H24       1.0  0.69410  0.38140  0.83420  1.0000 0.1351889875
H   H25       1.0  0.18180  0.63530  0.92780  1.0000 0.1253528725
H   H26       1.0  0.63530  0.92780  0.18180  1.0000 0.1253528725
H   H27       1.0  0.92780  0.18180  0.63530  1.0000 0.1253528725
H   H28       1.0  0.81820  0.07220  0.36470  1.0000 0.1253528725
H   H29       1.0  0.36470  0.81820  0.07220  1.0000 0.1253528725
H   H30       1.0  0.07220  0.36470  0.81820  1.0000 0.1253528725
H   H31       1.0  0.81820  0.36470  0.07220  1.0000 0.1253528725
H   H32       1.0  0.36470  0.07220  0.81820  1.0000 0.1253528725
H   H33       1.0  0.07220  0.81820  0.36470  1.0000 0.1253528725
H   H34       1.0  0.18180  0.92780  0.63530  1.0000 0.1253528725
H   H35       1.0  0.63530  0.18180  0.92780  1.0000 0.1253528725
H   H36       1.0  0.92780  0.63530  0.18180  1.0000 0.1253528725
H   H37       1.0  0.17450  0.64500  0.78620  1.0000 0.1014384013
H   H38       1.0  0.64500  0.78620  0.17450  1.0000 0.1014384013
H   H39       1.0  0.78620  0.17450  0.64500  1.0000 0.1014384013
H   H40       1.0  0.82550  0.21380  0.35500  1.0000 0.1014384013
H   H41       1.0  0.35500  0.82550  0.21380  1.0000 0.1014384013
H   H42       1.0  0.21380  0.35500  0.82550  1.0000 0.1014384013
H   H43       1.0  0.82550  0.35500  0.21380  1.0000 0.1014384013
H   H44       1.0  0.35500  0.21380  0.82550  1.0000 0.1014384013
H   H45       1.0  0.21380  0.82550  0.35500  1.0000 0.1014384013
H   H46       1.0  0.17450  0.78620  0.64500  1.0000 0.1014384013
H   H47       1.0  0.64500  0.17450  0.78620  1.0000 0.1014384013
H   H48       1.0  0.78620  0.64500  0.17450  1.0000 0.1014384013
H   H49       1.0  0.86980  0.49890  0.86980  1.0000 0.1200283366
H   H50       1.0  0.49890  0.86980  0.86980  1.0000 0.1200283366
H   H51       1.0  0.86980  0.86980  0.49890  1.0000 0.1200283366
H   H52       1.0  0.13020  0.13020  0.50110  1.0000 0.1200283366
H   H53       1.0  0.50110  0.13020  0.13020  1.0000 0.1200283366
H   H54       1.0  0.13020  0.50110  0.13020  1.0000 0.1200283366
C   C1        1.0  0.90853  0.44530  0.63477  1.0000 0.082573669
C   C2        1.0  0.44530  0.63477  0.90853  1.0000 0.082573669
C   C3        1.0  0.63477  0.90853  0.44530  1.0000 0.082573669
C   C4        1.0  0.09147  0.36523  0.55470  1.0000 0.082573669
C   C5        1.0  0.55470  0.09147  0.36523  1.0000 0.082573669
C   C6        1.0  0.36523  0.55470  0.09147  1.0000 0.082573669
C   C7        1.0  0.09147  0.55470  0.36523  1.0000 0.082573669
C   C8        1.0  0.55470  0.36523  0.09147  1.0000 0.082573669
C   C9        1.0  0.36523  0.09147  0.55470  1.0000 0.082573669
C   C10       1.0  0.90853  0.63477  0.44530  1.0000 0.082573669
C   C11       1.0  0.44530  0.90853  0.63477  1.0000 0.082573669
C   C12       1.0  0.63477  0.44530  0.90853  1.0000 0.082573669
C   C13       1.0  0.90583  0.43570  0.71517  1.0000 -0.1947207805
C   C14       1.0  0.43570  0.71517  0.90583  1.0000 -0.1947207805
C   C15       1.0  0.71517  0.90583  0.43570  1.0000 -0.1947207805
C   C16       1.0  0.09417  0.28483  0.56430  1.0000 -0.1947207805
C   C17       1.0  0.56430  0.09417  0.28483  1.0000 -0.1947207805
C   C18       1.0  0.28483  0.56430  0.09417  1.0000 -0.1947207805
C   C19       1.0  0.09417  0.56430  0.28483  1.0000 -0.1947207805
C   C20       1.0  0.56430  0.28483  0.09417  1.0000 -0.1947207805
C   C21       1.0  0.28483  0.09417  0.56430  1.0000 -0.1947207805
C   C22       1.0  0.90583  0.71517  0.43570  1.0000 -0.1947207805
C   C23       1.0  0.43570  0.90583  0.71517  1.0000 -0.1947207805
C   C24       1.0  0.71517  0.43570  0.90583  1.0000 -0.1947207805
C   C25       1.0  0.00838  0.50576  0.82666  1.0000 0.1200283366
C   C26       1.0  0.50576  0.82666  0.00838  1.0000 0.1200283366
C   C27       1.0  0.82666  0.00838  0.50576  1.0000 0.1200283366
C   C28       1.0  0.99162  0.17334  0.49424  1.0000 0.1200283366
C   C29       1.0  0.49424  0.99162  0.17334  1.0000 0.1200283366
C   C30       1.0  0.17334  0.49424  0.99162  1.0000 0.1200283366
C   C31       1.0  0.99162  0.49424  0.17334  1.0000 0.1200283366
C   C32       1.0  0.49424  0.17334  0.99162  1.0000 0.1200283366
C   C33       1.0  0.17334  0.99162  0.49424  1.0000 0.1200283366
C   C34       1.0  0.00838  0.82666  0.50576  1.0000 0.1200283366
C   C35       1.0  0.50576  0.00838  0.82666  1.0000 0.1200283366
C   C36       1.0  0.82666  0.50576  0.00838  1.0000 0.1200283366
C   C37       1.0  0.10930  0.58480  0.85220  1.0000 -0.2042208134
C   C38       1.0  0.58480  0.85220  0.10930  1.0000 -0.2042208134
C   C39       1.0  0.85220  0.10930  0.58480  1.0000 -0.2042208134
C   C40       1.0  0.89070  0.14780  0.41520  1.0000 -0.2042208134
C   C41       1.0  0.41520  0.89070  0.14780  1.0000 -0.2042208134
C   C42       1.0  0.14780  0.41520  0.89070  1.0000 -0.2042208134
C   C43       1.0  0.89070  0.41520  0.14780  1.0000 -0.2042208134
C   C44       1.0  0.41520  0.14780  0.89070  1.0000 -0.2042208134
C   C45       1.0  0.14780  0.89070  0.41520  1.0000 -0.2042208134
C   C46       1.0  0.10930  0.85220  0.58480  1.0000 -0.2042208134
C   C47       1.0  0.58480  0.10930  0.85220  1.0000 -0.2042208134
C   C48       1.0  0.85220  0.58480  0.10930  1.0000 -0.2042208134
C   C49       1.0  0.10430  0.58970  0.76680  1.0000 0.082573669
C   C50       1.0  0.58970  0.76680  0.10430  1.0000 0.082573669
C   C51       1.0  0.76680  0.10430  0.58970  1.0000 0.082573669
C   C52       1.0  0.89570  0.23320  0.41030  1.0000 0.082573669
C   C53       1.0  0.41030  0.89570  0.23320  1.0000 0.082573669
C   C54       1.0  0.23320  0.41030  0.89570  1.0000 0.082573669
C   C55       1.0  0.89570  0.41030  0.23320  1.0000 0.082573669
C   C56       1.0  0.41030  0.23320  0.89570  1.0000 0.082573669
C   C57       1.0  0.23320  0.89570  0.41030  1.0000 0.082573669
C   C58       1.0  0.10430  0.76680  0.58970  1.0000 0.082573669
C   C59       1.0  0.58970  0.10430  0.76680  1.0000 0.082573669
C   C60       1.0  0.76680  0.58970  0.10430  1.0000 0.082573669
C   C61       1.0  0.00627  0.49957  0.91566  1.0000 0.0260029593
C   C62       1.0  0.49957  0.91566  0.00627  1.0000 0.0260029593
C   C63       1.0  0.91566  0.00627  0.49957  1.0000 0.0260029593
C   C64       1.0  0.99373  0.08434  0.50043  1.0000 0.0260029593
C   C65       1.0  0.50043  0.99373  0.08434  1.0000 0.0260029593
C   C66       1.0  0.08434  0.50043  0.99373  1.0000 0.0260029593
C   C67       1.0  0.99373  0.50043  0.08434  1.0000 0.0260029593
C   C68       1.0  0.50043  0.08434  0.99373  1.0000 0.0260029593
C   C69       1.0  0.08434  0.99373  0.50043  1.0000 0.0260029593
C   C70       1.0  0.00627  0.91566  0.49957  1.0000 0.0260029593
C   C71       1.0  0.49957  0.00627  0.91566  1.0000 0.0260029593
C   C72       1.0  0.91566  0.49957  0.00627  1.0000 0.0260029593
C   C73       1.0  0.92319  0.49922  0.92319  1.0000 -0.1797384465
C   C74       1.0  0.49922  0.92319  0.92319  1.0000 -0.1797384465
C   C75       1.0  0.92319  0.92319  0.49922  1.0000 -0.1797384465
C   C76       1.0  0.07681  0.07681  0.50078  1.0000 -0.1797384465
C   C77       1.0  0.50078  0.07681  0.07681  1.0000 -0.1797384465
C   C78       1.0  0.07681  0.50078  0.07681  1.0000 -0.1797384465
N   N1        1.0  0.00588  0.52082  0.65900  1.0000 -0.2139592811
N   N2        1.0  0.52082  0.65900  0.00588  1.0000 -0.2139592811
N   N3        1.0  0.65900  0.00588  0.52082  1.0000 -0.2139592811
N   N4        1.0  0.99412  0.34100  0.47918  1.0000 -0.2139592811
N   N5        1.0  0.47918  0.99412  0.34100  1.0000 -0.2139592811
N   N6        1.0  0.34100  0.47918  0.99412  1.0000 -0.2139592811
N   N7        1.0  0.99412  0.47918  0.34100  1.0000 -0.2139592811
N   N8        1.0  0.47918  0.34100  0.99412  1.0000 -0.2139592811
N   N9        1.0  0.34100  0.99412  0.47918  1.0000 -0.2139592811
N   N10       1.0  0.00588  0.65900  0.52082  1.0000 -0.2139592811
N   N11       1.0  0.52082  0.00588  0.65900  1.0000 -0.2139592811
N   N12       1.0  0.65900  0.52082  0.00588  1.0000 -0.2139592811
Cl  Cl1       1.0  0.22240  0.63763  0.63763  1.0000 -0.6082095771
Cl  Cl2       1.0  0.63764  0.63763  0.22240  1.0000 -0.6082095771
Cl  Cl3       1.0  0.63763  0.22240  0.63763  1.0000 -0.6082095771
Cl  Cl4       1.0  0.77760  0.36237  0.36236  1.0000 -0.6082095771
Cl  Cl5       1.0  0.36237  0.77760  0.36236  1.0000 -0.6082095771
Cl  Cl6       1.0  0.36237  0.36237  0.77760  1.0000 -0.6082095771
