# DDEC6 charges by PACMAN v1.1 (https://github.com/mtap-research/PACMAN-charge/)
data_2010[Co][bcg]3[ASR]2
_chemical_formula_sum              "Co12 H64 C128 O64"
_cell_length_a       33.232
_cell_length_b       9.767
_cell_length_c       18.311
_cell_angle_alpha    90
_cell_angle_beta     92.609
_cell_angle_gamma    90

_symmetry_space_group_name_H-M    "P 1"
_symmetry_Int_Tables_number       1

loop_
  _symmetry_equiv_pos_as_xyz
  'x, y, z'

loop_
  _atom_site_type_symbol
  _atom_site_label
  _atom_site_symmetry_multiplicity
  _atom_site_fract_x
  _atom_site_fract_y
  _atom_site_fract_z
  _atom_site_occupancy
  _atom_site_charge
Co  Co1       1.0  0.25000  0.75000  0.00000  1.0000 1.1699230223
Co  Co2       1.0  0.75000  0.25000  0.00000  1.0000 1.1699230223
Co  Co3       1.0  0.75000  0.75000  0.50000  1.0000 1.1699230223
Co  Co4       1.0  0.25000  0.25000  0.50000  1.0000 1.1699230223
Co  Co5       1.0  0.34913  0.67644  0.01572  1.0000 1.1061738283
Co  Co6       1.0  0.65087  0.32356  0.98428  1.0000 1.1030562669
Co  Co7       1.0  0.65087  0.67644  0.48428  1.0000 1.1061738283
Co  Co8       1.0  0.34913  0.32356  0.51572  1.0000 1.1030562669
Co  Co9       1.0  0.84913  0.17644  0.01572  1.0000 1.1030562669
Co  Co10      1.0  0.15087  0.82356  0.98428  1.0000 1.1030562669
Co  Co11      1.0  0.15087  0.17644  0.48428  1.0000 1.1061738283
Co  Co12      1.0  0.84913  0.82356  0.51572  1.0000 1.1061738283
H   H1        1.0  0.24914  0.98838  0.83407  1.0000 0.1184713336
H   H2        1.0  0.75086  0.01162  0.16593  1.0000 0.1184713336
H   H3        1.0  0.75086  0.98838  0.66593  1.0000 0.1184713336
H   H4        1.0  0.24914  0.01162  0.33407  1.0000 0.1184713336
H   H5        1.0  0.74914  0.48838  0.83407  1.0000 0.1184713336
H   H6        1.0  0.25086  0.51162  0.16593  1.0000 0.1184713336
H   H7        1.0  0.25086  0.48838  0.66593  1.0000 0.1184713336
H   H8        1.0  0.74914  0.51162  0.33407  1.0000 0.1184713336
H   H9        1.0  0.24629  0.11179  0.71545  1.0000 0.1184713336
H   H10       1.0  0.75371  0.88821  0.28455  1.0000 0.1184713336
H   H11       1.0  0.75371  0.11179  0.78455  1.0000 0.1184713336
H   H12       1.0  0.24629  0.88821  0.21545  1.0000 0.1184713336
H   H13       1.0  0.74629  0.61179  0.71545  1.0000 0.1184713336
H   H14       1.0  0.25371  0.38821  0.28455  1.0000 0.1184713336
H   H15       1.0  0.25371  0.61179  0.78455  1.0000 0.1184713336
H   H16       1.0  0.74629  0.38821  0.21545  1.0000 0.1184713336
H   H17       1.0  0.37413  0.04182  0.69526  1.0000 0.1184713336
H   H18       1.0  0.62587  0.95818  0.30474  1.0000 0.1184713336
H   H19       1.0  0.62587  0.04182  0.80474  1.0000 0.1184713336
H   H20       1.0  0.37413  0.95818  0.19526  1.0000 0.1184713336
H   H21       1.0  0.87413  0.54182  0.69526  1.0000 0.1184713336
H   H22       1.0  0.12587  0.45818  0.30474  1.0000 0.1184713336
H   H23       1.0  0.12587  0.54182  0.80474  1.0000 0.1184713336
H   H24       1.0  0.87413  0.45818  0.19526  1.0000 0.1184713336
H   H25       1.0  0.37684  0.91724  0.81389  1.0000 0.1184713336
H   H26       1.0  0.62316  0.08276  0.18611  1.0000 0.1184713336
H   H27       1.0  0.62316  0.91724  0.68611  1.0000 0.1184713336
H   H28       1.0  0.37684  0.08276  0.31389  1.0000 0.1184713336
H   H29       1.0  0.87684  0.41724  0.81389  1.0000 0.1184713336
H   H30       1.0  0.12316  0.58276  0.18611  1.0000 0.1184713336
H   H31       1.0  0.12316  0.41724  0.68611  1.0000 0.1184713336
H   H32       1.0  0.87684  0.58276  0.31389  1.0000 0.1184713336
H   H33       1.0  0.29024  0.26176  0.11875  1.0000 0.1118828505
H   H34       1.0  0.70976  0.73824  0.88125  1.0000 0.1118828505
H   H35       1.0  0.70976  0.26176  0.38125  1.0000 0.1118828505
H   H36       1.0  0.29024  0.73824  0.61875  1.0000 0.1118828505
H   H37       1.0  0.79024  0.76176  0.11875  1.0000 0.1118828505
H   H38       1.0  0.20976  0.23824  0.88125  1.0000 0.1118828505
H   H39       1.0  0.20976  0.76176  0.38125  1.0000 0.1118828505
H   H40       1.0  0.79024  0.23824  0.61875  1.0000 0.1118828505
H   H41       1.0  0.24967  0.44718  0.91329  1.0000 0.1184713336
H   H42       1.0  0.75033  0.55282  0.08671  1.0000 0.1184713336
H   H43       1.0  0.75033  0.44718  0.58671  1.0000 0.1184713336
H   H44       1.0  0.24967  0.55282  0.41329  1.0000 0.1184713336
H   H45       1.0  0.74967  0.94718  0.91329  1.0000 0.1184713336
H   H46       1.0  0.25033  0.05282  0.08671  1.0000 0.1184713336
H   H47       1.0  0.25033  0.94718  0.58671  1.0000 0.1184713336
H   H48       1.0  0.74967  0.05282  0.41329  1.0000 0.1184713336
H   H49       1.0  0.44498  0.34317  0.95447  1.0000 0.1274119101
H   H50       1.0  0.55502  0.65683  0.04553  1.0000 0.1274119101
H   H51       1.0  0.55502  0.34317  0.54553  1.0000 0.1274119101
H   H52       1.0  0.44498  0.65683  0.45447  1.0000 0.1274119101
H   H53       1.0  0.94498  0.84317  0.95447  1.0000 0.1274119101
H   H54       1.0  0.05502  0.15683  0.04553  1.0000 0.1274119101
H   H55       1.0  0.05502  0.84317  0.54553  1.0000 0.1274119101
H   H56       1.0  0.94498  0.15683  0.45447  1.0000 0.1274119101
H   H57       1.0  0.48412  0.73695  0.04050  1.0000 0.1184713336
H   H58       1.0  0.51588  0.26305  0.95950  1.0000 0.1184713336
H   H59       1.0  0.51588  0.73695  0.45950  1.0000 0.1184713336
H   H60       1.0  0.48412  0.26305  0.54050  1.0000 0.1274119101
H   H61       1.0  0.98412  0.23695  0.04050  1.0000 0.1184713336
H   H62       1.0  0.01588  0.76305  0.95950  1.0000 0.1184713336
H   H63       1.0  0.01588  0.23695  0.45950  1.0000 0.1184713336
H   H64       1.0  0.98412  0.76305  0.54050  1.0000 0.1274119101
C   C1        1.0  0.31315  0.94432  0.83362  1.0000 -0.0055166378
C   C2        1.0  0.68685  0.05568  0.16638  1.0000 -0.0055166378
C   C3        1.0  0.68685  0.94432  0.66638  1.0000 -0.0055166378
C   C4        1.0  0.31315  0.05568  0.33362  1.0000 -0.0055166378
C   C5        1.0  0.81315  0.44432  0.83362  1.0000 -0.0055166378
C   C6        1.0  0.18685  0.55568  0.16638  1.0000 -0.0055166378
C   C7        1.0  0.18685  0.44432  0.66638  1.0000 -0.0055166378
C   C8        1.0  0.81315  0.55568  0.33362  1.0000 -0.0055166378
C   C9        1.0  0.27673  0.00052  0.80414  1.0000 -0.0880570589
C   C10       1.0  0.72327  0.99948  0.19586  1.0000 -0.0880570589
C   C11       1.0  0.72327  0.00052  0.69586  1.0000 -0.0880570589
C   C12       1.0  0.27673  0.99948  0.30414  1.0000 -0.0880570589
C   C13       1.0  0.77673  0.50052  0.80414  1.0000 -0.0880570589
C   C14       1.0  0.22327  0.49948  0.19586  1.0000 -0.0880570589
C   C15       1.0  0.22327  0.50052  0.69586  1.0000 -0.0880570589
C   C16       1.0  0.77673  0.49948  0.30414  1.0000 -0.0880570589
C   C17       1.0  0.27508  0.06998  0.73703  1.0000 -0.0880570589
C   C18       1.0  0.72492  0.93002  0.26297  1.0000 -0.0880570589
C   C19       1.0  0.72492  0.06998  0.76297  1.0000 -0.0880570589
C   C20       1.0  0.27508  0.93002  0.23703  1.0000 -0.0880570589
C   C21       1.0  0.77508  0.56998  0.73703  1.0000 -0.0880570589
C   C22       1.0  0.22492  0.43002  0.26297  1.0000 -0.0880570589
C   C23       1.0  0.22492  0.56998  0.76297  1.0000 -0.0880570589
C   C24       1.0  0.77508  0.43002  0.23703  1.0000 -0.0880570589
C   C25       1.0  0.30989  0.08667  0.69643  1.0000 -0.016414072
C   C26       1.0  0.69011  0.91333  0.30357  1.0000 -0.016414072
C   C27       1.0  0.69011  0.08667  0.80357  1.0000 -0.016414072
C   C28       1.0  0.30989  0.91333  0.19643  1.0000 -0.016414072
C   C29       1.0  0.80989  0.58667  0.69643  1.0000 -0.016414072
C   C30       1.0  0.19011  0.41333  0.30357  1.0000 -0.016414072
C   C31       1.0  0.19011  0.58667  0.80357  1.0000 -0.016414072
C   C32       1.0  0.80989  0.41333  0.19643  1.0000 -0.016414072
C   C33       1.0  0.34655  0.03117  0.72567  1.0000 -0.0974904364
C   C34       1.0  0.65345  0.96883  0.27433  1.0000 -0.0974904364
C   C35       1.0  0.65345  0.03117  0.77433  1.0000 -0.0974904364
C   C36       1.0  0.34655  0.96883  0.22567  1.0000 -0.0974904364
C   C37       1.0  0.84655  0.53117  0.72567  1.0000 -0.0974904364
C   C38       1.0  0.15345  0.46883  0.27433  1.0000 -0.0974904364
C   C39       1.0  0.15345  0.53117  0.77433  1.0000 -0.0974904364
C   C40       1.0  0.84655  0.46883  0.22567  1.0000 -0.0974904364
C   C41       1.0  0.34808  0.96064  0.79297  1.0000 -0.0974904364
C   C42       1.0  0.65192  0.03936  0.20703  1.0000 -0.0974904364
C   C43       1.0  0.65192  0.96064  0.70703  1.0000 -0.0974904364
C   C44       1.0  0.34808  0.03936  0.29297  1.0000 -0.0974904364
C   C45       1.0  0.84808  0.46064  0.79297  1.0000 -0.0974904364
C   C46       1.0  0.15192  0.53936  0.20703  1.0000 -0.0974904364
C   C47       1.0  0.15192  0.46064  0.70703  1.0000 -0.0974904364
C   C48       1.0  0.84808  0.53936  0.29297  1.0000 -0.0974904364
C   C49       1.0  0.31277  0.86678  0.90640  1.0000 0.614153944
C   C50       1.0  0.68723  0.13322  0.09360  1.0000 0.614153944
C   C51       1.0  0.68723  0.86678  0.59360  1.0000 0.614153944
C   C52       1.0  0.31277  0.13322  0.40640  1.0000 0.614153944
C   C53       1.0  0.81277  0.36678  0.90640  1.0000 0.614153944
C   C54       1.0  0.18723  0.63322  0.09360  1.0000 0.614153944
C   C55       1.0  0.18723  0.36678  0.59360  1.0000 0.614153944
C   C56       1.0  0.81277  0.63322  0.40640  1.0000 0.614153944
C   C57       1.0  0.30635  0.16018  0.62278  1.0000 0.6016429886
C   C58       1.0  0.69365  0.83982  0.37722  1.0000 0.6016429886
C   C59       1.0  0.69365  0.16018  0.87722  1.0000 0.6016429886
C   C60       1.0  0.30635  0.83982  0.12278  1.0000 0.6016429886
C   C61       1.0  0.80635  0.66018  0.62278  1.0000 0.6016429886
C   C62       1.0  0.19365  0.33982  0.37722  1.0000 0.6016429886
C   C63       1.0  0.19365  0.66018  0.87722  1.0000 0.6016429886
C   C64       1.0  0.80635  0.33982  0.12278  1.0000 0.6016429886
C   C65       1.0  0.27280  0.25778  0.06642  1.0000 -0.0880570589
C   C66       1.0  0.72720  0.74222  0.93358  1.0000 -0.0880570589
C   C67       1.0  0.72720  0.25778  0.43358  1.0000 -0.0880570589
C   C68       1.0  0.27280  0.74222  0.56642  1.0000 -0.0880570589
C   C69       1.0  0.77280  0.75778  0.06642  1.0000 -0.0880570589
C   C70       1.0  0.22720  0.24222  0.93358  1.0000 -0.0880570589
C   C71       1.0  0.22720  0.75778  0.43358  1.0000 -0.0880570589
C   C72       1.0  0.77280  0.24222  0.56642  1.0000 -0.0880570589
C   C73       1.0  0.27284  0.37015  0.01755  1.0000 0.0006885774
C   C74       1.0  0.72716  0.62985  0.98245  1.0000 0.0006885774
C   C75       1.0  0.72716  0.37015  0.48245  1.0000 0.0006885774
C   C76       1.0  0.27284  0.62985  0.51755  1.0000 0.0006885774
C   C77       1.0  0.77284  0.87015  0.01755  1.0000 0.0006885774
C   C78       1.0  0.22716  0.12985  0.98245  1.0000 0.0006885774
C   C79       1.0  0.22716  0.87015  0.48245  1.0000 0.0006885774
C   C80       1.0  0.77284  0.12985  0.51755  1.0000 0.0006885774
C   C81       1.0  0.24967  0.36024  0.95122  1.0000 -0.0880570589
C   C82       1.0  0.75033  0.63976  0.04878  1.0000 -0.0880570589
C   C83       1.0  0.75033  0.36024  0.54878  1.0000 -0.0880570589
C   C84       1.0  0.24967  0.63976  0.45122  1.0000 -0.0880570589
C   C85       1.0  0.74967  0.86024  0.95122  1.0000 -0.0880570589
C   C86       1.0  0.25033  0.13976  0.04878  1.0000 -0.0880570589
C   C87       1.0  0.25033  0.86024  0.54878  1.0000 -0.0880570589
C   C88       1.0  0.74967  0.13976  0.45122  1.0000 -0.0880570589
C   C89       1.0  0.29915  0.49264  0.03228  1.0000 0.575370565
C   C90       1.0  0.70085  0.50736  0.96772  1.0000 0.575370565
C   C91       1.0  0.70085  0.49264  0.46772  1.0000 0.575370565
C   C92       1.0  0.29915  0.50736  0.53228  1.0000 0.575370565
C   C93       1.0  0.79915  0.99264  0.03228  1.0000 0.575370565
C   C94       1.0  0.20085  0.00736  0.96772  1.0000 0.575370565
C   C95       1.0  0.20085  0.99264  0.46772  1.0000 0.5740540772
C   C96       1.0  0.79915  0.00736  0.53228  1.0000 0.575370565
C   C97       1.0  0.46885  0.41274  0.97454  1.0000 -0.0974904364
C   C98       1.0  0.53115  0.58726  0.02546  1.0000 -0.0974904364
C   C99       1.0  0.53115  0.41274  0.52546  1.0000 -0.0974904364
C   C100      1.0  0.46885  0.58726  0.47454  1.0000 -0.0974904364
C   C101      1.0  0.96885  0.91274  0.97454  1.0000 -0.0974904364
C   C102      1.0  0.03115  0.08726  0.02546  1.0000 -0.0974904364
C   C103      1.0  0.03115  0.91274  0.52546  1.0000 -0.0974904364
C   C104      1.0  0.96885  0.08726  0.47454  1.0000 -0.0974904364
C   C105      1.0  0.45877  0.54648  0.99782  1.0000 -0.0024957299
C   C106      1.0  0.54123  0.45352  0.00218  1.0000 -0.0055166378
C   C107      1.0  0.54123  0.54648  0.50218  1.0000 -0.0024957299
C   C108      1.0  0.45877  0.45352  0.49782  1.0000 -0.0024957299
C   C109      1.0  0.95877  0.04648  0.99782  1.0000 -0.0024957299
C   C110      1.0  0.04123  0.95352  0.00218  1.0000 -0.0024957299
C   C111      1.0  0.04123  0.04648  0.50218  1.0000 -0.0024957299
C   C112      1.0  0.95877  0.95352  0.49782  1.0000 -0.0024957299
C   C113      1.0  0.49083  0.63220  0.02311  1.0000 -0.0880570589
C   C114      1.0  0.50917  0.36780  0.97689  1.0000 -0.0880570589
C   C115      1.0  0.50917  0.63220  0.47689  1.0000 -0.0880570589
C   C116      1.0  0.49083  0.36780  0.52311  1.0000 -0.0880570589
C   C117      1.0  0.99083  0.13220  0.02311  1.0000 -0.0880570589
C   C118      1.0  0.00917  0.86780  0.97689  1.0000 -0.0880570589
C   C119      1.0  0.00917  0.13220  0.47689  1.0000 -0.0880570589
C   C120      1.0  0.99083  0.86780  0.52311  1.0000 -0.0880570589
C   C121      1.0  0.41580  0.59688  0.99861  1.0000 0.5409616753
C   C122      1.0  0.58420  0.40312  0.00139  1.0000 0.5409616753
C   C123      1.0  0.58420  0.59688  0.50139  1.0000 0.5409616753
C   C124      1.0  0.41580  0.40312  0.49861  1.0000 0.5409616753
C   C125      1.0  0.91580  0.09688  0.99861  1.0000 0.5409616753
C   C126      1.0  0.08420  0.90312  0.00139  1.0000 0.5409616753
C   C127      1.0  0.08420  0.09688  0.50139  1.0000 0.5409616753
C   C128      1.0  0.91580  0.90312  0.49861  1.0000 0.5409616753
O   O1        1.0  0.34488  0.80348  0.92907  1.0000 -0.5381795839
O   O2        1.0  0.65512  0.19652  0.07093  1.0000 -0.5381795839
O   O3        1.0  0.65512  0.80348  0.57093  1.0000 -0.5381795839
O   O4        1.0  0.34488  0.19652  0.42907  1.0000 -0.5381795839
O   O5        1.0  0.84488  0.30348  0.92907  1.0000 -0.5381795839
O   O6        1.0  0.15512  0.69652  0.07093  1.0000 -0.5381795839
O   O7        1.0  0.15512  0.30348  0.57093  1.0000 -0.5381795839
O   O8        1.0  0.84488  0.69652  0.42907  1.0000 -0.5381795839
O   O9        1.0  0.27906  0.87460  0.93900  1.0000 -0.5600961447
O   O10       1.0  0.72094  0.12540  0.06100  1.0000 -0.5600961447
O   O11       1.0  0.72094  0.87460  0.56100  1.0000 -0.5600961447
O   O12       1.0  0.27906  0.12540  0.43900  1.0000 -0.5600961447
O   O13       1.0  0.77906  0.37460  0.93900  1.0000 -0.5600961447
O   O14       1.0  0.22094  0.62540  0.06100  1.0000 -0.5600961447
O   O15       1.0  0.22094  0.37460  0.56100  1.0000 -0.5600961447
O   O16       1.0  0.77906  0.62540  0.43900  1.0000 -0.5600961447
O   O17       1.0  0.33915  0.19636  0.59365  1.0000 -0.530110985
O   O18       1.0  0.66085  0.80364  0.40635  1.0000 -0.530110985
O   O19       1.0  0.66085  0.19636  0.90635  1.0000 -0.530110985
O   O20       1.0  0.33915  0.80364  0.09365  1.0000 -0.530110985
O   O21       1.0  0.83915  0.69636  0.59365  1.0000 -0.530110985
O   O22       1.0  0.16085  0.30364  0.40635  1.0000 -0.530110985
O   O23       1.0  0.16085  0.69636  0.90635  1.0000 -0.530110985
O   O24       1.0  0.83915  0.30364  0.09365  1.0000 -0.530110985
O   O25       1.0  0.27049  0.17923  0.59551  1.0000 -0.5509091541
O   O26       1.0  0.72951  0.82077  0.40449  1.0000 -0.5509091541
O   O27       1.0  0.72951  0.17923  0.90449  1.0000 -0.5509091541
O   O28       1.0  0.27049  0.82077  0.09551  1.0000 -0.5509091541
O   O29       1.0  0.77049  0.67923  0.59551  1.0000 -0.5509091541
O   O30       1.0  0.22951  0.32077  0.40449  1.0000 -0.5509091541
O   O31       1.0  0.22951  0.67923  0.90449  1.0000 -0.5509091541
O   O32       1.0  0.77049  0.32077  0.09551  1.0000 -0.5509091541
O   O33       1.0  0.32950  0.49433  0.07643  1.0000 -0.4889696129
O   O34       1.0  0.67050  0.50567  0.92357  1.0000 -0.4889696129
O   O35       1.0  0.67050  0.49433  0.42357  1.0000 -0.4889696129
O   O36       1.0  0.32950  0.50567  0.57643  1.0000 -0.4889696129
O   O37       1.0  0.82950  0.99433  0.07643  1.0000 -0.4889696129
O   O38       1.0  0.17050  0.00567  0.92357  1.0000 -0.4889696129
O   O39       1.0  0.17050  0.99433  0.42357  1.0000 -0.4889696129
O   O40       1.0  0.82950  0.00567  0.57643  1.0000 -0.4889696129
O   O41       1.0  0.29458  0.60720  0.99178  1.0000 -0.5965755135
O   O42       1.0  0.70542  0.39280  0.00822  1.0000 -0.5965755135
O   O43       1.0  0.70542  0.60720  0.50822  1.0000 -0.5965755135
O   O44       1.0  0.29458  0.39280  0.49178  1.0000 -0.5965755135
O   O45       1.0  0.79458  0.10720  0.99178  1.0000 -0.5965755135
O   O46       1.0  0.20542  0.89280  0.00822  1.0000 -0.5965755135
O   O47       1.0  0.20542  0.10720  0.50822  1.0000 -0.5965755135
O   O48       1.0  0.79458  0.89280  0.49178  1.0000 -0.5965755135
O   O49       1.0  0.40636  0.70190  0.03786  1.0000 -0.4629310987
O   O50       1.0  0.59364  0.29810  0.96214  1.0000 -0.4629310987
O   O51       1.0  0.59364  0.70190  0.46214  1.0000 -0.4629310987
O   O52       1.0  0.40636  0.29810  0.53786  1.0000 -0.4629310987
O   O53       1.0  0.90636  0.20190  0.03786  1.0000 -0.4652134329
O   O54       1.0  0.09364  0.79810  0.96214  1.0000 -0.4629310987
O   O55       1.0  0.09364  0.20190  0.46214  1.0000 -0.4629310987
O   O56       1.0  0.90636  0.79810  0.53786  1.0000 -0.4629310987
O   O57       1.0  0.38508  0.54141  0.96386  1.0000 -0.4889696129
O   O58       1.0  0.61492  0.45859  0.03614  1.0000 -0.4889696129
O   O59       1.0  0.61492  0.54141  0.53614  1.0000 -0.4889696129
O   O60       1.0  0.38508  0.45859  0.46386  1.0000 -0.4889696129
O   O61       1.0  0.88508  0.04141  0.96386  1.0000 -0.4889696129
O   O62       1.0  0.11492  0.95859  0.03614  1.0000 -0.4889696129
O   O63       1.0  0.11492  0.04141  0.53614  1.0000 -0.4889696129
O   O64       1.0  0.88508  0.95859  0.46386  1.0000 -0.4889696129
