# DDEC6 charges by PACMAN v1.1 (https://github.com/mtap-research/PACMAN-charge/)
data_2010[La][flu]3[ASR]4
_chemical_formula_sum              "La2 H14 C30 O14"
_cell_length_a       9.404
_cell_length_b       9.957
_cell_length_c       11.459
_cell_angle_alpha    93.381
_cell_angle_beta     97.716
_cell_angle_gamma    110.242

_symmetry_space_group_name_H-M    "P 1"
_symmetry_Int_Tables_number       1

loop_
  _symmetry_equiv_pos_as_xyz
  'x, y, z'

loop_
  _atom_site_type_symbol
  _atom_site_label
  _atom_site_symmetry_multiplicity
  _atom_site_fract_x
  _atom_site_fract_y
  _atom_site_fract_z
  _atom_site_occupancy
  _atom_site_charge
La  La1       1.0  0.21553  0.45274  0.51807  1.0000 1.8791355185
La  La2       1.0  0.78447  0.54726  0.48193  1.0000 1.8791355185
H   H1        1.0  0.41730  0.86660  0.66667  1.0000 0.1469282649
H   H2        1.0  0.58270  0.13340  0.33333  1.0000 0.1469282649
H   H3        1.0  0.69210  0.28270  0.72130  1.0000 0.1419744856
H   H4        1.0  0.30790  0.71730  0.27870  1.0000 0.1419744856
H   H5        1.0  0.81440  0.99590  0.53430  1.0000 0.1419744856
H   H6        1.0  0.18560  0.00410  0.46570  1.0000 0.1419744856
H   H7        1.0  0.35440  0.28140  0.88160  1.0000 0.1469282649
H   H8        1.0  0.64560  0.71860  0.11840  1.0000 0.1469282649
H   H9        1.0  0.44040  0.39760  0.07590  1.0000 0.1160110488
H   H10       1.0  0.55960  0.60240  0.92410  1.0000 0.1160110488
H   H11       1.0  0.76030  0.21520  0.11830  1.0000 0.1160110488
H   H12       1.0  0.23970  0.78480  0.88170  1.0000 0.1160110488
H   H13       1.0  0.66650  0.09040  0.92790  1.0000 0.1301057927
H   H14       1.0  0.33350  0.90960  0.07210  1.0000 0.1301057927
C   C1        1.0  0.57170  0.75680  0.53120  1.0000 0.6215741329
C   C2        1.0  0.42830  0.24320  0.46880  1.0000 0.6215741329
C   C3        1.0  0.60980  0.90760  0.59060  1.0000 -0.0071604888
C   C4        1.0  0.39020  0.09240  0.40940  1.0000 -0.0071604888
C   C5        1.0  0.50800  0.93860  0.65690  1.0000 -0.1951171317
C   C6        1.0  0.49200  0.06140  0.34310  1.0000 -0.1951171317
C   C7        1.0  0.54470  0.07770  0.70740  1.0000 0.2317956678
C   C8        1.0  0.45530  0.92230  0.29260  1.0000 0.2317956678
C   C9        1.0  0.67310  0.18860  0.69000  1.0000 -0.2308238082
C   C10       1.0  0.32690  0.81140  0.31000  1.0000 -0.2308238082
C   C11       1.0  0.77620  0.15670  0.62320  1.0000 -0.0071604888
C   C12       1.0  0.22380  0.84330  0.37680  1.0000 -0.0071604888
C   C13       1.0  0.91960  0.27130  0.60380  1.0000 0.592500358
C   C14       1.0  0.08040  0.72870  0.39620  1.0000 0.592500358
C   C15       1.0  0.74520  0.01730  0.57600  1.0000 -0.1296338893
C   C16       1.0  0.25480  0.98270  0.42400  1.0000 -0.1296338893
C   C17       1.0  0.50440  0.17780  0.88770  1.0000 0.2423897229
C   C18       1.0  0.49560  0.82220  0.11230  1.0000 0.2423897229
C   C19       1.0  0.43540  0.26800  0.92930  1.0000 -0.192674049
C   C20       1.0  0.56460  0.73200  0.07070  1.0000 -0.192674049
C   C21       1.0  0.48940  0.34000  0.04560  1.0000 -0.076852233
C   C22       1.0  0.51060  0.66000  0.95440  1.0000 -0.076852233
C   C23       1.0  0.61390  0.32540  0.11430  1.0000 -0.0473042846
C   C24       1.0  0.38610  0.67460  0.88570  1.0000 -0.0473042846
C   C25       1.0  0.67780  0.41010  0.23370  1.0000 0.5553463988
C   C26       1.0  0.32220  0.58990  0.76630  1.0000 0.5553463988
C   C27       1.0  0.67950  0.22930  0.07100  1.0000 -0.0674139455
C   C28       1.0  0.32050  0.77070  0.92900  1.0000 -0.0674139455
C   C29       1.0  0.62370  0.15440  0.95650  1.0000 -0.2195176602
C   C30       1.0  0.37630  0.84560  0.04350  1.0000 -0.2195176602
O   O1        1.0  0.44360  0.66440  0.53430  1.0000 -0.6262830802
O   O2        1.0  0.55640  0.33560  0.46570  1.0000 -0.6262830802
O   O3        1.0  0.67560  0.73390  0.48150  1.0000 -0.6210024663
O   O4        1.0  0.32440  0.26610  0.51850  1.0000 -0.6210024663
O   O5        1.0  0.04070  0.24520  0.61570  1.0000 -0.5516233154
O   O6        1.0  0.95930  0.75480  0.38430  1.0000 -0.5516233154
O   O7        1.0  0.91640  0.39240  0.57570  1.0000 -0.6781131335
O   O8        1.0  0.08360  0.60760  0.42430  1.0000 -0.6781131335
O   O9        1.0  0.44150  0.10450  0.77440  1.0000 -0.2195176602
O   O10       1.0  0.55850  0.89550  0.22560  1.0000 -0.2195176602
O   O11       1.0  0.78790  0.38990  0.29760  1.0000 -0.604570479
O   O12       1.0  0.21210  0.61010  0.70240  1.0000 -0.604570479
O   O13       1.0  0.62120  0.50050  0.26790  1.0000 -0.5879070767
O   O14       1.0  0.37880  0.49950  0.73210  1.0000 -0.5879070767
