# DDEC6 charges by PACMAN v1.1 (https://github.com/mtap-research/PACMAN-charge/)
data_2010[Cu][nan]3[ASR]14
_chemical_formula_sum              "Cu8 H12 C32 S4 O32"
_cell_length_a       7.356
_cell_length_b       18.208
_cell_length_c       12.0964
_cell_angle_alpha    90
_cell_angle_beta     123.054
_cell_angle_gamma    90

_symmetry_space_group_name_H-M    "P 1"
_symmetry_Int_Tables_number       1

loop_
  _symmetry_equiv_pos_as_xyz
  'x, y, z'

loop_
  _atom_site_type_symbol
  _atom_site_label
  _atom_site_symmetry_multiplicity
  _atom_site_fract_x
  _atom_site_fract_y
  _atom_site_fract_z
  _atom_site_occupancy
  _atom_site_charge
Cu  Cu1       1.0  0.35097  0.09508  0.21699  1.0000 1.0427546213
Cu  Cu2       1.0  0.64903  0.59508  0.28301  1.0000 1.0427546213
Cu  Cu3       1.0  0.64903  0.90492  0.78301  1.0000 1.0427546213
Cu  Cu4       1.0  0.35097  0.40492  0.71699  1.0000 1.0427546213
Cu  Cu5       1.0  0.88903  0.06837  0.93045  1.0000 1.1457973729
Cu  Cu6       1.0  0.11097  0.56837  0.56955  1.0000 1.1457973729
Cu  Cu7       1.0  0.11097  0.93163  0.06955  1.0000 1.1441394101
Cu  Cu8       1.0  0.88903  0.43163  0.43045  1.0000 1.1441394101
H   H1        1.0  0.38530  0.30780  0.16410  1.0000 0.1493975356
H   H2        1.0  0.61470  0.80780  0.33590  1.0000 0.1493975356
H   H3        1.0  0.61470  0.69220  0.83590  1.0000 0.1493975356
H   H4        1.0  0.38530  0.19220  0.66410  1.0000 0.1493975356
H   H5        1.0  0.85850  0.29420  0.79410  1.0000 0.1493975356
H   H6        1.0  0.14150  0.79420  0.70590  1.0000 0.1493975356
H   H7        1.0  0.14150  0.70580  0.20590  1.0000 0.1493975356
H   H8        1.0  0.85850  0.20580  0.29410  1.0000 0.1493975356
H   H9        1.0  0.15860  0.48920  0.93570  1.0000 0.1493975356
H   H10       1.0  0.84140  0.98920  0.56430  1.0000 0.1493975356
H   H11       1.0  0.84140  0.51080  0.06430  1.0000 0.1493975356
H   H12       1.0  0.15860  0.01080  0.43570  1.0000 0.1493975356
C   C1        1.0  0.98870  0.39600  0.84730  1.0000 -0.0676231188
C   C2        1.0  0.01130  0.89600  0.65270  1.0000 -0.0676231188
C   C3        1.0  0.01130  0.60400  0.15270  1.0000 -0.0676231188
C   C4        1.0  0.98870  0.10400  0.34730  1.0000 -0.0676231188
C   C5        1.0  0.30070  0.40470  0.06830  1.0000 -0.0007072375
C   C6        1.0  0.69930  0.90470  0.43170  1.0000 0.0008706805
C   C7        1.0  0.69930  0.59530  0.93170  1.0000 -0.0007072375
C   C8        1.0  0.30070  0.09530  0.56830  1.0000 -0.0007072375
C   C9        1.0  0.28380  0.33010  0.08450  1.0000 -0.0829728981
C   C10       1.0  0.71620  0.83010  0.41550  1.0000 -0.0829728981
C   C11       1.0  0.71620  0.66990  0.91550  1.0000 -0.0829728981
C   C12       1.0  0.28380  0.16990  0.58450  1.0000 -0.0829728981
C   C13       1.0  0.11800  0.28800  0.98390  1.0000 0.0008706805
C   C14       1.0  0.88200  0.78800  0.51610  1.0000 0.0008706805
C   C15       1.0  0.88200  0.71200  0.01610  1.0000 0.0008706805
C   C16       1.0  0.11800  0.21200  0.48390  1.0000 0.0008706805
C   C17       1.0  0.10820  0.20760  0.00820  1.0000 0.6182929213
C   C18       1.0  0.89180  0.70760  0.49180  1.0000 0.6182929213
C   C19       1.0  0.89180  0.79240  0.99180  1.0000 0.6182929213
C   C20       1.0  0.10820  0.29240  0.50820  1.0000 0.6182929213
C   C21       1.0  0.96910  0.32150  0.86300  1.0000 -0.0829728981
C   C22       1.0  0.03090  0.82150  0.63700  1.0000 -0.0829728981
C   C23       1.0  0.03090  0.67850  0.13700  1.0000 -0.0829728981
C   C24       1.0  0.96910  0.17850  0.36300  1.0000 -0.0829728981
C   C25       1.0  0.15020  0.43920  0.94770  1.0000 -0.0888209277
C   C26       1.0  0.84980  0.93920  0.55230  1.0000 -0.0888209277
C   C27       1.0  0.84980  0.56080  0.05230  1.0000 -0.0888209277
C   C28       1.0  0.15020  0.06080  0.44770  1.0000 -0.0888209277
C   C29       1.0  0.48290  0.44730  0.17980  1.0000 0.6182929213
C   C30       1.0  0.51710  0.94730  0.32020  1.0000 0.6182929213
C   C31       1.0  0.51710  0.55270  0.82020  1.0000 0.6182929213
C   C32       1.0  0.48290  0.05270  0.67980  1.0000 0.6182929213
S   S1        1.0  0.81196  0.43511  0.68972  1.0000 1.1825038801
S   S2        1.0  0.18804  0.93511  0.81028  1.0000 1.1825038801
S   S3        1.0  0.18804  0.56489  0.31028  1.0000 1.1825038801
S   S4        1.0  0.81196  0.06489  0.18972  1.0000 1.1825038801
O   O1        1.0  0.96800  0.16825  0.91440  1.0000 -0.5112907996
O   O2        1.0  0.03200  0.66825  0.58560  1.0000 -0.5112907996
O   O3        1.0  0.03200  0.83175  0.08560  1.0000 -0.5112907996
O   O4        1.0  0.96800  0.33175  0.41440  1.0000 -0.5112907996
O   O5        1.0  0.18660  0.03515  0.05850  1.0000 -0.9083617617
O   O6        1.0  0.81340  0.53515  0.44150  1.0000 -0.9083617617
O   O7        1.0  0.81340  0.96485  0.94150  1.0000 -0.9083617617
O   O8        1.0  0.18660  0.46485  0.55850  1.0000 -0.9083617617
O   O9        1.0  0.50550  0.51405  0.16140  1.0000 -0.55436623
O   O10       1.0  0.49450  0.01405  0.33860  1.0000 -0.55436623
O   O11       1.0  0.49450  0.48595  0.83860  1.0000 -0.55436623
O   O12       1.0  0.50550  0.98595  0.66140  1.0000 -0.55436623
O   O13       1.0  0.24360  0.18682  0.12430  1.0000 -0.5353059758
O   O14       1.0  0.75640  0.68682  0.37570  1.0000 -0.5353059758
O   O15       1.0  0.75640  0.81318  0.87570  1.0000 -0.5353059758
O   O16       1.0  0.24360  0.31318  0.62430  1.0000 -0.5353059758
O   O17       1.0  0.83440  0.51320  0.69900  1.0000 -0.521814852
O   O18       1.0  0.16560  0.01320  0.80100  1.0000 -0.521814852
O   O19       1.0  0.16560  0.48680  0.30100  1.0000 -0.521814852
O   O20       1.0  0.83440  0.98680  0.19900  1.0000 -0.521814852
O   O21       1.0  0.60190  0.41045  0.28420  1.0000 -0.5112907996
O   O22       1.0  0.39810  0.91045  0.21580  1.0000 -0.5048707714
O   O23       1.0  0.39810  0.58955  0.71580  1.0000 -0.5048707714
O   O24       1.0  0.60190  0.08955  0.78420  1.0000 -0.5048707714
O   O25       1.0  0.88390  0.40250  0.61140  1.0000 -0.634293883
O   O26       1.0  0.11610  0.90250  0.88860  1.0000 -0.634293883
O   O27       1.0  0.11610  0.59750  0.38860  1.0000 -0.634293883
O   O28       1.0  0.88390  0.09750  0.11140  1.0000 -0.634293883
O   O29       1.0  0.59620  0.40780  0.64460  1.0000 -0.5612641414
O   O30       1.0  0.40380  0.90780  0.85540  1.0000 -0.5612641414
O   O31       1.0  0.40380  0.59220  0.35540  1.0000 -0.5612641414
O   O32       1.0  0.59620  0.09220  0.14460  1.0000 -0.5612641414
