# DDEC6 charges by PACMAN v1.1 (https://github.com/mtap-research/PACMAN-charge/)
data_2010[Cd][nuc]3[ASR]4
_chemical_formula_sum              "Cd4 H144 C192 N48"
_cell_length_a       15.877
_cell_length_b       15.877
_cell_length_c       21.806
_cell_angle_alpha    90
_cell_angle_beta     90
_cell_angle_gamma    90

_symmetry_space_group_name_H-M    "P 1"
_symmetry_Int_Tables_number       1

loop_
  _symmetry_equiv_pos_as_xyz
  'x, y, z'

loop_
  _atom_site_type_symbol
  _atom_site_label
  _atom_site_symmetry_multiplicity
  _atom_site_fract_x
  _atom_site_fract_y
  _atom_site_fract_z
  _atom_site_occupancy
  _atom_site_charge
Cd  Cd1       1.0  0.44219  0.55781  0.75000  1.0000 0.6427252584
Cd  Cd2       1.0  0.55781  0.44219  0.25000  1.0000 0.6427252584
Cd  Cd3       1.0  0.94219  0.94219  0.50000  1.0000 0.6427252584
Cd  Cd4       1.0  0.05781  0.05781  0.00000  1.0000 0.6427252584
H   H1        1.0  0.96340  0.88910  0.64940  1.0000 0.1011359957
H   H2        1.0  0.03660  0.11090  0.14940  1.0000 0.1011359957
H   H3        1.0  0.61090  0.46340  0.39940  1.0000 0.1011359957
H   H4        1.0  0.38910  0.53660  0.89940  1.0000 0.1011359957
H   H5        1.0  0.53660  0.38910  0.10060  1.0000 0.1011359957
H   H6        1.0  0.46340  0.61090  0.60060  1.0000 0.1011359957
H   H7        1.0  0.88910  0.96340  0.35060  1.0000 0.1011359957
H   H8        1.0  0.11090  0.03660  0.85060  1.0000 0.1011359957
H   H9        1.0  0.91590  0.78540  0.71550  1.0000 0.1279908225
H   H10       1.0  0.08410  0.21460  0.21550  1.0000 0.1279908225
H   H11       1.0  0.71460  0.41590  0.46550  1.0000 0.1279908225
H   H12       1.0  0.28540  0.58410  0.96550  1.0000 0.1279908225
H   H13       1.0  0.58410  0.28540  0.03450  1.0000 0.1279908225
H   H14       1.0  0.41590  0.71460  0.53450  1.0000 0.1279908225
H   H15       1.0  0.78540  0.91590  0.28450  1.0000 0.1279908225
H   H16       1.0  0.21460  0.08410  0.78450  1.0000 0.1279908225
H   H17       1.0  0.71560  0.75660  0.60320  1.0000 0.1279908225
H   H18       1.0  0.28440  0.24340  0.10320  1.0000 0.1279908225
H   H19       1.0  0.74340  0.21560  0.35320  1.0000 0.1279908225
H   H20       1.0  0.25660  0.78440  0.85320  1.0000 0.1279908225
H   H21       1.0  0.78440  0.25660  0.14680  1.0000 0.1279908225
H   H22       1.0  0.21560  0.74340  0.64680  1.0000 0.1279908225
H   H23       1.0  0.75660  0.71560  0.39680  1.0000 0.1279908225
H   H24       1.0  0.24340  0.28440  0.89680  1.0000 0.1279908225
H   H25       1.0  0.77220  0.85890  0.54060  1.0000 0.0922761329
H   H26       1.0  0.22780  0.14110  0.04060  1.0000 0.0922761329
H   H27       1.0  0.64110  0.27220  0.29060  1.0000 0.0922761329
H   H28       1.0  0.35890  0.72780  0.79060  1.0000 0.0922761329
H   H29       1.0  0.72780  0.35890  0.20940  1.0000 0.0922761329
H   H30       1.0  0.27220  0.64110  0.70940  1.0000 0.0922761329
H   H31       1.0  0.85890  0.77220  0.45940  1.0000 0.0922761329
H   H32       1.0  0.14110  0.22780  0.95940  1.0000 0.0922761329
H   H33       1.0  0.84660  0.70520  0.77980  1.0000 0.1011359957
H   H34       1.0  0.15340  0.29480  0.27980  1.0000 0.1011359957
H   H35       1.0  0.79480  0.34660  0.52980  1.0000 0.1011359957
H   H36       1.0  0.20520  0.65340  0.02980  1.0000 0.1011359957
H   H37       1.0  0.65340  0.20520  0.97020  1.0000 0.1011359957
H   H38       1.0  0.34660  0.79480  0.47020  1.0000 0.1011359957
H   H39       1.0  0.70520  0.84660  0.22020  1.0000 0.1011359957
H   H40       1.0  0.29480  0.15340  0.72020  1.0000 0.1011359957
H   H41       1.0  0.79750  0.58960  0.83540  1.0000 0.1011359957
H   H42       1.0  0.20250  0.41040  0.33540  1.0000 0.1011359957
H   H43       1.0  0.91040  0.29750  0.58540  1.0000 0.1011359957
H   H44       1.0  0.08960  0.70250  0.08540  1.0000 0.1011359957
H   H45       1.0  0.70250  0.08960  0.91460  1.0000 0.1011359957
H   H46       1.0  0.29750  0.91040  0.41460  1.0000 0.1011359957
H   H47       1.0  0.58960  0.79750  0.16460  1.0000 0.1011359957
H   H48       1.0  0.41040  0.20250  0.66460  1.0000 0.1011359957
H   H49       1.0  0.69570  0.49660  0.79140  1.0000 0.1113120278
H   H50       1.0  0.30430  0.50340  0.29140  1.0000 0.1113120278
H   H51       1.0  0.00340  0.19570  0.54140  1.0000 0.1113120278
H   H52       1.0  0.99660  0.80430  0.04140  1.0000 0.1113120278
H   H53       1.0  0.80430  0.99660  0.95860  1.0000 0.1113120278
H   H54       1.0  0.19570  0.00340  0.45860  1.0000 0.1113120278
H   H55       1.0  0.49660  0.69570  0.20860  1.0000 0.1113120278
H   H56       1.0  0.50340  0.30430  0.70860  1.0000 0.1113120278
H   H57       1.0  0.70240  0.63480  0.63530  1.0000 0.1113120278
H   H58       1.0  0.29760  0.36520  0.13530  1.0000 0.1113120278
H   H59       1.0  0.86520  0.20240  0.38530  1.0000 0.1113120278
H   H60       1.0  0.13480  0.79760  0.88530  1.0000 0.1113120278
H   H61       1.0  0.79760  0.13480  0.11470  1.0000 0.1113120278
H   H62       1.0  0.20240  0.86520  0.61470  1.0000 0.1113120278
H   H63       1.0  0.63480  0.70240  0.36470  1.0000 0.1113120278
H   H64       1.0  0.36520  0.29760  0.86470  1.0000 0.1113120278
H   H65       1.0  0.45490  0.38060  0.53910  1.0000 0.1113120278
H   H66       1.0  0.54510  0.61940  0.03910  1.0000 0.1113120278
H   H67       1.0  0.11940  0.95490  0.28910  1.0000 0.1113120278
H   H68       1.0  0.88060  0.04510  0.78910  1.0000 0.1113120278
H   H69       1.0  0.04510  0.88060  0.21090  1.0000 0.1113120278
H   H70       1.0  0.95490  0.11940  0.71090  1.0000 0.1113120278
H   H71       1.0  0.38060  0.45490  0.46090  1.0000 0.1113120278
H   H72       1.0  0.61940  0.54510  0.96090  1.0000 0.1113120278
H   H73       1.0  0.43660  0.27150  0.46960  1.0000 0.1113120278
H   H74       1.0  0.56340  0.72850  0.96960  1.0000 0.1113120278
H   H75       1.0  0.22850  0.93660  0.21960  1.0000 0.1113120278
H   H76       1.0  0.77150  0.06340  0.71960  1.0000 0.1113120278
H   H77       1.0  0.06340  0.77150  0.28040  1.0000 0.1113120278
H   H78       1.0  0.93660  0.22850  0.78040  1.0000 0.1113120278
H   H79       1.0  0.27150  0.43660  0.53040  1.0000 0.1113120278
H   H80       1.0  0.72850  0.56340  0.03040  1.0000 0.1113120278
H   H81       1.0  0.53560  0.16640  0.46140  1.0000 0.1113120278
H   H82       1.0  0.46440  0.83360  0.96140  1.0000 0.1113120278
H   H83       1.0  0.33360  0.03560  0.21140  1.0000 0.1113120278
H   H84       1.0  0.66640  0.96440  0.71140  1.0000 0.1113120278
H   H85       1.0  0.96440  0.66640  0.28860  1.0000 0.1113120278
H   H86       1.0  0.03560  0.33360  0.78860  1.0000 0.1113120278
H   H87       1.0  0.16640  0.53560  0.53860  1.0000 0.1113120278
H   H88       1.0  0.83360  0.46440  0.03860  1.0000 0.1113120278
H   H89       1.0  0.67490  0.27530  0.59620  1.0000 0.1011359957
H   H90       1.0  0.32510  0.72470  0.09620  1.0000 0.1011359957
H   H91       1.0  0.22470  0.17490  0.34620  1.0000 0.1011359957
H   H92       1.0  0.77530  0.82510  0.84620  1.0000 0.1011359957
H   H93       1.0  0.82510  0.77530  0.15380  1.0000 0.1011359957
H   H94       1.0  0.17490  0.22470  0.65380  1.0000 0.1011359957
H   H95       1.0  0.27530  0.67490  0.40380  1.0000 0.1011359957
H   H96       1.0  0.72470  0.32510  0.90380  1.0000 0.1011359957
H   H97       1.0  0.65590  0.10820  0.43490  1.0000 0.1279908225
H   H98       1.0  0.34410  0.89180  0.93490  1.0000 0.1279908225
H   H99       1.0  0.39180  0.15590  0.18490  1.0000 0.1279908225
H   H100      1.0  0.60820  0.84410  0.68490  1.0000 0.1279908225
H   H101      1.0  0.84410  0.60820  0.31510  1.0000 0.1279908225
H   H102      1.0  0.15590  0.39180  0.81510  1.0000 0.1279908225
H   H103      1.0  0.10820  0.65590  0.56510  1.0000 0.1279908225
H   H104      1.0  0.89180  0.34410  0.06510  1.0000 0.1279908225
H   H105      1.0  0.76540  0.01060  0.42590  1.0000 0.0922761329
H   H106      1.0  0.23460  0.98940  0.92590  1.0000 0.0922761329
H   H107      1.0  0.48940  0.26540  0.17590  1.0000 0.0922761329
H   H108      1.0  0.51060  0.73460  0.67590  1.0000 0.0922761329
H   H109      1.0  0.73460  0.51060  0.32410  1.0000 0.0922761329
H   H110      1.0  0.26540  0.48940  0.82410  1.0000 0.0922761329
H   H111      1.0  0.01060  0.76540  0.57410  1.0000 0.0922761329
H   H112      1.0  0.98940  0.23460  0.07410  1.0000 0.0922761329
H   H113      1.0  0.83900  0.05690  0.59400  1.0000 0.1011359957
H   H114      1.0  0.16100  0.94310  0.09400  1.0000 0.1011359957
H   H115      1.0  0.44310  0.33900  0.34400  1.0000 0.1011359957
H   H116      1.0  0.55690  0.66100  0.84400  1.0000 0.1011359957
H   H117      1.0  0.66100  0.55690  0.15600  1.0000 0.1011359957
H   H118      1.0  0.33900  0.44310  0.65600  1.0000 0.1011359957
H   H119      1.0  0.05690  0.83900  0.40600  1.0000 0.1011359957
H   H120      1.0  0.94310  0.16100  0.90600  1.0000 0.1011359957
H   H121      1.0  0.73330  0.15150  0.60880  1.0000 0.1279908225
H   H122      1.0  0.26670  0.84850  0.10880  1.0000 0.1279908225
H   H123      1.0  0.34850  0.23330  0.35880  1.0000 0.1279908225
H   H124      1.0  0.65150  0.76670  0.85880  1.0000 0.1279908225
H   H125      1.0  0.76670  0.65150  0.14120  1.0000 0.1279908225
H   H126      1.0  0.23330  0.34850  0.64120  1.0000 0.1279908225
H   H127      1.0  0.15150  0.73330  0.39120  1.0000 0.1279908225
H   H128      1.0  0.84850  0.26670  0.89120  1.0000 0.1279908225
H   H129      1.0  0.75840  0.47280  0.60880  1.0000 0.2603286721
H   H130      1.0  0.24160  0.52720  0.10880  1.0000 0.2603286721
H   H131      1.0  0.02720  0.25840  0.35880  1.0000 0.2603286721
H   H132      1.0  0.97280  0.74160  0.85880  1.0000 0.2603286721
H   H133      1.0  0.74160  0.97280  0.14120  1.0000 0.2603286721
H   H134      1.0  0.25840  0.02720  0.64120  1.0000 0.2603286721
H   H135      1.0  0.47280  0.75840  0.39120  1.0000 0.2603286721
H   H136      1.0  0.52720  0.24160  0.89120  1.0000 0.2603286721
H   H137      1.0  0.75930  0.39590  0.64770  1.0000 0.2514702261
H   H138      1.0  0.24070  0.60410  0.14770  1.0000 0.2514702261
H   H139      1.0  0.10410  0.25930  0.39770  1.0000 0.2514702261
H   H140      1.0  0.89590  0.74070  0.89770  1.0000 0.2514702261
H   H141      1.0  0.74070  0.89590  0.10230  1.0000 0.2514702261
H   H142      1.0  0.25930  0.10410  0.60230  1.0000 0.2514702261
H   H143      1.0  0.39590  0.75930  0.35230  1.0000 0.2514702261
H   H144      1.0  0.60410  0.24070  0.85230  1.0000 0.2514702261
C   C1        1.0  0.91350  0.85930  0.63890  1.0000 0.0582997362
C   C2        1.0  0.08650  0.14070  0.13890  1.0000 0.0582997362
C   C3        1.0  0.64070  0.41350  0.38890  1.0000 0.0582997362
C   C4        1.0  0.35930  0.58650  0.88890  1.0000 0.0582997362
C   C5        1.0  0.58650  0.35930  0.11110  1.0000 0.0582997362
C   C6        1.0  0.41350  0.64070  0.61110  1.0000 0.0582997362
C   C7        1.0  0.85930  0.91350  0.36110  1.0000 0.0582997362
C   C8        1.0  0.14070  0.08650  0.86110  1.0000 0.0582997362
C   C9        1.0  0.88560  0.79750  0.67900  1.0000 -0.2110845994
C   C10       1.0  0.11440  0.20250  0.17900  1.0000 -0.2110845994
C   C11       1.0  0.70250  0.38560  0.42900  1.0000 -0.2110845994
C   C12       1.0  0.29750  0.61440  0.92900  1.0000 -0.2110845994
C   C13       1.0  0.61440  0.29750  0.07100  1.0000 -0.2110845994
C   C14       1.0  0.38560  0.70250  0.57100  1.0000 -0.2110845994
C   C15       1.0  0.79750  0.88560  0.32100  1.0000 -0.2110845994
C   C16       1.0  0.20250  0.11440  0.82100  1.0000 -0.2110845994
C   C17       1.0  0.81140  0.75300  0.66460  1.0000 0.1156659492
C   C18       1.0  0.18860  0.24700  0.16460  1.0000 0.1156659492
C   C19       1.0  0.74700  0.31140  0.41460  1.0000 0.1156659492
C   C20       1.0  0.25300  0.68860  0.91460  1.0000 0.1156659492
C   C21       1.0  0.68860  0.25300  0.08540  1.0000 0.1156659492
C   C22       1.0  0.31140  0.74700  0.58540  1.0000 0.1156659492
C   C23       1.0  0.75300  0.81140  0.33540  1.0000 0.1156659492
C   C24       1.0  0.24700  0.18860  0.83540  1.0000 0.1156659492
C   C25       1.0  0.76880  0.78040  0.61320  1.0000 -0.2110845994
C   C26       1.0  0.23120  0.21960  0.11320  1.0000 -0.2110845994
C   C27       1.0  0.71960  0.26880  0.36320  1.0000 -0.2110845994
C   C28       1.0  0.28040  0.73120  0.86320  1.0000 -0.2110845994
C   C29       1.0  0.73120  0.28040  0.13680  1.0000 -0.2110845994
C   C30       1.0  0.26880  0.71960  0.63680  1.0000 -0.2110845994
C   C31       1.0  0.78040  0.76880  0.38680  1.0000 -0.2110845994
C   C32       1.0  0.21960  0.23120  0.88680  1.0000 -0.2110845994
C   C33       1.0  0.80280  0.84230  0.57610  1.0000 0.0393204142
C   C34       1.0  0.19720  0.15770  0.07610  1.0000 0.0393204142
C   C35       1.0  0.65770  0.30280  0.32610  1.0000 0.0393204142
C   C36       1.0  0.34230  0.69720  0.82610  1.0000 0.0393204142
C   C37       1.0  0.69720  0.34230  0.17390  1.0000 0.0393204142
C   C38       1.0  0.30280  0.65770  0.67390  1.0000 0.0393204142
C   C39       1.0  0.84230  0.80280  0.42390  1.0000 0.0393204142
C   C40       1.0  0.15770  0.19720  0.92390  1.0000 0.0393204142
C   C41       1.0  0.78180  0.68020  0.70200  1.0000 0.0715075277
C   C42       1.0  0.21820  0.31980  0.20200  1.0000 0.0715075277
C   C43       1.0  0.81980  0.28180  0.45200  1.0000 0.0715075277
C   C44       1.0  0.18020  0.71820  0.95200  1.0000 0.0715075277
C   C45       1.0  0.71820  0.18020  0.04800  1.0000 0.0715075277
C   C46       1.0  0.28180  0.81980  0.54800  1.0000 0.0715075277
C   C47       1.0  0.68020  0.78180  0.29800  1.0000 0.0715075277
C   C48       1.0  0.31980  0.21820  0.79800  1.0000 0.0715075277
C   C49       1.0  0.80770  0.66720  0.76150  1.0000 -0.1700608621
C   C50       1.0  0.19230  0.33280  0.26150  1.0000 -0.1700608621
C   C51       1.0  0.83280  0.30770  0.51150  1.0000 -0.1700608621
C   C52       1.0  0.16720  0.69230  0.01150  1.0000 -0.1700608621
C   C53       1.0  0.69230  0.16720  0.98850  1.0000 -0.1700608621
C   C54       1.0  0.30770  0.83280  0.48850  1.0000 -0.1700608621
C   C55       1.0  0.66720  0.80770  0.23850  1.0000 -0.1700608621
C   C56       1.0  0.33280  0.19230  0.73850  1.0000 -0.1700608621
C   C57       1.0  0.77750  0.59910  0.79490  1.0000 -0.1078173814
C   C58       1.0  0.22250  0.40090  0.29490  1.0000 -0.1078173814
C   C59       1.0  0.90090  0.27750  0.54490  1.0000 -0.1078173814
C   C60       1.0  0.09910  0.72250  0.04490  1.0000 -0.1078173814
C   C61       1.0  0.72250  0.09910  0.95510  1.0000 -0.1078173814
C   C62       1.0  0.27750  0.90090  0.45510  1.0000 -0.1078173814
C   C63       1.0  0.59910  0.77750  0.20510  1.0000 -0.1078173814
C   C64       1.0  0.40090  0.22250  0.70510  1.0000 -0.1078173814
C   C65       1.0  0.71690  0.54330  0.76890  1.0000 -0.1700608621
C   C66       1.0  0.28310  0.45670  0.26890  1.0000 -0.1700608621
C   C67       1.0  0.95670  0.21690  0.51890  1.0000 -0.1700608621
C   C68       1.0  0.04330  0.78310  0.01890  1.0000 -0.1700608621
C   C69       1.0  0.78310  0.04330  0.98110  1.0000 -0.1700608621
C   C70       1.0  0.21690  0.95670  0.48110  1.0000 -0.1700608621
C   C71       1.0  0.54330  0.71690  0.23110  1.0000 -0.1700608621
C   C72       1.0  0.45670  0.28310  0.73110  1.0000 -0.1700608621
C   C73       1.0  0.69010  0.55970  0.70980  1.0000 0.0280824259
C   C74       1.0  0.30990  0.44030  0.20980  1.0000 0.0280824259
C   C75       1.0  0.94030  0.19010  0.45980  1.0000 0.0280824259
C   C76       1.0  0.05970  0.80990  0.95980  1.0000 0.0280824259
C   C77       1.0  0.80990  0.05970  0.04020  1.0000 0.0280824259
C   C78       1.0  0.19010  0.94030  0.54020  1.0000 0.0280824259
C   C79       1.0  0.55970  0.69010  0.29020  1.0000 0.0280824259
C   C80       1.0  0.44030  0.30990  0.79020  1.0000 0.0280824259
C   C81       1.0  0.72150  0.62580  0.67610  1.0000 -0.2110845994
C   C82       1.0  0.27850  0.37420  0.17610  1.0000 -0.2110845994
C   C83       1.0  0.87420  0.22150  0.42610  1.0000 -0.2110845994
C   C84       1.0  0.12580  0.77850  0.92610  1.0000 -0.2110845994
C   C85       1.0  0.77850  0.12580  0.07390  1.0000 -0.2110845994
C   C86       1.0  0.22150  0.87420  0.57390  1.0000 -0.2110845994
C   C87       1.0  0.62580  0.72150  0.32390  1.0000 -0.2110845994
C   C88       1.0  0.37420  0.27850  0.82390  1.0000 -0.2110845994
C   C89       1.0  0.62820  0.50330  0.68050  1.0000 0.1635060048
C   C90       1.0  0.37180  0.49670  0.18050  1.0000 0.1635060048
C   C91       1.0  0.99670  0.12820  0.43050  1.0000 0.165058776
C   C92       1.0  0.00330  0.87180  0.93050  1.0000 0.1635060048
C   C93       1.0  0.87180  0.00330  0.06950  1.0000 0.1635060048
C   C94       1.0  0.12820  0.99670  0.56950  1.0000 0.1635060048
C   C95       1.0  0.50330  0.62820  0.31950  1.0000 0.1635060048
C   C96       1.0  0.49670  0.37180  0.81950  1.0000 0.1635060048
C   C97       1.0  0.57620  0.40840  0.61800  1.0000 0.1758073189
C   C98       1.0  0.42380  0.59160  0.11800  1.0000 0.1758073189
C   C99       1.0  0.09160  0.07620  0.36800  1.0000 0.1758073189
C   C100      1.0  0.90840  0.92380  0.86800  1.0000 0.1758073189
C   C101      1.0  0.92380  0.90840  0.13200  1.0000 0.1758073189
C   C102      1.0  0.07620  0.09160  0.63200  1.0000 0.1758073189
C   C103      1.0  0.40840  0.57620  0.38200  1.0000 0.1758073189
C   C104      1.0  0.59160  0.42380  0.88200  1.0000 0.1758073189
C   C105      1.0  0.56760  0.33850  0.57380  1.0000 0.0393204142
C   C106      1.0  0.43240  0.66150  0.07380  1.0000 0.0393204142
C   C107      1.0  0.16150  0.06760  0.32380  1.0000 0.0393204142
C   C108      1.0  0.83850  0.93240  0.82380  1.0000 0.0393204142
C   C109      1.0  0.93240  0.83850  0.17620  1.0000 0.0393204142
C   C110      1.0  0.06760  0.16150  0.67620  1.0000 0.0393204142
C   C111      1.0  0.33850  0.56760  0.42620  1.0000 0.0393204142
C   C112      1.0  0.66150  0.43240  0.92620  1.0000 0.0393204142
C   C113      1.0  0.49580  0.33710  0.53610  1.0000 -0.1700608621
C   C114      1.0  0.50420  0.66290  0.03610  1.0000 -0.1700608621
C   C115      1.0  0.16290  0.99580  0.28610  1.0000 -0.1700608621
C   C116      1.0  0.83710  0.00420  0.78610  1.0000 -0.1700608621
C   C117      1.0  0.00420  0.83710  0.21390  1.0000 -0.1700608621
C   C118      1.0  0.99580  0.16290  0.71390  1.0000 -0.1700608621
C   C119      1.0  0.33710  0.49580  0.46390  1.0000 -0.1700608621
C   C120      1.0  0.66290  0.50420  0.96390  1.0000 -0.1700608621
C   C121      1.0  0.48510  0.27270  0.49510  1.0000 -0.1035294288
C   C122      1.0  0.51490  0.72730  0.99510  1.0000 -0.1035294288
C   C123      1.0  0.22730  0.98510  0.24510  1.0000 -0.1035294288
C   C124      1.0  0.77270  0.01490  0.74510  1.0000 -0.1035294288
C   C125      1.0  0.01490  0.77270  0.25490  1.0000 -0.1035294288
C   C126      1.0  0.98510  0.22730  0.75490  1.0000 -0.1035294288
C   C127      1.0  0.27270  0.48510  0.50490  1.0000 -0.1035294288
C   C128      1.0  0.72730  0.51490  0.00490  1.0000 -0.1035294288
C   C129      1.0  0.54390  0.21010  0.49060  1.0000 -0.1700608621
C   C130      1.0  0.45610  0.78990  0.99060  1.0000 -0.1700608621
C   C131      1.0  0.28990  0.04390  0.24060  1.0000 -0.1700608621
C   C132      1.0  0.71010  0.95610  0.74060  1.0000 -0.1700608621
C   C133      1.0  0.95610  0.71010  0.25940  1.0000 -0.1700608621
C   C134      1.0  0.04390  0.28990  0.75940  1.0000 -0.1700608621
C   C135      1.0  0.21010  0.54390  0.50940  1.0000 -0.1700608621
C   C136      1.0  0.78990  0.45610  0.00940  1.0000 -0.1700608621
C   C137      1.0  0.61650  0.20810  0.52790  1.0000 0.0715075277
C   C138      1.0  0.38350  0.79190  0.02790  1.0000 0.0715075277
C   C139      1.0  0.29190  0.11650  0.27790  1.0000 0.0715075277
C   C140      1.0  0.70810  0.88350  0.77790  1.0000 0.0715075277
C   C141      1.0  0.88350  0.70810  0.22210  1.0000 0.0715075277
C   C142      1.0  0.11650  0.29190  0.72210  1.0000 0.0715075277
C   C143      1.0  0.20810  0.61650  0.47210  1.0000 0.0715075277
C   C144      1.0  0.79190  0.38350  0.97210  1.0000 0.0715075277
C   C145      1.0  0.62700  0.27440  0.57010  1.0000 -0.2110845994
C   C146      1.0  0.37300  0.72560  0.07010  1.0000 -0.2110845994
C   C147      1.0  0.22560  0.12700  0.32010  1.0000 -0.2110845994
C   C148      1.0  0.77440  0.87300  0.82010  1.0000 -0.2110845994
C   C149      1.0  0.87300  0.77440  0.17990  1.0000 -0.2110845994
C   C150      1.0  0.12700  0.22560  0.67990  1.0000 -0.2110845994
C   C151      1.0  0.27440  0.62700  0.42990  1.0000 -0.2110845994
C   C152      1.0  0.72560  0.37300  0.92990  1.0000 -0.2110845994
C   C153      1.0  0.68200  0.14200  0.52240  1.0000 0.1113120278
C   C154      1.0  0.31800  0.85800  0.02240  1.0000 0.1113120278
C   C155      1.0  0.35800  0.18200  0.27240  1.0000 0.1113120278
C   C156      1.0  0.64200  0.81800  0.77240  1.0000 0.1113120278
C   C157      1.0  0.81800  0.64200  0.22760  1.0000 0.1113120278
C   C158      1.0  0.18200  0.35800  0.72760  1.0000 0.1113120278
C   C159      1.0  0.14200  0.68200  0.47760  1.0000 0.1113120278
C   C160      1.0  0.85800  0.31800  0.97760  1.0000 0.1113120278
C   C161      1.0  0.69290  0.09880  0.46850  1.0000 -0.2011701826
C   C162      1.0  0.30710  0.90120  0.96850  1.0000 -0.2011701826
C   C163      1.0  0.40120  0.19290  0.21850  1.0000 -0.2011701826
C   C164      1.0  0.59880  0.80710  0.71850  1.0000 -0.2011701826
C   C165      1.0  0.80710  0.59880  0.28150  1.0000 -0.2011701826
C   C166      1.0  0.19290  0.40120  0.78150  1.0000 -0.2011701826
C   C167      1.0  0.09880  0.69290  0.53150  1.0000 -0.2011701826
C   C168      1.0  0.90120  0.30710  0.03150  1.0000 -0.2011701826
C   C169      1.0  0.75920  0.04050  0.46340  1.0000 0.0582997362
C   C170      1.0  0.24080  0.95950  0.96340  1.0000 0.0582997362
C   C171      1.0  0.45950  0.25920  0.21340  1.0000 0.0582997362
C   C172      1.0  0.54050  0.74080  0.71340  1.0000 0.0582997362
C   C173      1.0  0.74080  0.54050  0.28660  1.0000 0.0582997362
C   C174      1.0  0.25920  0.45950  0.78660  1.0000 0.0582997362
C   C175      1.0  0.04050  0.75920  0.53660  1.0000 0.0582997362
C   C176      1.0  0.95950  0.24080  0.03660  1.0000 0.0582997362
C   C177      1.0  0.80140  0.06730  0.56090  1.0000 0.0582997362
C   C178      1.0  0.19860  0.93270  0.06090  1.0000 0.0582997362
C   C179      1.0  0.43270  0.30140  0.31090  1.0000 0.0582997362
C   C180      1.0  0.56730  0.69860  0.81090  1.0000 0.0582997362
C   C181      1.0  0.69860  0.56730  0.18910  1.0000 0.0582997362
C   C182      1.0  0.30140  0.43270  0.68910  1.0000 0.0582997362
C   C183      1.0  0.06730  0.80140  0.43910  1.0000 0.0582997362
C   C184      1.0  0.93270  0.19860  0.93910  1.0000 0.0582997362
C   C185      1.0  0.73880  0.12400  0.57030  1.0000 -0.2011701826
C   C186      1.0  0.26120  0.87600  0.07030  1.0000 -0.2011701826
C   C187      1.0  0.37600  0.23880  0.32030  1.0000 -0.2011701826
C   C188      1.0  0.62400  0.76120  0.82030  1.0000 -0.2011701826
C   C189      1.0  0.76120  0.62400  0.17970  1.0000 -0.2011701826
C   C190      1.0  0.23880  0.37600  0.67970  1.0000 -0.2011701826
C   C191      1.0  0.12400  0.73880  0.42970  1.0000 -0.2011701826
C   C192      1.0  0.87600  0.26120  0.92970  1.0000 -0.2011701826
N   N1        1.0  0.87540  0.87960  0.58740  1.0000 -0.2225660577
N   N2        1.0  0.12460  0.12040  0.08740  1.0000 -0.2225660577
N   N3        1.0  0.62040  0.37540  0.33740  1.0000 -0.2225660577
N   N4        1.0  0.37960  0.62460  0.83740  1.0000 -0.2225660577
N   N5        1.0  0.62460  0.37960  0.16260  1.0000 -0.2225660577
N   N6        1.0  0.37540  0.62040  0.66260  1.0000 -0.2225660577
N   N7        1.0  0.87960  0.87540  0.41260  1.0000 -0.2225660577
N   N8        1.0  0.12040  0.12460  0.91260  1.0000 -0.2225660577
N   N9        1.0  0.54490  0.50550  0.68430  1.0000 -0.2351374335
N   N10       1.0  0.45510  0.49450  0.18430  1.0000 -0.2351374335
N   N11       1.0  0.99450  0.04490  0.43430  1.0000 -0.2351374335
N   N12       1.0  0.00550  0.95510  0.93430  1.0000 -0.2351374335
N   N13       1.0  0.95510  0.00550  0.06570  1.0000 -0.2351374335
N   N14       1.0  0.04490  0.99450  0.56570  1.0000 -0.2351374335
N   N15       1.0  0.50550  0.54490  0.31570  1.0000 -0.2351374335
N   N16       1.0  0.49450  0.45510  0.81570  1.0000 -0.2351374335
N   N17       1.0  0.51220  0.44530  0.64510  1.0000 -0.2797973834
N   N18       1.0  0.48780  0.55470  0.14510  1.0000 -0.2797973834
N   N19       1.0  0.05470  0.01220  0.39510  1.0000 -0.2797973834
N   N20       1.0  0.94530  0.98780  0.89510  1.0000 -0.2797973834
N   N21       1.0  0.98780  0.94530  0.10490  1.0000 -0.2797973834
N   N22       1.0  0.01220  0.05470  0.60490  1.0000 -0.2797973834
N   N23       1.0  0.44530  0.51220  0.35490  1.0000 -0.2797973834
N   N24       1.0  0.55470  0.48780  0.85490  1.0000 -0.2797973834
N   N25       1.0  0.64940  0.44300  0.63930  1.0000 0.0582997362
N   N26       1.0  0.35060  0.55700  0.13930  1.0000 0.0582997362
N   N27       1.0  0.05700  0.14940  0.38930  1.0000 0.0582997362
N   N28       1.0  0.94300  0.85060  0.88930  1.0000 0.0582997362
N   N29       1.0  0.85060  0.94300  0.11070  1.0000 0.0582997362
N   N30       1.0  0.14940  0.05700  0.61070  1.0000 0.0582997362
N   N31       1.0  0.44300  0.64940  0.36070  1.0000 0.0582997362
N   N32       1.0  0.55700  0.35060  0.86070  1.0000 0.0582997362
N   N33       1.0  0.73080  0.42410  0.61780  1.0000 -0.5177317418
N   N34       1.0  0.26920  0.57590  0.11780  1.0000 -0.5177317418
N   N35       1.0  0.07590  0.23080  0.36780  1.0000 -0.5177317418
N   N36       1.0  0.92410  0.76920  0.86780  1.0000 -0.5177317418
N   N37       1.0  0.76920  0.92410  0.13220  1.0000 -0.5177317418
N   N38       1.0  0.23080  0.07590  0.63220  1.0000 -0.5177317418
N   N39       1.0  0.42410  0.73080  0.38220  1.0000 -0.5177317418
N   N40       1.0  0.57590  0.26920  0.88220  1.0000 -0.5177317418
N   N41       1.0  0.81430  0.02490  0.50870  1.0000 -0.2478382147
N   N42       1.0  0.18570  0.97510  0.00870  1.0000 -0.2478382147
N   N43       1.0  0.47510  0.31430  0.25870  1.0000 -0.2478382147
N   N44       1.0  0.52490  0.68570  0.75870  1.0000 -0.2478382147
N   N45       1.0  0.68570  0.52490  0.24130  1.0000 -0.2478382147
N   N46       1.0  0.31430  0.47510  0.74130  1.0000 -0.2478382147
N   N47       1.0  0.02490  0.81430  0.49130  1.0000 -0.2478382147
N   N48       1.0  0.97510  0.18570  0.99130  1.0000 -0.2478382147
