# DDEC6 charges by PACMAN v1.1 (https://github.com/mtap-research/PACMAN-charge/)
data_2010[Cu][lvt]3[ASR]3
_chemical_formula_sum              "Cu4 H48 C80 N4 O16"
_cell_length_a       22.9382
_cell_length_b       22.9382
_cell_length_c       22.9382
_cell_angle_alpha    135.915
_cell_angle_beta     119.058
_cell_angle_gamma    78.2285

_symmetry_space_group_name_H-M    "P 1"
_symmetry_Int_Tables_number       1

loop_
  _symmetry_equiv_pos_as_xyz
  'x, y, z'

loop_
  _atom_site_type_symbol
  _atom_site_label
  _atom_site_symmetry_multiplicity
  _atom_site_fract_x
  _atom_site_fract_y
  _atom_site_fract_z
  _atom_site_occupancy
  _atom_site_charge
Cu  Cu1       1.0  0.02736  0.57865  0.55129  1.0000 0.8561349585
Cu  Cu2       1.0  0.47264  0.02393  0.55129  1.0000 0.8561349585
Cu  Cu3       1.0  0.97264  0.42135  0.44871  1.0000 0.8561349585
Cu  Cu4       1.0  0.52736  0.97607  0.44871  1.0000 0.8561349585
H   H1        1.0  0.14410  0.30510  0.41600  1.0000 0.1279313886
H   H2        1.0  0.35590  0.77190  0.16100  1.0000 0.1279313886
H   H3        1.0  0.11090  0.69490  0.83900  1.0000 0.1279313886
H   H4        1.0  0.38910  0.22810  0.58400  1.0000 0.1279313886
H   H5        1.0  0.85590  0.69490  0.58400  1.0000 0.1279313886
H   H6        1.0  0.64410  0.22810  0.83900  1.0000 0.1279313886
H   H7        1.0  0.88910  0.30510  0.16100  1.0000 0.1279313886
H   H8        1.0  0.61090  0.77190  0.41600  1.0000 0.1279313886
H   H9        1.0  0.24400  0.26650  0.41610  1.0000 0.1279313886
H   H10       1.0  0.25600  0.67210  0.02250  1.0000 0.1279313886
H   H11       1.0  0.14960  0.73350  0.97750  1.0000 0.1279313886
H   H12       1.0  0.35040  0.32790  0.58390  1.0000 0.1279313886
H   H13       1.0  0.75600  0.73350  0.58390  1.0000 0.1279313886
H   H14       1.0  0.74400  0.32790  0.97750  1.0000 0.1279313886
H   H15       1.0  0.85040  0.26650  0.02250  1.0000 0.1279313886
H   H16       1.0  0.64960  0.67210  0.41610  1.0000 0.1279313886
H   H17       1.0  0.33140  0.50990  0.58730  1.0000 0.1279313886
H   H18       1.0  0.16860  0.75590  0.17850  1.0000 0.1279313886
H   H19       1.0  0.07740  0.49010  0.82150  1.0000 0.1279313886
H   H20       1.0  0.42260  0.24410  0.41270  1.0000 0.1279313886
H   H21       1.0  0.66860  0.49010  0.41270  1.0000 0.1279313886
H   H22       1.0  0.83140  0.24410  0.82150  1.0000 0.1279313886
H   H23       1.0  0.92260  0.50990  0.17850  1.0000 0.1279313886
H   H24       1.0  0.57740  0.75590  0.58730  1.0000 0.1279313886
H   H25       1.0  0.22910  0.54760  0.58070  1.0000 0.1246363743
H   H26       1.0  0.27090  0.85160  0.31850  1.0000 0.1246363743
H   H27       1.0  0.03310  0.45240  0.68150  1.0000 0.1246363743
H   H28       1.0  0.46690  0.14840  0.41930  1.0000 0.1246363743
H   H29       1.0  0.77090  0.45240  0.41930  1.0000 0.1246363743
H   H30       1.0  0.72910  0.14840  0.68150  1.0000 0.1246363743
H   H31       1.0  0.96690  0.54760  0.31850  1.0000 0.1246363743
H   H32       1.0  0.53310  0.85160  0.58070  1.0000 0.1246363743
H   H33       1.0  0.32550  0.37770  0.38900  1.0000 0.138753912
H   H34       1.0  0.17450  0.56350  0.05220  1.0000 0.138753912
H   H35       1.0  0.01130  0.62230  0.94780  1.0000 0.138753912
H   H36       1.0  0.48870  0.43650  0.61100  1.0000 0.138753912
H   H37       1.0  0.67450  0.62230  0.61100  1.0000 0.138753912
H   H38       1.0  0.82550  0.43650  0.94780  1.0000 0.138753912
H   H39       1.0  0.98870  0.37770  0.05220  1.0000 0.138753912
H   H40       1.0  0.51130  0.56350  0.38900  1.0000 0.138753912
H   H41       1.0  0.38870  0.44420  0.39030  1.0000 0.1116862613
H   H42       1.0  0.11130  0.50160  0.05550  1.0000 0.1116862613
H   H43       1.0  0.94610  0.55580  0.94450  1.0000 0.1116862613
H   H44       1.0  0.55390  0.49840  0.60970  1.0000 0.1116862613
H   H45       1.0  0.61130  0.55580  0.60970  1.0000 0.1116862613
H   H46       1.0  0.88870  0.49840  0.94450  1.0000 0.1116862613
H   H47       1.0  0.05390  0.44420  0.05550  1.0000 0.1116862613
H   H48       1.0  0.44610  0.50160  0.39030  1.0000 0.1116862613
C   C1        1.0  0.18157  0.34642  0.44999  1.0000 -0.0739179074
C   C2        1.0  0.31843  0.76842  0.16485  1.0000 -0.0753583437
C   C3        1.0  0.10357  0.65358  0.83515  1.0000 -0.0739179074
C   C4        1.0  0.39643  0.23158  0.55001  1.0000 -0.0753583437
C   C5        1.0  0.81843  0.65358  0.55001  1.0000 -0.0739179074
C   C6        1.0  0.68157  0.23158  0.83515  1.0000 -0.0739179074
C   C7        1.0  0.89643  0.34642  0.16485  1.0000 -0.0753583437
C   C8        1.0  0.60357  0.76842  0.44999  1.0000 -0.0739179074
C   C9        1.0  0.24125  0.32336  0.45031  1.0000 -0.1891938458
C   C10       1.0  0.25875  0.70906  0.08211  1.0000 -0.1891938458
C   C11       1.0  0.12695  0.67664  0.91789  1.0000 -0.1891938458
C   C12       1.0  0.37305  0.29094  0.54969  1.0000 -0.1891938458
C   C13       1.0  0.75875  0.67664  0.54969  1.0000 -0.1891938458
C   C14       1.0  0.74125  0.29094  0.91789  1.0000 -0.1891938458
C   C15       1.0  0.87305  0.32336  0.08211  1.0000 -0.1891938458
C   C16       1.0  0.62695  0.70906  0.45031  1.0000 -0.1891938458
C   C17       1.0  0.29825  0.38423  0.50142  1.0000 0.177593978
C   C18       1.0  0.20175  0.70317  0.08598  1.0000 0.177593978
C   C19       1.0  0.11719  0.61577  0.91402  1.0000 0.177593978
C   C20       1.0  0.38281  0.29683  0.49858  1.0000 0.177593978
C   C21       1.0  0.70175  0.61577  0.49858  1.0000 0.177593978
C   C22       1.0  0.79825  0.29683  0.91402  1.0000 0.177593978
C   C23       1.0  0.88281  0.38423  0.08598  1.0000 0.177593978
C   C24       1.0  0.61719  0.70317  0.50142  1.0000 0.177593978
C   C25       1.0  0.29333  0.46849  0.55164  1.0000 -0.1891938458
C   C26       1.0  0.20667  0.75831  0.17516  1.0000 -0.1891938458
C   C27       1.0  0.08315  0.53151  0.82484  1.0000 -0.1891938458
C   C28       1.0  0.41685  0.24169  0.44836  1.0000 -0.1891938458
C   C29       1.0  0.70667  0.53151  0.44836  1.0000 -0.1891938458
C   C30       1.0  0.79333  0.24169  0.82484  1.0000 -0.1891938458
C   C31       1.0  0.91685  0.46849  0.17516  1.0000 -0.1891938458
C   C32       1.0  0.58315  0.75831  0.55164  1.0000 -0.1891938458
C   C33       1.0  0.23236  0.49134  0.54914  1.0000 -0.0753583437
C   C34       1.0  0.26764  0.81678  0.25898  1.0000 -0.0739179074
C   C35       1.0  0.05780  0.50866  0.74102  1.0000 -0.0739179074
C   C36       1.0  0.44220  0.18322  0.45086  1.0000 -0.0753583437
C   C37       1.0  0.76764  0.50866  0.45086  1.0000 -0.0753583437
C   C38       1.0  0.73236  0.18322  0.74102  1.0000 -0.0753583437
C   C39       1.0  0.94220  0.49134  0.25898  1.0000 -0.0753583437
C   C40       1.0  0.55780  0.81678  0.54914  1.0000 -0.0753583437
C   C41       1.0  0.17585  0.43133  0.50012  1.0000 -0.0562105356
C   C42       1.0  0.32415  0.82427  0.25548  1.0000 -0.0562105356
C   C43       1.0  0.06879  0.56867  0.74452  1.0000 -0.0562105356
C   C44       1.0  0.43121  0.17573  0.49988  1.0000 -0.0562105356
C   C45       1.0  0.82415  0.56867  0.49988  1.0000 -0.0562105356
C   C46       1.0  0.67585  0.17573  0.74452  1.0000 -0.0562105356
C   C47       1.0  0.93121  0.43133  0.25548  1.0000 -0.0562105356
C   C48       1.0  0.56879  0.82427  0.50012  1.0000 -0.0562105356
C   C49       1.0  0.11096  0.45705  0.49979  1.0000 0.5721622332
C   C50       1.0  0.38904  0.88883  0.34609  1.0000 0.5721622332
C   C51       1.0  0.04274  0.54295  0.65391  1.0000 0.5721622332
C   C52       1.0  0.45726  0.11117  0.50021  1.0000 0.5721622332
C   C53       1.0  0.88904  0.54295  0.50021  1.0000 0.5721622332
C   C54       1.0  0.61096  0.11117  0.65391  1.0000 0.5721622332
C   C55       1.0  0.95726  0.45705  0.34609  1.0000 0.5721622332
C   C56       1.0  0.54274  0.88883  0.49979  1.0000 0.5721622332
C   C57       1.0  0.40013  0.40013  0.50000  1.0000 0.138753912
C   C58       1.0  0.09987  0.59987  0.00000  1.0000 0.138753912
C   C59       1.0  0.59987  0.59987  0.50000  1.0000 0.138753912
C   C60       1.0  0.90013  0.40013  0.00000  1.0000 0.138753912
C   C61       1.0  0.37190  0.40294  0.43496  1.0000 -0.1836258918
C   C62       1.0  0.12810  0.56306  0.03104  1.0000 -0.1836258918
C   C63       1.0  0.03202  0.59706  0.96896  1.0000 -0.1836258918
C   C64       1.0  0.46798  0.43694  0.56504  1.0000 -0.1836258918
C   C65       1.0  0.62810  0.59706  0.56504  1.0000 -0.1836258918
C   C66       1.0  0.87190  0.43694  0.96896  1.0000 -0.1836258918
C   C67       1.0  0.96798  0.40294  0.03104  1.0000 -0.1836258918
C   C68       1.0  0.53202  0.56306  0.43496  1.0000 -0.1836258918
C   C69       1.0  0.41024  0.44241  0.43523  1.0000 -0.1432952211
C   C70       1.0  0.08976  0.52499  0.03217  1.0000 -0.1432952211
C   C71       1.0  0.99282  0.55759  0.96783  1.0000 -0.1432952211
C   C72       1.0  0.50718  0.47501  0.56477  1.0000 -0.1432952211
C   C73       1.0  0.58976  0.55759  0.56477  1.0000 -0.1451892779
C   C74       1.0  0.91024  0.47501  0.96783  1.0000 -0.1432952211
C   C75       1.0  0.00718  0.44241  0.03217  1.0000 -0.1432952211
C   C76       1.0  0.49282  0.52499  0.43523  1.0000 -0.1432952211
C   C77       1.0  0.47913  0.47913  0.50000  1.0000 0.0439374493
C   C78       1.0  0.02087  0.52087  0.00000  1.0000 0.0439374493
C   C79       1.0  0.52087  0.52087  0.50000  1.0000 0.0439374493
C   C80       1.0  0.97913  0.47913  0.00000  1.0000 0.0439374493
N   N1        1.0  0.35998  0.35998  0.50000  1.0000 -0.1742305384
N   N2        1.0  0.14002  0.64002  0.00000  1.0000 -0.1742305384
N   N3        1.0  0.64002  0.64002  0.50000  1.0000 -0.1742305384
N   N4        1.0  0.85998  0.35998  0.00000  1.0000 -0.1742305384
O   O1        1.0  0.10880  0.53273  0.54305  1.0000 -0.503032934
O   O2        1.0  0.39120  0.93425  0.42393  1.0000 -0.503032934
O   O3        1.0  0.01032  0.46727  0.57607  1.0000 -0.503032934
O   O4        1.0  0.48968  0.06575  0.45695  1.0000 -0.503032934
O   O5        1.0  0.89120  0.46727  0.45695  1.0000 -0.503032934
O   O6        1.0  0.60880  0.06575  0.57607  1.0000 -0.503032934
O   O7        1.0  0.98968  0.53273  0.42393  1.0000 -0.503032934
O   O8        1.0  0.51032  0.93425  0.54305  1.0000 -0.503032934
O   O9        1.0  0.06203  0.39905  0.45558  1.0000 -0.5266794787
O   O10       1.0  0.43797  0.89355  0.33702  1.0000 -0.5266794787
O   O11       1.0  0.05653  0.60095  0.66298  1.0000 -0.5266794787
O   O12       1.0  0.44347  0.10645  0.54442  1.0000 -0.5266794787
O   O13       1.0  0.93797  0.60095  0.54442  1.0000 -0.5266794787
O   O14       1.0  0.56203  0.10645  0.66298  1.0000 -0.5266794787
O   O15       1.0  0.94347  0.39905  0.33702  1.0000 -0.5266794787
O   O16       1.0  0.55653  0.89355  0.45558  1.0000 -0.5266794787
