# DDEC6 charges by PACMAN v1.1 (https://github.com/mtap-research/PACMAN-charge/)
data_2010[Zn][dia]3[ASR]3
_chemical_formula_sum              "Zn4 H48 C80 N8 O16 F16"
_cell_length_a       11.7527
_cell_length_b       12.4829
_cell_length_c       20.2665
_cell_angle_alpha    90
_cell_angle_beta     124.966
_cell_angle_gamma    90

_symmetry_space_group_name_H-M    "P 1"
_symmetry_Int_Tables_number       1

loop_
  _symmetry_equiv_pos_as_xyz
  'x, y, z'

loop_
  _atom_site_type_symbol
  _atom_site_label
  _atom_site_symmetry_multiplicity
  _atom_site_fract_x
  _atom_site_fract_y
  _atom_site_fract_z
  _atom_site_occupancy
  _atom_site_charge
Zn  Zn1       1.0  0.10082  0.74803  0.24947  1.0000 0.7506958837
Zn  Zn2       1.0  0.89918  0.25197  0.75053  1.0000 0.7506958837
Zn  Zn3       1.0  0.89918  0.24803  0.25053  1.0000 0.7506958837
Zn  Zn4       1.0  0.10082  0.75197  0.74947  1.0000 0.7506958837
H   H1        1.0  0.84160  0.76060  0.07730  1.0000 0.1104417583
H   H2        1.0  0.15840  0.23940  0.92270  1.0000 0.1104417583
H   H3        1.0  0.93750  0.57610  0.25700  1.0000 0.1104417583
H   H4        1.0  0.06250  0.42390  0.74300  1.0000 0.1104417583
H   H5        1.0  0.62210  0.69270  0.00070  1.0000 0.1485680655
H   H6        1.0  0.37790  0.30730  0.99930  1.0000 0.1485680655
H   H7        1.0  0.72450  0.49720  0.18370  1.0000 0.1485680655
H   H8        1.0  0.27550  0.50280  0.81630  1.0000 0.1485680655
H   H9        1.0  0.48930  0.49490  0.06640  1.0000 0.1224917814
H   H10       1.0  0.51070  0.50510  0.93360  1.0000 0.1224917814
H   H11       1.0  0.43590  0.59220  0.00660  1.0000 0.126976117
H   H12       1.0  0.56410  0.40780  0.99340  1.0000 0.126976117
H   H13       1.0  0.85890  0.01520  0.43390  1.0000 0.1224917814
H   H14       1.0  0.14110  0.98480  0.56610  1.0000 0.1224917814
H   H15       1.0  0.91160  0.91390  0.49000  1.0000 0.1224917814
H   H16       1.0  0.08840  0.08610  0.51000  1.0000 0.1224917814
H   H17       1.0  0.84860  0.99990  0.31210  1.0000 0.1485680655
H   H18       1.0  0.15140  0.00010  0.68790  1.0000 0.1485680655
H   H19       1.0  0.11000  0.80800  0.49680  1.0000 0.1485680655
H   H20       1.0  0.89000  0.19200  0.50320  1.0000 0.1485680655
H   H21       1.0  0.91490  0.91690  0.23820  1.0000 0.1104417583
H   H22       1.0  0.08510  0.08310  0.76180  1.0000 0.1104417583
H   H23       1.0  0.17270  0.73310  0.41880  1.0000 0.1104417583
H   H24       1.0  0.82730  0.26690  0.58120  1.0000 0.1104417583
H   H25       1.0  0.15840  0.26060  0.42270  1.0000 0.1104417583
H   H26       1.0  0.84160  0.73940  0.57730  1.0000 0.1104417583
H   H27       1.0  0.06250  0.07610  0.24300  1.0000 0.1104417583
H   H28       1.0  0.93750  0.92390  0.75700  1.0000 0.1104417583
H   H29       1.0  0.37790  0.19270  0.49930  1.0000 0.1485680655
H   H30       1.0  0.62210  0.80730  0.50070  1.0000 0.1485680655
H   H31       1.0  0.27550  0.99720  0.31630  1.0000 0.1485680655
H   H32       1.0  0.72450  0.00280  0.68370  1.0000 0.1485680655
H   H33       1.0  0.51070  0.99490  0.43360  1.0000 0.1224917814
H   H34       1.0  0.48930  0.00510  0.56640  1.0000 0.1224917814
H   H35       1.0  0.56410  0.09220  0.49340  1.0000 0.126976117
H   H36       1.0  0.43590  0.90780  0.50660  1.0000 0.126976117
H   H37       1.0  0.14110  0.51520  0.06610  1.0000 0.1224917814
H   H38       1.0  0.85890  0.48480  0.93390  1.0000 0.1224917814
H   H39       1.0  0.08840  0.41390  0.01000  1.0000 0.1224917814
H   H40       1.0  0.91160  0.58610  0.99000  1.0000 0.1224917814
H   H41       1.0  0.15140  0.49990  0.18790  1.0000 0.1485680655
H   H42       1.0  0.84860  0.50010  0.81210  1.0000 0.1485680655
H   H43       1.0  0.89000  0.30800  0.00320  1.0000 0.1485680655
H   H44       1.0  0.11000  0.69200  0.99680  1.0000 0.1485680655
H   H45       1.0  0.08510  0.41690  0.26180  1.0000 0.1104417583
H   H46       1.0  0.91490  0.58310  0.73820  1.0000 0.1104417583
H   H47       1.0  0.82730  0.23310  0.08120  1.0000 0.1104417583
H   H48       1.0  0.17270  0.76690  0.91880  1.0000 0.1104417583
C   C1        1.0  0.09420  0.83910  0.12750  1.0000 0.5914136464
C   C2        1.0  0.90580  0.16090  0.87250  1.0000 0.5914136464
C   C3        1.0  0.04920  0.92490  0.06390  1.0000 -0.2050209796
C   C4        1.0  0.95080  0.07510  0.93610  1.0000 -0.2050209796
C   C5        1.0  0.10940  0.93510  0.02230  1.0000 0.1426652575
C   C6        1.0  0.89060  0.06490  0.97770  1.0000 0.1426652575
C   C7        1.0  0.06220  0.00780  0.96050  1.0000 0.1426652575
C   C8        1.0  0.93780  0.99220  0.03950  1.0000 0.1426652575
C   C9        1.0  0.55370  0.52420  0.57810  1.0000 0.1485680655
C   C10       1.0  0.44630  0.47580  0.42190  1.0000 0.1485680655
C   C11       1.0  0.47700  0.59880  0.51880  1.0000 0.1426652575
C   C12       1.0  0.52300  0.40120  0.48120  1.0000 0.1485680655
C   C13       1.0  0.42040  0.57690  0.43800  1.0000 -0.2043087041
C   C14       1.0  0.57960  0.42310  0.56200  1.0000 -0.2043087041
C   C15       1.0  0.33570  0.66030  0.37280  1.0000 0.5914136464
C   C16       1.0  0.66430  0.33970  0.62720  1.0000 0.5914136464
C   C17       1.0  0.81680  0.70800  0.09940  1.0000 0.0817524096
C   C18       1.0  0.18320  0.29200  0.90060  1.0000 0.0817524096
C   C19       1.0  0.87350  0.59900  0.20450  1.0000 0.0817524096
C   C20       1.0  0.12650  0.40100  0.79550  1.0000 0.0817524096
C   C21       1.0  0.68510  0.66680  0.05260  1.0000 -0.1893074518
C   C22       1.0  0.31490  0.33320  0.94740  1.0000 -0.1893074518
C   C23       1.0  0.74530  0.55190  0.16110  1.0000 -0.1819738453
C   C24       1.0  0.25470  0.44810  0.83890  1.0000 -0.1819738453
C   C25       1.0  0.64620  0.58660  0.08270  1.0000 0.1748048956
C   C26       1.0  0.35380  0.41340  0.91730  1.0000 0.1748048956
C   C27       1.0  0.50600  0.53650  0.03230  1.0000 -0.2270212328
C   C28       1.0  0.49400  0.46350  0.96770  1.0000 -0.2270212328
C   C29       1.0  0.93760  0.96770  0.46640  1.0000 -0.2270212328
C   C30       1.0  0.06240  0.03230  0.53360  1.0000 -0.2270212328
C   C31       1.0  0.97300  0.91430  0.41400  1.0000 0.1748048956
C   C32       1.0  0.02700  0.08570  0.58600  1.0000 0.1748048956
C   C33       1.0  0.91480  0.94570  0.33520  1.0000 -0.1819738453
C   C34       1.0  0.08520  0.05430  0.66480  1.0000 -0.1819738453
C   C35       1.0  0.07000  0.83260  0.44460  1.0000 -0.1893074518
C   C36       1.0  0.93000  0.16740  0.55540  1.0000 -0.1893074518
C   C37       1.0  0.95630  0.89590  0.29130  1.0000 0.0866398117
C   C38       1.0  0.04370  0.10410  0.70870  1.0000 0.0866398117
C   C39       1.0  0.10700  0.78770  0.39710  1.0000 0.0817524096
C   C40       1.0  0.89300  0.21230  0.60290  1.0000 0.0817524096
C   C41       1.0  0.90580  0.33910  0.37250  1.0000 0.5914136464
C   C42       1.0  0.09420  0.66090  0.62750  1.0000 0.5914136464
C   C43       1.0  0.95080  0.42490  0.43610  1.0000 -0.2050209796
C   C44       1.0  0.04920  0.57510  0.56390  1.0000 -0.2050209796
C   C45       1.0  0.89060  0.43510  0.47770  1.0000 0.1426652575
C   C46       1.0  0.10940  0.56490  0.52230  1.0000 0.1426652575
C   C47       1.0  0.93780  0.50780  0.53950  1.0000 0.1426652575
C   C48       1.0  0.06220  0.49220  0.46050  1.0000 0.1426652575
C   C49       1.0  0.44630  0.02420  0.92190  1.0000 0.1485680655
C   C50       1.0  0.55370  0.97580  0.07810  1.0000 0.1485680655
C   C51       1.0  0.52300  0.09880  0.98120  1.0000 0.1426652575
C   C52       1.0  0.47700  0.90120  0.01880  1.0000 0.1485680655
C   C53       1.0  0.57960  0.07690  0.06200  1.0000 -0.2043087041
C   C54       1.0  0.42040  0.92310  0.93800  1.0000 -0.2050209796
C   C55       1.0  0.66430  0.16030  0.12720  1.0000 0.5914136464
C   C56       1.0  0.33570  0.83970  0.87280  1.0000 0.5914136464
C   C57       1.0  0.18320  0.20800  0.40060  1.0000 0.0817524096
C   C58       1.0  0.81680  0.79200  0.59940  1.0000 0.0817524096
C   C59       1.0  0.12650  0.09900  0.29550  1.0000 0.0817524096
C   C60       1.0  0.87350  0.90100  0.70450  1.0000 0.0817524096
C   C61       1.0  0.31490  0.16680  0.44740  1.0000 -0.1893074518
C   C62       1.0  0.68510  0.83320  0.55260  1.0000 -0.1893074518
C   C63       1.0  0.25470  0.05190  0.33890  1.0000 -0.1819738453
C   C64       1.0  0.74530  0.94810  0.66110  1.0000 -0.1819738453
C   C65       1.0  0.35380  0.08660  0.41730  1.0000 0.1748048956
C   C66       1.0  0.64620  0.91340  0.58270  1.0000 0.1748048956
C   C67       1.0  0.49400  0.03650  0.46770  1.0000 -0.2270212328
C   C68       1.0  0.50600  0.96350  0.53230  1.0000 -0.2270212328
C   C69       1.0  0.06240  0.46770  0.03360  1.0000 -0.2270212328
C   C70       1.0  0.93760  0.53230  0.96640  1.0000 -0.2270212328
C   C71       1.0  0.02700  0.41430  0.08600  1.0000 0.1748048956
C   C72       1.0  0.97300  0.58570  0.91400  1.0000 0.1748048956
C   C73       1.0  0.08520  0.44570  0.16480  1.0000 -0.1819738453
C   C74       1.0  0.91480  0.55430  0.83520  1.0000 -0.1819738453
C   C75       1.0  0.93000  0.33260  0.05540  1.0000 -0.1893074518
C   C76       1.0  0.07000  0.66740  0.94460  1.0000 -0.1893074518
C   C77       1.0  0.04370  0.39590  0.20870  1.0000 0.0866398117
C   C78       1.0  0.95630  0.60410  0.79130  1.0000 0.0866398117
C   C79       1.0  0.89300  0.28770  0.10290  1.0000 0.0817524096
C   C80       1.0  0.10700  0.71230  0.89710  1.0000 0.0817524096
N   N1        1.0  0.91150  0.67650  0.17510  1.0000 -0.2499523708
N   N2        1.0  0.08850  0.32350  0.82490  1.0000 -0.2499523708
N   N3        1.0  0.05270  0.81910  0.32120  1.0000 -0.2499523708
N   N4        1.0  0.94730  0.18090  0.67880  1.0000 -0.2499523708
N   N5        1.0  0.08850  0.17650  0.32490  1.0000 -0.2499523708
N   N6        1.0  0.91150  0.82350  0.67510  1.0000 -0.2499523708
N   N7        1.0  0.94730  0.31910  0.17880  1.0000 -0.2499523708
N   N8        1.0  0.05270  0.68090  0.82120  1.0000 -0.2499523708
O   O1        1.0  0.10330  0.87070  0.19070  1.0000 -0.5579914009
O   O2        1.0  0.89670  0.12930  0.80930  1.0000 -0.5579914009
O   O3        1.0  0.11340  0.74700  0.11460  1.0000 -0.5282892441
O   O4        1.0  0.88660  0.25300  0.88540  1.0000 -0.5282892441
O   O5        1.0  0.21927  0.62720  0.31247  1.0000 -0.5468996917
O   O6        1.0  0.78073  0.37280  0.68753  1.0000 -0.5468996917
O   O7        1.0  0.37872  0.75250  0.38302  1.0000 -0.5237583672
O   O8        1.0  0.62128  0.24750  0.61698  1.0000 -0.5237583672
O   O9        1.0  0.89670  0.37070  0.30930  1.0000 -0.5579914009
O   O10       1.0  0.10330  0.62930  0.69070  1.0000 -0.5579914009
O   O11       1.0  0.88660  0.24700  0.38540  1.0000 -0.5282892441
O   O12       1.0  0.11340  0.75300  0.61460  1.0000 -0.5282892441
O   O13       1.0  0.78073  0.12720  0.18753  1.0000 -0.5468996917
O   O14       1.0  0.21927  0.87280  0.81247  1.0000 -0.5468996917
O   O15       1.0  0.62128  0.25250  0.11698  1.0000 -0.5237583672
O   O16       1.0  0.37872  0.74750  0.88302  1.0000 -0.5237583672
F   F1        1.0  0.22244  0.87730  0.04464  1.0000 -0.1123139593
F   F2        1.0  0.77756  0.12270  0.95536  1.0000 -0.1123139593
F   F3        1.0  0.13108  0.01360  0.92558  1.0000 -0.118725915
F   F4        1.0  0.86892  0.98640  0.07442  1.0000 -0.118725915
F   F5        1.0  0.60289  0.55240  0.65429  1.0000 -0.118725915
F   F6        1.0  0.39711  0.44760  0.34571  1.0000 -0.118725915
F   F7        1.0  0.45240  0.69390  0.53900  1.0000 -0.1123139593
F   F8        1.0  0.54760  0.30610  0.46100  1.0000 -0.1123139593
F   F9        1.0  0.77756  0.37730  0.45536  1.0000 -0.1123139593
F   F10       1.0  0.22244  0.62270  0.54464  1.0000 -0.1123139593
F   F11       1.0  0.86892  0.51360  0.57442  1.0000 -0.118725915
F   F12       1.0  0.13108  0.48640  0.42558  1.0000 -0.118725915
F   F13       1.0  0.39711  0.05240  0.84571  1.0000 -0.118725915
F   F14       1.0  0.60289  0.94760  0.15429  1.0000 -0.118725915
F   F15       1.0  0.54760  0.19390  0.96100  1.0000 -0.1123139593
F   F16       1.0  0.45240  0.80610  0.03900  1.0000 -0.1123139593
