# DDEC6 charges by PACMAN v1.1 (https://github.com/mtap-research/PACMAN-charge/)
data_2010[Cu][nan]3[ASR]7
_chemical_formula_sum              "Cu8 H12 C32 S4 O32"
_cell_length_a       7.3033
_cell_length_b       18.261
_cell_length_c       11.9756
_cell_angle_alpha    90
_cell_angle_beta     122.58
_cell_angle_gamma    90

_symmetry_space_group_name_H-M    "P 1"
_symmetry_Int_Tables_number       1

loop_
  _symmetry_equiv_pos_as_xyz
  'x, y, z'

loop_
  _atom_site_type_symbol
  _atom_site_label
  _atom_site_symmetry_multiplicity
  _atom_site_fract_x
  _atom_site_fract_y
  _atom_site_fract_z
  _atom_site_occupancy
  _atom_site_charge
Cu  Cu1       1.0  0.35082  0.09261  0.21719  1.0000 1.0440389583
Cu  Cu2       1.0  0.64918  0.59261  0.28281  1.0000 1.0440389583
Cu  Cu3       1.0  0.64918  0.90739  0.78281  1.0000 1.0440389583
Cu  Cu4       1.0  0.35082  0.40739  0.71719  1.0000 1.0440389583
Cu  Cu5       1.0  0.88440  0.06849  0.93558  1.0000 1.1361243198
Cu  Cu6       1.0  0.11560  0.56849  0.56442  1.0000 1.1361243198
Cu  Cu7       1.0  0.11560  0.93151  0.06442  1.0000 1.1361243198
Cu  Cu8       1.0  0.88440  0.43151  0.43558  1.0000 1.1361243198
H   H1        1.0  0.37910  0.30500  0.17050  1.0000 0.1497010856
H   H2        1.0  0.62090  0.80500  0.32950  1.0000 0.1497010856
H   H3        1.0  0.62090  0.69500  0.82950  1.0000 0.1497010856
H   H4        1.0  0.37910  0.19500  0.67050  1.0000 0.1497010856
H   H5        1.0  0.84790  0.29320  0.80080  1.0000 0.1497010856
H   H6        1.0  0.15210  0.79320  0.69920  1.0000 0.1497010856
H   H7        1.0  0.15210  0.70680  0.19920  1.0000 0.1497010856
H   H8        1.0  0.84790  0.20680  0.30080  1.0000 0.1497010856
H   H9        1.0  0.15480  0.48680  0.94420  1.0000 0.1497010856
H   H10       1.0  0.84520  0.98680  0.55580  1.0000 0.1497010856
H   H11       1.0  0.84520  0.51320  0.05580  1.0000 0.1497010856
H   H12       1.0  0.15480  0.01320  0.44420  1.0000 0.1497010856
C   C1        1.0  0.98180  0.39514  0.85500  1.0000 -0.064309163
C   C2        1.0  0.01820  0.89514  0.64500  1.0000 -0.0653721845
C   C3        1.0  0.01820  0.60486  0.14500  1.0000 -0.064309163
C   C4        1.0  0.98180  0.10486  0.35500  1.0000 -0.064309163
C   C5        1.0  0.29400  0.40287  0.07640  1.0000 0.0010768355
C   C6        1.0  0.70600  0.90287  0.42360  1.0000 0.0010768355
C   C7        1.0  0.70600  0.59713  0.92360  1.0000 0.0010768355
C   C8        1.0  0.29400  0.09713  0.57640  1.0000 0.0010768355
C   C9        1.0  0.27790  0.32780  0.09130  1.0000 -0.0803499526
C   C10       1.0  0.72210  0.82780  0.40870  1.0000 -0.0803499526
C   C11       1.0  0.72210  0.67220  0.90870  1.0000 -0.0803499526
C   C12       1.0  0.27790  0.17220  0.59130  1.0000 -0.0803499526
C   C13       1.0  0.11150  0.28653  0.98860  1.0000 -0.0020356296
C   C14       1.0  0.88850  0.78653  0.51140  1.0000 -0.0020356296
C   C15       1.0  0.88850  0.71347  0.01140  1.0000 -0.0020356296
C   C16       1.0  0.11150  0.21347  0.48860  1.0000 -0.0020356296
C   C17       1.0  0.10330  0.20627  0.01140  1.0000 0.6229733297
C   C18       1.0  0.89670  0.70627  0.48860  1.0000 0.6229733297
C   C19       1.0  0.89670  0.79373  0.98860  1.0000 0.6229733297
C   C20       1.0  0.10330  0.29373  0.51140  1.0000 0.6229733297
C   C21       1.0  0.96050  0.32006  0.86940  1.0000 -0.0868442605
C   C22       1.0  0.03950  0.82006  0.63060  1.0000 -0.0868442605
C   C23       1.0  0.03950  0.67994  0.13060  1.0000 -0.0868442605
C   C24       1.0  0.96050  0.17994  0.36940  1.0000 -0.0868442605
C   C25       1.0  0.14460  0.43694  0.95600  1.0000 -0.0868442605
C   C26       1.0  0.85540  0.93694  0.54400  1.0000 -0.0868442605
C   C27       1.0  0.85540  0.56306  0.04400  1.0000 -0.0868442605
C   C28       1.0  0.14460  0.06306  0.45600  1.0000 -0.0868442605
C   C29       1.0  0.47690  0.44434  0.18850  1.0000 0.6119768092
C   C30       1.0  0.52310  0.94434  0.31150  1.0000 0.6119768092
C   C31       1.0  0.52310  0.55566  0.81150  1.0000 0.6119768092
C   C32       1.0  0.47690  0.05566  0.68850  1.0000 0.6119768092
S   S1        1.0  0.80999  0.43364  0.69587  1.0000 1.1929929623
S   S2        1.0  0.19001  0.93364  0.80413  1.0000 1.1929929623
S   S3        1.0  0.19001  0.56636  0.30413  1.0000 1.1929929623
S   S4        1.0  0.80999  0.06636  0.19587  1.0000 1.1929929623
O   O1        1.0  0.96095  0.16763  0.91615  1.0000 -0.519317486
O   O2        1.0  0.03905  0.66763  0.58385  1.0000 -0.519317486
O   O3        1.0  0.03905  0.83237  0.08385  1.0000 -0.519317486
O   O4        1.0  0.96095  0.33237  0.41615  1.0000 -0.519317486
O   O5        1.0  0.18604  0.03497  0.05324  1.0000 -0.8918811908
O   O6        1.0  0.81396  0.53497  0.44676  1.0000 -0.8918811908
O   O7        1.0  0.81396  0.96503  0.94676  1.0000 -0.8918811908
O   O8        1.0  0.18604  0.46503  0.55324  1.0000 -0.8918811908
O   O9        1.0  0.50434  0.50976  0.16704  1.0000 -0.5538560083
O   O10       1.0  0.49566  0.00976  0.33296  1.0000 -0.5538560083
O   O11       1.0  0.49566  0.49024  0.83296  1.0000 -0.5538560083
O   O12       1.0  0.50434  0.99024  0.66704  1.0000 -0.5538560083
O   O13       1.0  0.24292  0.18453  0.12692  1.0000 -0.5323378971
O   O14       1.0  0.75708  0.68453  0.37308  1.0000 -0.5323378971
O   O15       1.0  0.75708  0.81547  0.87308  1.0000 -0.5323378971
O   O16       1.0  0.24292  0.31547  0.62692  1.0000 -0.5323378971
O   O17       1.0  0.81634  0.51254  0.70824  1.0000 -0.519317486
O   O18       1.0  0.18366  0.01254  0.79176  1.0000 -0.519317486
O   O19       1.0  0.18366  0.48746  0.29176  1.0000 -0.519317486
O   O20       1.0  0.81634  0.98746  0.20824  1.0000 -0.519317486
O   O21       1.0  0.59158  0.40936  0.29588  1.0000 -0.4973718604
O   O22       1.0  0.40842  0.90936  0.20412  1.0000 -0.4973718604
O   O23       1.0  0.40842  0.59064  0.70412  1.0000 -0.4973718604
O   O24       1.0  0.59158  0.09064  0.79588  1.0000 -0.4973718604
O   O25       1.0  0.90385  0.40682  0.62255  1.0000 -0.6493348411
O   O26       1.0  0.09615  0.90682  0.87745  1.0000 -0.6493348411
O   O27       1.0  0.09615  0.59318  0.37745  1.0000 -0.6493348411
O   O28       1.0  0.90385  0.09318  0.12255  1.0000 -0.6493348411
O   O29       1.0  0.59419  0.40223  0.64249  1.0000 -0.5742206803
O   O30       1.0  0.40581  0.90223  0.85751  1.0000 -0.5742206803
O   O31       1.0  0.40581  0.59777  0.35751  1.0000 -0.5742206803
O   O32       1.0  0.59419  0.09777  0.14249  1.0000 -0.5742206803
