# DDEC6 charges by PACMAN v1.1 (https://github.com/mtap-research/PACMAN-charge/)
data_2010[MnCr][nod]3[ASR]1
_chemical_formula_sum              "Mn8 Cr8 C48 O96"
_cell_length_a       20.8484
_cell_length_b       21.71
_cell_length_c       15.4856
_cell_angle_alpha    90
_cell_angle_beta     90
_cell_angle_gamma    90

_symmetry_space_group_name_H-M    "P 1"
_symmetry_Int_Tables_number       1

loop_
  _symmetry_equiv_pos_as_xyz
  'x, y, z'

loop_
  _atom_site_type_symbol
  _atom_site_label
  _atom_site_symmetry_multiplicity
  _atom_site_fract_x
  _atom_site_fract_y
  _atom_site_fract_z
  _atom_site_occupancy
  _atom_site_charge
Mn  Mn1       1.0  0.98994  0.36566  0.07166  1.0000 0.9484953625
Mn  Mn2       1.0  0.01006  0.63434  0.57166  1.0000 0.9728570921
Mn  Mn3       1.0  0.48994  0.13434  0.07166  1.0000 0.9484953625
Mn  Mn4       1.0  0.51006  0.86566  0.57166  1.0000 0.9728570921
Mn  Mn5       1.0  0.63010  0.49112  0.35534  1.0000 0.9484953625
Mn  Mn6       1.0  0.36990  0.50888  0.85534  1.0000 0.9446692212
Mn  Mn7       1.0  0.13010  0.00888  0.35534  1.0000 0.9484953625
Mn  Mn8       1.0  0.86990  0.99112  0.85534  1.0000 0.9484953625
Cr  Cr1       1.0  0.88696  0.49533  0.33384  1.0000 1.3076680644
Cr  Cr2       1.0  0.11304  0.50467  0.83384  1.0000 1.3076680644
Cr  Cr3       1.0  0.38696  0.00467  0.33384  1.0000 1.3156844122
Cr  Cr4       1.0  0.61304  0.99533  0.83384  1.0000 1.3076680644
Cr  Cr5       1.0  0.49950  0.38163  0.09658  1.0000 1.3076680644
Cr  Cr6       1.0  0.50050  0.61837  0.59658  1.0000 1.3040268166
Cr  Cr7       1.0  0.99950  0.11837  0.09658  1.0000 1.3040268166
Cr  Cr8       1.0  0.00050  0.88163  0.59658  1.0000 1.3040268166
C   C1        1.0  0.75882  0.45898  0.35191  1.0000 0.5388261818
C   C2        1.0  0.24118  0.54102  0.85191  1.0000 0.5388261818
C   C3        1.0  0.25882  0.04102  0.35191  1.0000 0.5388261818
C   C4        1.0  0.74118  0.95898  0.85191  1.0000 0.5388261818
C   C5        1.0  0.75721  0.52805  0.34674  1.0000 0.5388261818
C   C6        1.0  0.24279  0.47195  0.84674  1.0000 0.5336338106
C   C7        1.0  0.25721  0.97195  0.34674  1.0000 0.5336338106
C   C8        1.0  0.74279  0.02805  0.84674  1.0000 0.5336338106
C   C9        1.0  0.91521  0.44658  0.16921  1.0000 0.5388261818
C   C10       1.0  0.08479  0.55342  0.66921  1.0000 0.5388261818
C   C11       1.0  0.41521  0.05342  0.16921  1.0000 0.5388261818
C   C12       1.0  0.58479  0.94658  0.66921  1.0000 0.5388261818
C   C13       1.0  0.95558  0.41119  0.23229  1.0000 0.5388261818
C   C14       1.0  0.04442  0.58881  0.73229  1.0000 0.5388261818
C   C15       1.0  0.45558  0.08881  0.23229  1.0000 0.5388261818
C   C16       1.0  0.54442  0.91119  0.73229  1.0000 0.5388261818
C   C17       1.0  0.93578  0.54586  0.48729  1.0000 0.5388261818
C   C18       1.0  0.06422  0.45414  0.98729  1.0000 0.5388261818
C   C19       1.0  0.43578  0.95414  0.48729  1.0000 0.5388261818
C   C20       1.0  0.56422  0.04586  0.98729  1.0000 0.5388261818
C   C21       1.0  0.96732  0.58186  0.41646  1.0000 0.5388261818
C   C22       1.0  0.03268  0.41814  0.91646  1.0000 0.5388261818
C   C23       1.0  0.46732  0.91814  0.41646  1.0000 0.5388261818
C   C24       1.0  0.53268  0.08186  0.91646  1.0000 0.5388261818
C   C25       1.0  0.02972  0.24374  0.08147  1.0000 0.5388261818
C   C26       1.0  0.97028  0.75626  0.58147  1.0000 0.5336338106
C   C27       1.0  0.52972  0.25626  0.08147  1.0000 0.5388261818
C   C28       1.0  0.47028  0.74374  0.58147  1.0000 0.5336338106
C   C29       1.0  0.95785  0.24108  0.07954  1.0000 0.5388261818
C   C30       1.0  0.04215  0.75892  0.57954  1.0000 0.5388261818
C   C31       1.0  0.45785  0.25892  0.07954  1.0000 0.5388261818
C   C32       1.0  0.54215  0.74108  0.57954  1.0000 0.5388261818
C   C33       1.0  0.58591  0.45143  0.19543  1.0000 0.5388261818
C   C34       1.0  0.41409  0.54857  0.69543  1.0000 0.5388261818
C   C35       1.0  0.08591  0.04857  0.19543  1.0000 0.5388261818
C   C36       1.0  0.91409  0.95143  0.69543  1.0000 0.5388261818
C   C37       1.0  0.54611  0.41716  0.26034  1.0000 0.5388261818
C   C38       1.0  0.45389  0.58284  0.76034  1.0000 0.5336338106
C   C39       1.0  0.04611  0.08284  0.26034  1.0000 0.5336338106
C   C40       1.0  0.95389  0.91716  0.76034  1.0000 0.5336338106
C   C41       1.0  0.58231  0.53587  0.51108  1.0000 0.5336338106
C   C42       1.0  0.41769  0.46413  0.01108  1.0000 0.5336338106
C   C43       1.0  0.08231  0.96413  0.51108  1.0000 0.5336338106
C   C44       1.0  0.91769  0.03587  0.01108  1.0000 0.5388261818
C   C45       1.0  0.54511  0.56805  0.44156  1.0000 0.5336338106
C   C46       1.0  0.45489  0.43195  0.94156  1.0000 0.5336338106
C   C47       1.0  0.04511  0.93195  0.44156  1.0000 0.5336338106
C   C48       1.0  0.95489  0.06805  0.94156  1.0000 0.5336338106
O   O1        1.0  0.70439  0.43252  0.35928  1.0000 -0.4139528455
O   O2        1.0  0.29561  0.56748  0.85928  1.0000 -0.4139528455
O   O3        1.0  0.20439  0.06748  0.35928  1.0000 -0.4139528455
O   O4        1.0  0.79561  0.93252  0.85928  1.0000 -0.4139528455
O   O5        1.0  0.70148  0.55232  0.35150  1.0000 -0.4139528455
O   O6        1.0  0.29852  0.44768  0.85150  1.0000 -0.4139528455
O   O7        1.0  0.20148  0.94768  0.35150  1.0000 -0.4139528455
O   O8        1.0  0.79852  0.05232  0.85150  1.0000 -0.4139528455
O   O9        1.0  0.81540  0.43524  0.34785  1.0000 -0.4920827956
O   O10       1.0  0.18460  0.56476  0.84785  1.0000 -0.4920827956
O   O11       1.0  0.31540  0.06476  0.34785  1.0000 -0.4920827956
O   O12       1.0  0.68460  0.93524  0.84785  1.0000 -0.4920827956
O   O13       1.0  0.81265  0.55375  0.33927  1.0000 -0.4920827956
O   O14       1.0  0.18735  0.44625  0.83927  1.0000 -0.4920827956
O   O15       1.0  0.31265  0.94625  0.33927  1.0000 -0.4920827956
O   O16       1.0  0.68735  0.05375  0.83927  1.0000 -0.4920827956
O   O17       1.0  0.92096  0.43004  0.09027  1.0000 -0.4277900415
O   O18       1.0  0.07904  0.56996  0.59027  1.0000 -0.4277900415
O   O19       1.0  0.42096  0.06996  0.09027  1.0000 -0.4277900415
O   O20       1.0  0.57904  0.93004  0.59027  1.0000 -0.4277900415
O   O21       1.0  0.99022  0.36855  0.19940  1.0000 -0.4197889681
O   O22       1.0  0.00978  0.63145  0.69940  1.0000 -0.4197889681
O   O23       1.0  0.49022  0.13145  0.19940  1.0000 -0.4197889681
O   O24       1.0  0.50978  0.86855  0.69940  1.0000 -0.4197889681
O   O25       1.0  0.88032  0.48901  0.20377  1.0000 -0.4920827956
O   O26       1.0  0.11968  0.51099  0.70377  1.0000 -0.4920827956
O   O27       1.0  0.38032  0.01099  0.20377  1.0000 -0.4920827956
O   O28       1.0  0.61968  0.98901  0.70377  1.0000 -0.4920827956
O   O29       1.0  0.95016  0.42829  0.31172  1.0000 -0.4920827956
O   O30       1.0  0.04984  0.57171  0.81172  1.0000 -0.4920827956
O   O31       1.0  0.45016  0.07171  0.31172  1.0000 -0.4920827956
O   O32       1.0  0.54984  0.92829  0.81172  1.0000 -0.4920827956
O   O33       1.0  0.89966  0.50137  0.46120  1.0000 -0.4920827956
O   O34       1.0  0.10034  0.49863  0.96120  1.0000 -0.4920827956
O   O35       1.0  0.39966  0.99863  0.46120  1.0000 -0.4920827956
O   O36       1.0  0.60034  0.00137  0.96120  1.0000 -0.4920827956
O   O37       1.0  0.95250  0.56357  0.33962  1.0000 -0.4976240922
O   O38       1.0  0.04750  0.43643  0.83962  1.0000 -0.4920827956
O   O39       1.0  0.45250  0.93643  0.33962  1.0000 -0.4976240922
O   O40       1.0  0.54750  0.06357  0.83962  1.0000 -0.4920827956
O   O41       1.0  0.94819  0.56386  0.56402  1.0000 -0.4197889681
O   O42       1.0  0.05181  0.43614  0.06402  1.0000 -0.4197889681
O   O43       1.0  0.44819  0.93614  0.56402  1.0000 -0.4197889681
O   O44       1.0  0.55181  0.06386  0.06402  1.0000 -0.4197889681
O   O45       1.0  0.00399  0.62552  0.44187  1.0000 -0.4197889681
O   O46       1.0  0.99601  0.37448  0.94187  1.0000 -0.4197889681
O   O47       1.0  0.50399  0.87448  0.44187  1.0000 -0.4197889681
O   O48       1.0  0.49601  0.12552  0.94187  1.0000 -0.4197889681
O   O49       1.0  0.05421  0.29742  0.07337  1.0000 -0.4197889681
O   O50       1.0  0.94579  0.70258  0.57337  1.0000 -0.4197889681
O   O51       1.0  0.55421  0.20258  0.07337  1.0000 -0.4197889681
O   O52       1.0  0.44579  0.79742  0.57337  1.0000 -0.4197889681
O   O53       1.0  0.92994  0.29322  0.07135  1.0000 -0.4197889681
O   O54       1.0  0.07006  0.70678  0.57135  1.0000 -0.4197889681
O   O55       1.0  0.42994  0.20678  0.07135  1.0000 -0.4197889681
O   O56       1.0  0.57006  0.79322  0.57135  1.0000 -0.4197889681
O   O57       1.0  0.55744  0.30900  0.09022  1.0000 -0.4976240922
O   O58       1.0  0.44256  0.69100  0.59022  1.0000 -0.4976240922
O   O59       1.0  0.05744  0.19100  0.09022  1.0000 -0.4976240922
O   O60       1.0  0.94256  0.80900  0.59022  1.0000 -0.4976240922
O   O61       1.0  0.43408  0.31359  0.08597  1.0000 -0.4976240922
O   O62       1.0  0.56592  0.68641  0.58597  1.0000 -0.4976240922
O   O63       1.0  0.93408  0.18641  0.08597  1.0000 -0.4976240922
O   O64       1.0  0.06592  0.81359  0.58597  1.0000 -0.4976240922
O   O65       1.0  0.57093  0.44080  0.11605  1.0000 -0.4976240922
O   O66       1.0  0.42907  0.55920  0.61605  1.0000 -0.4976240922
O   O67       1.0  0.07093  0.05920  0.11605  1.0000 -0.4976240922
O   O68       1.0  0.92907  0.94080  0.61605  1.0000 -0.4976240922
O   O69       1.0  0.50235  0.38258  0.22718  1.0000 -0.4976240922
O   O70       1.0  0.49765  0.61742  0.72718  1.0000 -0.4976240922
O   O71       1.0  0.00235  0.11742  0.22718  1.0000 -0.4976240922
O   O72       1.0  0.99765  0.88258  0.72718  1.0000 -0.4976240922
O   O73       1.0  0.62902  0.48693  0.22710  1.0000 -0.4197889681
O   O74       1.0  0.37098  0.51307  0.72710  1.0000 -0.4197889681
O   O75       1.0  0.12902  0.01307  0.22710  1.0000 -0.4197889681
O   O76       1.0  0.87098  0.98693  0.72710  1.0000 -0.4197889681
O   O77       1.0  0.56092  0.42701  0.33941  1.0000 -0.4197889681
O   O78       1.0  0.43908  0.57299  0.83941  1.0000 -0.4197889681
O   O79       1.0  0.06092  0.07299  0.33941  1.0000 -0.4197889681
O   O80       1.0  0.93908  0.92701  0.83941  1.0000 -0.4197889681
O   O81       1.0  0.62394  0.49706  0.48443  1.0000 -0.4197889681
O   O82       1.0  0.37606  0.50294  0.98443  1.0000 -0.4197889681
O   O83       1.0  0.12394  0.00294  0.48443  1.0000 -0.4197889681
O   O84       1.0  0.87606  0.99706  0.98443  1.0000 -0.4197889681
O   O85       1.0  0.56033  0.55329  0.36425  1.0000 -0.4197889681
O   O86       1.0  0.43967  0.44671  0.86425  1.0000 -0.4197889681
O   O87       1.0  0.06033  0.94671  0.36425  1.0000 -0.4197889681
O   O88       1.0  0.93967  0.05329  0.86425  1.0000 -0.4197889681
O   O89       1.0  0.56724  0.55199  0.58861  1.0000 -0.4976240922
O   O90       1.0  0.43276  0.44801  0.08861  1.0000 -0.4976240922
O   O91       1.0  0.06724  0.94801  0.58861  1.0000 -0.4976240922
O   O92       1.0  0.93276  0.05199  0.08861  1.0000 -0.4976240922
O   O93       1.0  0.50293  0.60636  0.46898  1.0000 -0.4920827956
O   O94       1.0  0.49707  0.39364  0.96898  1.0000 -0.4920827956
O   O95       1.0  0.00293  0.89364  0.46898  1.0000 -0.4920827956
O   O96       1.0  0.99707  0.10636  0.96898  1.0000 -0.4920827956
