# DDEC6 charges by PACMAN v1.1 (https://github.com/mtap-research/PACMAN-charge/)
data_2010[Co][sqc]3[ASR]1
_chemical_formula_sum              "Co14 H102 C138 N8 O48"
_cell_length_a       16.7097
_cell_length_b       16.7097
_cell_length_c       15.263
_cell_angle_alpha    71.8043
_cell_angle_beta     108.196
_cell_angle_gamma    91.9907

_symmetry_space_group_name_H-M    "P 1"
_symmetry_Int_Tables_number       1

loop_
  _symmetry_equiv_pos_as_xyz
  'x, y, z'

loop_
  _atom_site_type_symbol
  _atom_site_label
  _atom_site_symmetry_multiplicity
  _atom_site_fract_x
  _atom_site_fract_y
  _atom_site_fract_z
  _atom_site_occupancy
  _atom_site_charge
Co  Co1       1.0  0.50000  0.00000  0.50000  1.0000 1.1684053391
Co  Co2       1.0  0.00000  0.50000  0.00000  1.0000 1.1684053391
Co  Co3       1.0  0.53782  0.18520  0.31452  1.0000 1.0193831772
Co  Co4       1.0  0.18520  0.53782  0.18548  1.0000 1.0193831772
Co  Co5       1.0  0.46218  0.81480  0.68548  1.0000 1.0193831772
Co  Co6       1.0  0.81480  0.46218  0.81452  1.0000 1.0193831772
Co  Co7       1.0  0.54191  0.97983  0.31331  1.0000 1.0308984071
Co  Co8       1.0  0.97983  0.54191  0.18669  1.0000 1.0308984071
Co  Co9       1.0  0.45809  0.02017  0.68669  1.0000 1.0308984071
Co  Co10      1.0  0.02017  0.45809  0.81331  1.0000 1.0308984071
Co  Co11      1.0  0.49289  0.19637  0.51239  1.0000 0.9710566551
Co  Co12      1.0  0.19637  0.49289  0.98761  1.0000 0.9710566551
Co  Co13      1.0  0.50711  0.80363  0.48761  1.0000 0.9710566551
Co  Co14      1.0  0.80363  0.50711  0.01239  1.0000 0.9710566551
H   H1        1.0  0.72520  0.31920  0.63330  1.0000 0.1203890595
H   H2        1.0  0.31920  0.72520  0.86670  1.0000 0.1203890595
H   H3        1.0  0.27480  0.68080  0.36670  1.0000 0.1203890595
H   H4        1.0  0.68080  0.27480  0.13330  1.0000 0.1203890595
H   H5        1.0  0.77180  0.20600  0.45080  1.0000 0.1394895092
H   H6        1.0  0.20600  0.77180  0.04920  1.0000 0.1394895092
H   H7        1.0  0.22820  0.79400  0.54920  1.0000 0.1394895092
H   H8        1.0  0.79400  0.22820  0.95080  1.0000 0.1394895092
H   H9        1.0  0.91300  0.22680  0.50460  1.0000 0.1203890595
H   H10       1.0  0.22680  0.91300  0.99540  1.0000 0.1203890595
H   H11       1.0  0.08700  0.77320  0.49540  1.0000 0.1203890595
H   H12       1.0  0.77320  0.08700  0.00460  1.0000 0.1203890595
H   H13       1.0  0.96470  0.29230  0.62500  1.0000 0.1203890595
H   H14       1.0  0.29230  0.96470  0.87500  1.0000 0.1203890595
H   H15       1.0  0.03530  0.70770  0.37500  1.0000 0.1203890595
H   H16       1.0  0.70770  0.03530  0.12500  1.0000 0.1203890595
H   H17       1.0  0.32390  0.26390  0.07430  1.0000 0.1277202417
H   H18       1.0  0.26390  0.32390  0.42570  1.0000 0.1277202417
H   H19       1.0  0.67610  0.73610  0.92570  1.0000 0.1277202417
H   H20       1.0  0.73610  0.67610  0.57430  1.0000 0.1277202417
H   H21       1.0  0.12370  0.20150  0.88320  1.0000 0.1277202417
H   H22       1.0  0.20150  0.12370  0.61680  1.0000 0.1277202417
H   H23       1.0  0.87630  0.79850  0.11680  1.0000 0.1277202417
H   H24       1.0  0.79850  0.87630  0.38320  1.0000 0.1277202417
H   H25       1.0  0.18490  0.06510  0.93270  1.0000 0.1203890595
H   H26       1.0  0.06510  0.18490  0.56730  1.0000 0.1203890595
H   H27       1.0  0.81510  0.93490  0.06730  1.0000 0.1203890595
H   H28       1.0  0.93490  0.81510  0.43270  1.0000 0.1203890595
H   H29       1.0  0.31110  0.02450  0.06260  1.0000 0.1203890595
H   H30       1.0  0.02450  0.31110  0.43740  1.0000 0.1203890595
H   H31       1.0  0.68890  0.97550  0.93740  1.0000 0.1203890595
H   H32       1.0  0.97550  0.68890  0.56260  1.0000 0.1203890595
H   H33       1.0  0.69600  0.69600  0.75000  1.0000 0.1026192817
H   H34       1.0  0.30400  0.30400  0.25000  1.0000 0.1026192817
H   H35       1.0  0.74160  0.93500  0.74310  1.0000 0.1090837359
H   H36       1.0  0.93500  0.74160  0.75690  1.0000 0.1090837359
H   H37       1.0  0.25840  0.06500  0.25690  1.0000 0.1090837359
H   H38       1.0  0.06500  0.25840  0.24310  1.0000 0.1090837359
H   H39       1.0  0.88130  0.89210  0.84260  1.0000 0.1090837359
H   H40       1.0  0.89210  0.88130  0.65740  1.0000 0.1090837359
H   H41       1.0  0.11870  0.10790  0.15740  1.0000 0.1090837359
H   H42       1.0  0.10790  0.11870  0.34260  1.0000 0.1090837359
H   H43       1.0  0.75040  0.92000  0.58300  1.0000 0.1203890595
H   H44       1.0  0.92000  0.75040  0.91700  1.0000 0.1203890595
H   H45       1.0  0.24960  0.08000  0.41700  1.0000 0.1203890595
H   H46       1.0  0.08000  0.24960  0.08300  1.0000 0.1203890595
H   H47       1.0  0.40920  0.34020  0.18880  1.0000 0.1090837359
H   H48       1.0  0.34020  0.40920  0.31120  1.0000 0.1090837359
H   H49       1.0  0.59080  0.65980  0.81120  1.0000 0.1090837359
H   H50       1.0  0.65980  0.59080  0.68880  1.0000 0.1090837359
H   H51       1.0  0.40720  0.48280  0.10100  1.0000 0.1394895092
H   H52       1.0  0.48280  0.40720  0.39900  1.0000 0.1394895092
H   H53       1.0  0.59280  0.51720  0.89900  1.0000 0.1394895092
H   H54       1.0  0.51720  0.59280  0.60100  1.0000 0.1394895092
H   H55       1.0  0.66110  0.46270  0.18420  1.0000 0.1490885019
H   H56       1.0  0.46270  0.66110  0.31580  1.0000 0.1490885019
H   H57       1.0  0.33890  0.53730  0.81580  1.0000 0.1490885019
H   H58       1.0  0.53730  0.33890  0.68420  1.0000 0.1490885019
H   H59       1.0  0.65750  0.32530  0.27630  1.0000 0.1090837359
H   H60       1.0  0.32530  0.65750  0.22370  1.0000 0.1090837359
H   H61       1.0  0.34250  0.67470  0.72370  1.0000 0.1090837359
H   H62       1.0  0.67470  0.34250  0.77630  1.0000 0.1090837359
H   H63       1.0  0.48190  0.58670  0.01080  1.0000 0.1203890595
H   H64       1.0  0.58670  0.48190  0.48920  1.0000 0.1203890595
H   H65       1.0  0.51810  0.41330  0.98920  1.0000 0.1203890595
H   H66       1.0  0.41330  0.51810  0.51080  1.0000 0.1203890595
H   H67       1.0  0.58310  0.58130  0.04490  1.0000 0.1203890595
H   H68       1.0  0.58130  0.58310  0.45510  1.0000 0.1203890595
H   H69       1.0  0.41690  0.41870  0.95510  1.0000 0.1203890595
H   H70       1.0  0.41870  0.41690  0.54490  1.0000 0.1203890595
H   H71       1.0  0.58760  0.63000  0.17680  1.0000 0.0924908705
H   H72       1.0  0.63000  0.58760  0.32320  1.0000 0.0924908705
H   H73       1.0  0.41240  0.37000  0.82320  1.0000 0.0924908705
H   H74       1.0  0.37000  0.41240  0.67680  1.0000 0.0924908705
H   H75       1.0  0.48690  0.62950  0.15010  1.0000 0.0924908705
H   H76       1.0  0.62950  0.48690  0.34990  1.0000 0.0924908705
H   H77       1.0  0.51310  0.37050  0.84990  1.0000 0.0924908705
H   H78       1.0  0.37050  0.51310  0.65010  1.0000 0.0924908705
H   H79       1.0  0.57130  0.73990  0.02480  1.0000 0.1203890595
H   H80       1.0  0.73990  0.57130  0.47520  1.0000 0.1203890595
H   H81       1.0  0.42870  0.26010  0.97520  1.0000 0.1203890595
H   H82       1.0  0.26010  0.42870  0.52480  1.0000 0.1203890595
H   H83       1.0  0.47060  0.74000  0.99970  1.0000 0.1203890595
H   H84       1.0  0.74000  0.47060  0.50030  1.0000 0.1203890595
H   H85       1.0  0.52940  0.26000  0.00030  1.0000 0.1203890595
H   H86       1.0  0.26000  0.52940  0.49970  1.0000 0.1203890595
H   H87       1.0  0.40230  0.78710  0.10790  1.0000 0.1203890595
H   H88       1.0  0.78710  0.40230  0.39210  1.0000 0.1203890595
H   H89       1.0  0.59770  0.21290  0.89210  1.0000 0.1203890595
H   H90       1.0  0.21290  0.59770  0.60790  1.0000 0.1203890595
H   H91       1.0  0.40970  0.87630  0.19950  1.0000 0.1090837359
H   H92       1.0  0.87630  0.40970  0.30050  1.0000 0.1090837359
H   H93       1.0  0.59030  0.12370  0.80050  1.0000 0.1090837359
H   H94       1.0  0.12370  0.59030  0.69950  1.0000 0.1090837359
H   H95       1.0  0.65500  0.89540  0.23350  1.0000 0.1026192817
H   H96       1.0  0.89540  0.65500  0.26650  1.0000 0.1026192817
H   H97       1.0  0.34500  0.10460  0.76650  1.0000 0.1026192817
H   H98       1.0  0.10460  0.34500  0.73350  1.0000 0.1026192817
H   H99       1.0  0.64960  0.81200  0.13560  1.0000 0.1277202417
H   H100      1.0  0.81200  0.64960  0.36440  1.0000 0.1277202417
H   H101      1.0  0.35040  0.18800  0.86440  1.0000 0.1277202417
H   H102      1.0  0.18800  0.35040  0.63560  1.0000 0.1277202417
C   C1        1.0  0.88110  0.35850  0.71730  1.0000 0.5728109032
C   C2        1.0  0.35850  0.88110  0.78270  1.0000 0.5728109032
C   C3        1.0  0.11890  0.64150  0.28270  1.0000 0.5728109032
C   C4        1.0  0.64150  0.11890  0.21730  1.0000 0.5728109032
C   C5        1.0  0.84780  0.31320  0.63980  1.0000 -0.0115979277
C   C6        1.0  0.31320  0.84780  0.86020  1.0000 -0.0115979277
C   C7        1.0  0.15220  0.68680  0.36020  1.0000 -0.0115979277
C   C8        1.0  0.68680  0.15220  0.13980  1.0000 -0.0115979277
C   C9        1.0  0.76340  0.30140  0.60700  1.0000 -0.1275828629
C   C10       1.0  0.30140  0.76340  0.89300  1.0000 -0.1275828629
C   C11       1.0  0.23660  0.69860  0.39300  1.0000 -0.1275828629
C   C12       1.0  0.69860  0.23660  0.10700  1.0000 -0.1275828629
C   C13       1.0  0.73370  0.26290  0.53470  1.0000 -0.0178759689
C   C14       1.0  0.26290  0.73370  0.96530  1.0000 -0.0178759689
C   C15       1.0  0.26630  0.73710  0.46530  1.0000 -0.0178759689
C   C16       1.0  0.73710  0.26630  0.03470  1.0000 -0.0178759689
C   C17       1.0  0.79170  0.23390  0.49840  1.0000 -0.1173902447
C   C18       1.0  0.23390  0.79170  0.00160  1.0000 -0.1173902447
C   C19       1.0  0.20830  0.76610  0.50160  1.0000 -0.1173902447
C   C20       1.0  0.76610  0.20830  0.99840  1.0000 -0.1173902447
C   C21       1.0  0.87520  0.24560  0.53070  1.0000 -0.1173902447
C   C22       1.0  0.24560  0.87520  0.96930  1.0000 -0.1173902447
C   C23       1.0  0.12480  0.75440  0.46930  1.0000 -0.1173902447
C   C24       1.0  0.75440  0.12480  0.03070  1.0000 -0.1173902447
C   C25       1.0  0.90610  0.28470  0.60190  1.0000 -0.1125884815
C   C26       1.0  0.28470  0.90610  0.89810  1.0000 -0.1125884815
C   C27       1.0  0.09390  0.71530  0.39810  1.0000 -0.1125884815
C   C28       1.0  0.71530  0.09390  0.10190  1.0000 -0.1125884815
C   C29       1.0  0.64240  0.24480  0.50180  1.0000 0.5728109032
C   C30       1.0  0.24480  0.64240  0.99820  1.0000 0.5728109032
C   C31       1.0  0.35760  0.75520  0.49820  1.0000 0.5728109032
C   C32       1.0  0.75520  0.35760  0.00180  1.0000 0.5728109032
C   C33       1.0  0.40750  0.11410  0.16980  1.0000 0.5728109032
C   C34       1.0  0.11410  0.40750  0.33020  1.0000 0.5728109032
C   C35       1.0  0.59250  0.88590  0.83020  1.0000 0.5728109032
C   C36       1.0  0.88590  0.59250  0.66980  1.0000 0.5728109032
C   C37       1.0  0.32760  0.14000  0.08300  1.0000 -0.0178759689
C   C38       1.0  0.14000  0.32760  0.41700  1.0000 -0.0178759689
C   C39       1.0  0.67240  0.86000  0.91700  1.0000 -0.0178759689
C   C40       1.0  0.86000  0.67240  0.58300  1.0000 -0.0178759689
C   C41       1.0  0.29410  0.22310  0.04750  1.0000 -0.1173902447
C   C42       1.0  0.22310  0.29410  0.45250  1.0000 -0.1173902447
C   C43       1.0  0.70590  0.77690  0.95250  1.0000 -0.1173902447
C   C44       1.0  0.77690  0.70590  0.54750  1.0000 -0.1173902447
C   C45       1.0  0.21770  0.24690  0.97340  1.0000 -0.0178759689
C   C46       1.0  0.24690  0.21770  0.52660  1.0000 -0.0178759689
C   C47       1.0  0.78230  0.75310  0.02660  1.0000 -0.0178759689
C   C48       1.0  0.75310  0.78230  0.47340  1.0000 -0.0178759689
C   C49       1.0  0.17670  0.18630  0.93290  1.0000 -0.1173902447
C   C50       1.0  0.18630  0.17670  0.56710  1.0000 -0.1125884815
C   C51       1.0  0.82330  0.81370  0.06710  1.0000 -0.1125884815
C   C52       1.0  0.81370  0.82330  0.43290  1.0000 -0.1125884815
C   C53       1.0  0.21200  0.10460  0.96360  1.0000 -0.1125884815
C   C54       1.0  0.10460  0.21200  0.53640  1.0000 -0.1125884815
C   C55       1.0  0.78800  0.89540  0.03640  1.0000 -0.1125884815
C   C56       1.0  0.89540  0.78800  0.46360  1.0000 -0.1125884815
C   C57       1.0  0.28710  0.08090  0.03980  1.0000 -0.1173902447
C   C58       1.0  0.08090  0.28710  0.46020  1.0000 -0.1173902447
C   C59       1.0  0.71290  0.91910  0.96020  1.0000 -0.1173902447
C   C60       1.0  0.91910  0.71290  0.53980  1.0000 -0.1173902447
C   C61       1.0  0.17810  0.33550  0.94430  1.0000 0.5618126839
C   C62       1.0  0.33550  0.17810  0.55570  1.0000 0.5618126839
C   C63       1.0  0.82190  0.66450  0.05570  1.0000 0.5618126839
C   C64       1.0  0.66450  0.82190  0.44430  1.0000 0.5618126839
C   C65       1.0  0.62490  0.85110  0.63460  1.0000 0.5545465797
C   C66       1.0  0.85110  0.62490  0.86540  1.0000 0.5545465797
C   C67       1.0  0.37510  0.14890  0.36540  1.0000 0.5545465797
C   C68       1.0  0.14890  0.37510  0.13460  1.0000 0.5545465797
C   C69       1.0  0.71090  0.82070  0.69670  1.0000 -0.0016479065
C   C70       1.0  0.82070  0.71090  0.80330  1.0000 -0.0016479065
C   C71       1.0  0.28910  0.17930  0.30330  1.0000 -0.0016479065
C   C72       1.0  0.17930  0.28910  0.19670  1.0000 -0.0016479065
C   C73       1.0  0.73690  0.73690  0.75000  1.0000 -0.1045569181
C   C74       1.0  0.26310  0.26310  0.25000  1.0000 -0.1045569181
C   C75       1.0  0.76930  0.88170  0.74610  1.0000 -0.0359641947
C   C76       1.0  0.88170  0.76930  0.75390  1.0000 -0.0359641947
C   C77       1.0  0.23070  0.11830  0.25390  1.0000 -0.0359641947
C   C78       1.0  0.11830  0.23070  0.24610  1.0000 -0.0359641947
C   C79       1.0  0.84650  0.85250  0.81850  1.0000 -0.1905198991
C   C80       1.0  0.85250  0.84650  0.68150  1.0000 -0.1905198991
C   C81       1.0  0.15350  0.14750  0.18150  1.0000 -0.1905198991
C   C82       1.0  0.14750  0.15350  0.31850  1.0000 -0.1905198991
C   C83       1.0  0.77230  0.87270  0.64550  1.0000 -0.0178759689
C   C84       1.0  0.87270  0.77230  0.85450  1.0000 -0.0178759689
C   C85       1.0  0.22770  0.12730  0.35450  1.0000 -0.0178759689
C   C86       1.0  0.12730  0.22770  0.14550  1.0000 -0.0178759689
C   C87       1.0  0.46100  0.36540  0.18940  1.0000 0.0924908705
C   C88       1.0  0.36540  0.46100  0.31060  1.0000 0.0924908705
C   C89       1.0  0.53900  0.63460  0.81060  1.0000 0.0924908705
C   C90       1.0  0.63460  0.53900  0.68940  1.0000 0.0924908705
C   C91       1.0  0.45950  0.45050  0.13590  1.0000 -0.2139333784
C   C92       1.0  0.45050  0.45950  0.36410  1.0000 -0.2139333784
C   C93       1.0  0.54050  0.54950  0.86410  1.0000 -0.2139333784
C   C94       1.0  0.54950  0.54050  0.63590  1.0000 -0.2139333784
C   C95       1.0  0.53560  0.48780  0.13400  1.0000 0.1675608754
C   C96       1.0  0.48780  0.53560  0.36600  1.0000 0.1675608754
C   C97       1.0  0.46440  0.51220  0.86600  1.0000 0.1675608754
C   C98       1.0  0.51220  0.46440  0.63400  1.0000 0.1675608754
C   C99       1.0  0.60840  0.43980  0.18510  1.0000 -0.1999416053
C   C100      1.0  0.43980  0.60840  0.31490  1.0000 -0.1999416053
C   C101      1.0  0.39160  0.56020  0.81490  1.0000 -0.1999416053
C   C102      1.0  0.56020  0.39160  0.68510  1.0000 -0.1999416053
C   C103      1.0  0.60530  0.35730  0.23860  1.0000 0.0749256611
C   C104      1.0  0.35730  0.60530  0.26140  1.0000 0.0749256611
C   C105      1.0  0.39470  0.64270  0.76140  1.0000 0.0749256611
C   C106      1.0  0.64270  0.39470  0.73860  1.0000 0.0749256611
C   C107      1.0  0.53340  0.57520  0.06810  1.0000 -0.2501464262
C   C108      1.0  0.57520  0.53340  0.43190  1.0000 -0.2501464262
C   C109      1.0  0.46660  0.42480  0.93190  1.0000 -0.2501464262
C   C110      1.0  0.42480  0.46660  0.56810  1.0000 -0.2501464262
C   C111      1.0  0.53390  0.63890  0.12240  1.0000 -0.1275828629
C   C112      1.0  0.63890  0.53390  0.37760  1.0000 -0.1275828629
C   C113      1.0  0.46610  0.36110  0.87760  1.0000 -0.1275828629
C   C114      1.0  0.36110  0.46610  0.62240  1.0000 -0.1275828629
C   C115      1.0  0.52470  0.73030  0.05340  1.0000 -0.2501464262
C   C116      1.0  0.73030  0.52470  0.44660  1.0000 -0.2501464262
C   C117      1.0  0.47530  0.26970  0.94660  1.0000 -0.2501464262
C   C118      1.0  0.26970  0.47530  0.55340  1.0000 -0.2501464262
C   C119      1.0  0.52710  0.78950  0.10960  1.0000 0.1778567284
C   C120      1.0  0.78950  0.52710  0.39040  1.0000 0.1778567284
C   C121      1.0  0.47290  0.21050  0.89040  1.0000 0.1778567284
C   C122      1.0  0.21050  0.47290  0.60960  1.0000 0.1778567284
C   C123      1.0  0.45450  0.80970  0.13200  1.0000 -0.2225915641
C   C124      1.0  0.80970  0.45450  0.36800  1.0000 -0.2225915641
C   C125      1.0  0.54550  0.19030  0.86800  1.0000 -0.2225915641
C   C126      1.0  0.19030  0.54550  0.63200  1.0000 -0.2225915641
C   C127      1.0  0.45950  0.86210  0.18840  1.0000 0.0924908705
C   C128      1.0  0.86210  0.45950  0.31160  1.0000 0.0924908705
C   C129      1.0  0.54050  0.13790  0.81160  1.0000 0.0924908705
C   C130      1.0  0.13790  0.54050  0.68840  1.0000 0.0924908705
C   C131      1.0  0.60260  0.87400  0.20730  1.0000 0.0849105269
C   C132      1.0  0.87400  0.60260  0.29270  1.0000 0.0849105269
C   C133      1.0  0.39740  0.12600  0.79270  1.0000 0.0849105269
C   C134      1.0  0.12600  0.39740  0.70730  1.0000 0.0849105269
C   C135      1.0  0.59980  0.82320  0.14850  1.0000 -0.2139333784
C   C136      1.0  0.82320  0.59980  0.35150  1.0000 -0.2139333784
C   C137      1.0  0.40020  0.17680  0.85150  1.0000 -0.2139333784
C   C138      1.0  0.17680  0.40020  0.64850  1.0000 -0.2139333784
N   N1        1.0  0.53380  0.31840  0.24160  1.0000 -0.2619257271
N   N2        1.0  0.31840  0.53380  0.25840  1.0000 -0.2619257271
N   N3        1.0  0.46620  0.68160  0.75840  1.0000 -0.2619257271
N   N4        1.0  0.68160  0.46620  0.74160  1.0000 -0.2619257271
N   N5        1.0  0.53370  0.89410  0.22870  1.0000 -0.2619257271
N   N6        1.0  0.89410  0.53370  0.27130  1.0000 -0.2619257271
N   N7        1.0  0.46630  0.10590  0.77130  1.0000 -0.2619257271
N   N8        1.0  0.10590  0.46630  0.72870  1.0000 -0.2619257271
O   O1        1.0  0.56070  0.06010  0.40050  1.0000 -0.7544006854
O   O2        1.0  0.06010  0.56070  0.09950  1.0000 -0.7544006854
O   O3        1.0  0.43930  0.93990  0.59950  1.0000 -0.7552881986
O   O4        1.0  0.93990  0.43930  0.90050  1.0000 -0.7552881986
O   O5        1.0  0.53110  0.08010  0.59310  1.0000 -0.7795394808
O   O6        1.0  0.08010  0.53110  0.90690  1.0000 -0.7795394808
O   O7        1.0  0.46890  0.91990  0.40690  1.0000 -0.7795394808
O   O8        1.0  0.91990  0.46890  0.09310  1.0000 -0.7795394808
O   O9        1.0  0.82690  0.36510  0.76010  1.0000 -0.5598032226
O   O10       1.0  0.36510  0.82690  0.73990  1.0000 -0.5598032226
O   O11       1.0  0.17310  0.63490  0.23990  1.0000 -0.5598032226
O   O12       1.0  0.63490  0.17310  0.26010  1.0000 -0.5598032226
O   O13       1.0  0.95268  0.38068  0.73250  1.0000 -0.5088452548
O   O14       1.0  0.38068  0.95268  0.76750  1.0000 -0.5088452548
O   O15       1.0  0.04732  0.61932  0.26750  1.0000 -0.5088452548
O   O16       1.0  0.61932  0.04732  0.23250  1.0000 -0.5088452548
O   O17       1.0  0.62230  0.20430  0.43970  1.0000 -0.5421052277
O   O18       1.0  0.20430  0.62230  0.06030  1.0000 -0.5421052277
O   O19       1.0  0.37770  0.79570  0.56030  1.0000 -0.5421052277
O   O20       1.0  0.79570  0.37770  0.93970  1.0000 -0.5421052277
O   O21       1.0  0.59060  0.26580  0.53810  1.0000 -0.5421052277
O   O22       1.0  0.26580  0.59060  0.96190  1.0000 -0.5421052277
O   O23       1.0  0.40940  0.73420  0.46190  1.0000 -0.5421052277
O   O24       1.0  0.73420  0.40940  0.03810  1.0000 -0.5421052277
O   O25       1.0  0.44420  0.17420  0.19630  1.0000 -0.5598032226
O   O26       1.0  0.17420  0.44420  0.30370  1.0000 -0.5598032226
O   O27       1.0  0.55580  0.82580  0.80370  1.0000 -0.5598032226
O   O28       1.0  0.82580  0.55580  0.69630  1.0000 -0.5598032226
O   O29       1.0  0.42880  0.03780  0.20950  1.0000 -0.4975120351
O   O30       1.0  0.03780  0.42880  0.29050  1.0000 -0.4975120351
O   O31       1.0  0.57120  0.96220  0.79050  1.0000 -0.4975120351
O   O32       1.0  0.96220  0.57120  0.70950  1.0000 -0.4975120351
O   O33       1.0  0.09930  0.34690  0.91030  1.0000 -0.5152547508
O   O34       1.0  0.34690  0.09930  0.58970  1.0000 -0.5152547508
O   O35       1.0  0.90070  0.65310  0.08970  1.0000 -0.5152547508
O   O36       1.0  0.65310  0.90070  0.41030  1.0000 -0.5152547508
O   O37       1.0  0.22950  0.39130  0.96050  1.0000 -0.5598032226
O   O38       1.0  0.39130  0.22950  0.53950  1.0000 -0.5598032226
O   O39       1.0  0.77050  0.60870  0.03950  1.0000 -0.5598032226
O   O40       1.0  0.60870  0.77050  0.46050  1.0000 -0.5598032226
O   O41       1.0  0.61180  0.92780  0.59070  1.0000 -0.4325058013
O   O42       1.0  0.92780  0.61180  0.90930  1.0000 -0.4325058013
O   O43       1.0  0.38820  0.07220  0.40930  1.0000 -0.4325058013
O   O44       1.0  0.07220  0.38820  0.09070  1.0000 -0.4325058013
O   O45       1.0  0.56813  0.79595  0.62780  1.0000 -0.5965346843
O   O46       1.0  0.79595  0.56813  0.87220  1.0000 -0.5965346843
O   O47       1.0  0.43187  0.20405  0.37220  1.0000 -0.5965346843
O   O48       1.0  0.20405  0.43187  0.12780  1.0000 -0.5965346843
