# DDEC6 charges by PACMAN v1.1 (https://github.com/mtap-research/PACMAN-charge/)
data_2010[Cu][tbo]3[ASR]1
_chemical_formula_sum              "Cu12 H24 C72 O48"
_cell_length_a       18.651
_cell_length_b       18.651
_cell_length_c       18.651
_cell_angle_alpha    60
_cell_angle_beta     60
_cell_angle_gamma    60

_symmetry_space_group_name_H-M    "P 1"
_symmetry_Int_Tables_number       1

loop_
  _symmetry_equiv_pos_as_xyz
  'x, y, z'

loop_
  _atom_site_type_symbol
  _atom_site_label
  _atom_site_symmetry_multiplicity
  _atom_site_fract_x
  _atom_site_fract_y
  _atom_site_fract_z
  _atom_site_occupancy
  _atom_site_charge
Cu  Cu1       1.0  0.06986  0.50000  0.50000  1.0000 0.8559389549
Cu  Cu2       1.0  0.50000  0.06986  0.93014  1.0000 0.8559389549
Cu  Cu3       1.0  0.50000  0.93014  0.06986  1.0000 0.8559389549
Cu  Cu4       1.0  0.93014  0.50000  0.50000  1.0000 0.8559389549
Cu  Cu5       1.0  0.06986  0.50000  0.93014  1.0000 0.8559389549
Cu  Cu6       1.0  0.50000  0.93014  0.50000  1.0000 0.8543630514
Cu  Cu7       1.0  0.50000  0.06986  0.50000  1.0000 0.8559389549
Cu  Cu8       1.0  0.93014  0.50000  0.06986  1.0000 0.8559389549
Cu  Cu9       1.0  0.06986  0.93014  0.50000  1.0000 0.8559389549
Cu  Cu10      1.0  0.50000  0.50000  0.06986  1.0000 0.8559389549
Cu  Cu11      1.0  0.50000  0.50000  0.93014  1.0000 0.8559389549
Cu  Cu12      1.0  0.93014  0.06986  0.50000  1.0000 0.8559389549
H   H1        1.0  0.77260  0.46740  0.77260  1.0000 0.1369459193
H   H2        1.0  0.46740  0.77260  0.98740  1.0000 0.1369459193
H   H3        1.0  0.77260  0.98740  0.77260  1.0000 0.1369459193
H   H4        1.0  0.98740  0.77260  0.46740  1.0000 0.1369459193
H   H5        1.0  0.77260  0.77260  0.98740  1.0000 0.1369459193
H   H6        1.0  0.46740  0.98740  0.77260  1.0000 0.1369459193
H   H7        1.0  0.77260  0.77260  0.46740  1.0000 0.1369459193
H   H8        1.0  0.98740  0.46740  0.77260  1.0000 0.1369459193
H   H9        1.0  0.77260  0.98740  0.46740  1.0000 0.1369459193
H   H10       1.0  0.46740  0.77260  0.77260  1.0000 0.1369459193
H   H11       1.0  0.77260  0.46740  0.98740  1.0000 0.1369459193
H   H12       1.0  0.98740  0.77260  0.77260  1.0000 0.1369459193
H   H13       1.0  0.53260  0.22740  0.22740  1.0000 0.1369459193
H   H14       1.0  0.22740  0.53260  0.01260  1.0000 0.1369459193
H   H15       1.0  0.01260  0.22740  0.22740  1.0000 0.1369459193
H   H16       1.0  0.22740  0.01260  0.53260  1.0000 0.1369459193
H   H17       1.0  0.22740  0.22740  0.01260  1.0000 0.1369459193
H   H18       1.0  0.01260  0.53260  0.22740  1.0000 0.1369459193
H   H19       1.0  0.22740  0.22740  0.53260  1.0000 0.1369459193
H   H20       1.0  0.53260  0.01260  0.22740  1.0000 0.1369459193
H   H21       1.0  0.01260  0.22740  0.53260  1.0000 0.1369459193
H   H22       1.0  0.22740  0.53260  0.22740  1.0000 0.1369459193
H   H23       1.0  0.53260  0.22740  0.01260  1.0000 0.1369459193
H   H24       1.0  0.22740  0.01260  0.22740  1.0000 0.1369459193
C   C1        1.0  0.93090  0.47426  0.66394  1.0000 0.5817318607
C   C2        1.0  0.88740  0.46712  0.75808  1.0000 -0.0396549132
C   C3        1.0  0.47426  0.93090  0.93090  1.0000 0.5817318607
C   C4        1.0  0.46712  0.88740  0.88740  1.0000 -0.0396549132
C   C5        1.0  0.66394  0.93090  0.93090  1.0000 0.5817318607
C   C6        1.0  0.75808  0.88740  0.88740  1.0000 -0.0396549132
C   C7        1.0  0.93090  0.66394  0.47426  1.0000 0.5817318607
C   C8        1.0  0.88740  0.75808  0.46712  1.0000 -0.0396549132
C   C9        1.0  0.93090  0.66394  0.93090  1.0000 0.5817318607
C   C10       1.0  0.88740  0.75808  0.88740  1.0000 -0.0396549132
C   C11       1.0  0.47426  0.93090  0.66394  1.0000 0.5817318607
C   C12       1.0  0.46712  0.88740  0.75808  1.0000 -0.0396549132
C   C13       1.0  0.66394  0.93090  0.47426  1.0000 0.5817318607
C   C14       1.0  0.75808  0.88740  0.46712  1.0000 -0.0396549132
C   C15       1.0  0.93090  0.47426  0.93090  1.0000 0.5817318607
C   C16       1.0  0.88740  0.46712  0.88740  1.0000 -0.0396549132
C   C17       1.0  0.93090  0.93090  0.47426  1.0000 0.5817318607
C   C18       1.0  0.88740  0.88740  0.46712  1.0000 -0.0396549132
C   C19       1.0  0.47426  0.66394  0.93090  1.0000 0.5817318607
C   C20       1.0  0.46712  0.75808  0.88740  1.0000 -0.0396549132
C   C21       1.0  0.66394  0.47426  0.93090  1.0000 0.5817318607
C   C22       1.0  0.75808  0.46712  0.88740  1.0000 -0.0396549132
C   C23       1.0  0.93090  0.93090  0.66394  1.0000 0.5817318607
C   C24       1.0  0.88740  0.88740  0.75808  1.0000 -0.0396549132
C   C25       1.0  0.52574  0.06910  0.33606  1.0000 0.5817318607
C   C26       1.0  0.53288  0.11260  0.24192  1.0000 -0.0396549132
C   C27       1.0  0.06910  0.52574  0.06910  1.0000 0.5817318607
C   C28       1.0  0.11260  0.53288  0.11260  1.0000 -0.0396549132
C   C29       1.0  0.06910  0.33606  0.06910  1.0000 0.5817318607
C   C30       1.0  0.11260  0.24192  0.11260  1.0000 -0.0396549132
C   C31       1.0  0.33606  0.06910  0.52574  1.0000 0.5817318607
C   C32       1.0  0.24192  0.11260  0.53288  1.0000 -0.0396549132
C   C33       1.0  0.33606  0.06910  0.06910  1.0000 0.5817318607
C   C34       1.0  0.24192  0.11260  0.11260  1.0000 -0.0396549132
C   C35       1.0  0.06910  0.52574  0.33606  1.0000 0.5817318607
C   C36       1.0  0.11260  0.53288  0.24192  1.0000 -0.0396549132
C   C37       1.0  0.06910  0.33606  0.52574  1.0000 0.5817318607
C   C38       1.0  0.11260  0.24192  0.53288  1.0000 -0.0396549132
C   C39       1.0  0.52574  0.06910  0.06910  1.0000 0.5817318607
C   C40       1.0  0.53288  0.11260  0.11260  1.0000 -0.0396549132
C   C41       1.0  0.06910  0.06910  0.52574  1.0000 0.5817318607
C   C42       1.0  0.11260  0.11260  0.53288  1.0000 -0.0396549132
C   C43       1.0  0.33606  0.52574  0.06910  1.0000 0.5817318607
C   C44       1.0  0.24192  0.53288  0.11260  1.0000 -0.0396549132
C   C45       1.0  0.52574  0.33606  0.06910  1.0000 0.5817318607
C   C46       1.0  0.53288  0.24192  0.11260  1.0000 -0.0396549132
C   C47       1.0  0.06910  0.06910  0.33606  1.0000 0.5817318607
C   C48       1.0  0.11260  0.11260  0.24192  1.0000 -0.0396549132
C   C49       1.0  0.80150  0.46722  0.80150  1.0000 -0.0703684755
C   C50       1.0  0.46722  0.80150  0.92978  1.0000 -0.0703684755
C   C51       1.0  0.80150  0.92978  0.80150  1.0000 -0.0703684755
C   C52       1.0  0.92978  0.80150  0.46722  1.0000 -0.0703684755
C   C53       1.0  0.80150  0.80150  0.92978  1.0000 -0.0703684755
C   C54       1.0  0.46722  0.92978  0.80150  1.0000 -0.0703684755
C   C55       1.0  0.80150  0.80150  0.46722  1.0000 -0.0703684755
C   C56       1.0  0.92978  0.46722  0.80150  1.0000 -0.0703684755
C   C57       1.0  0.80150  0.92978  0.46722  1.0000 -0.0703684755
C   C58       1.0  0.46722  0.80150  0.80150  1.0000 -0.0703684755
C   C59       1.0  0.80150  0.46722  0.92978  1.0000 -0.0703684755
C   C60       1.0  0.92978  0.80150  0.80150  1.0000 -0.0703684755
C   C61       1.0  0.53278  0.19850  0.19850  1.0000 -0.0703684755
C   C62       1.0  0.19850  0.53278  0.07022  1.0000 -0.0703684755
C   C63       1.0  0.07022  0.19850  0.19850  1.0000 -0.0703684755
C   C64       1.0  0.19850  0.07022  0.53278  1.0000 -0.0703684755
C   C65       1.0  0.19850  0.19850  0.07022  1.0000 -0.0703684755
C   C66       1.0  0.07022  0.53278  0.19850  1.0000 -0.0703684755
C   C67       1.0  0.19850  0.19850  0.53278  1.0000 -0.0703684755
C   C68       1.0  0.53278  0.07022  0.19850  1.0000 -0.0703684755
C   C69       1.0  0.07022  0.19850  0.53278  1.0000 -0.0703684755
C   C70       1.0  0.19850  0.53278  0.19850  1.0000 -0.0703684755
C   C71       1.0  0.53278  0.19850  0.07022  1.0000 -0.0703684755
C   C72       1.0  0.19850  0.07022  0.19850  1.0000 -0.0703684755
O   O1        1.0  0.00740  0.47868  0.62646  1.0000 -0.5182791031
O   O2        1.0  0.47868  0.00740  0.88746  1.0000 -0.5182791031
O   O3        1.0  0.62646  0.88746  0.00740  1.0000 -0.5182791031
O   O4        1.0  0.88746  0.62646  0.47868  1.0000 -0.5182791031
O   O5        1.0  0.00740  0.62646  0.88746  1.0000 -0.5182791031
O   O6        1.0  0.47868  0.88746  0.62646  1.0000 -0.5182791031
O   O7        1.0  0.62646  0.00740  0.47868  1.0000 -0.5182791031
O   O8        1.0  0.88746  0.47868  0.00740  1.0000 -0.5182791031
O   O9        1.0  0.00740  0.88746  0.47868  1.0000 -0.5182791031
O   O10       1.0  0.47868  0.62646  0.00740  1.0000 -0.5182791031
O   O11       1.0  0.62646  0.47868  0.88746  1.0000 -0.5182791031
O   O12       1.0  0.88746  0.00740  0.62646  1.0000 -0.5182791031
O   O13       1.0  0.52132  0.99260  0.37354  1.0000 -0.5182791031
O   O14       1.0  0.99260  0.52132  0.11254  1.0000 -0.5182791031
O   O15       1.0  0.11254  0.37354  0.99260  1.0000 -0.5182791031
O   O16       1.0  0.37354  0.11254  0.52132  1.0000 -0.5182791031
O   O17       1.0  0.37354  0.99260  0.11254  1.0000 -0.5182791031
O   O18       1.0  0.11254  0.52132  0.37354  1.0000 -0.5182791031
O   O19       1.0  0.99260  0.37354  0.52132  1.0000 -0.5182791031
O   O20       1.0  0.52132  0.11254  0.99260  1.0000 -0.5182791031
O   O21       1.0  0.11254  0.99260  0.52132  1.0000 -0.5182791031
O   O22       1.0  0.37354  0.52132  0.99260  1.0000 -0.5182791031
O   O23       1.0  0.52132  0.37354  0.11254  1.0000 -0.5182791031
O   O24       1.0  0.99260  0.11254  0.37354  1.0000 -0.5182791031
O   O25       1.0  0.99260  0.52132  0.37354  1.0000 -0.5182791031
O   O26       1.0  0.52132  0.99260  0.11254  1.0000 -0.5182791031
O   O27       1.0  0.37354  0.11254  0.99260  1.0000 -0.5182791031
O   O28       1.0  0.11254  0.37354  0.52132  1.0000 -0.5182791031
O   O29       1.0  0.99260  0.37354  0.11254  1.0000 -0.5182791031
O   O30       1.0  0.52132  0.11254  0.37354  1.0000 -0.5182791031
O   O31       1.0  0.37354  0.99260  0.52132  1.0000 -0.5182791031
O   O32       1.0  0.11254  0.52132  0.99260  1.0000 -0.5182791031
O   O33       1.0  0.99260  0.11254  0.52132  1.0000 -0.5182791031
O   O34       1.0  0.52132  0.37354  0.99260  1.0000 -0.5182791031
O   O35       1.0  0.37354  0.52132  0.11254  1.0000 -0.5182791031
O   O36       1.0  0.11254  0.99260  0.37354  1.0000 -0.5182791031
O   O37       1.0  0.47868  0.00740  0.62646  1.0000 -0.5182791031
O   O38       1.0  0.00740  0.47868  0.88746  1.0000 -0.5182791031
O   O39       1.0  0.88746  0.62646  0.00740  1.0000 -0.5182791031
O   O40       1.0  0.62646  0.88746  0.47868  1.0000 -0.5182791031
O   O41       1.0  0.62646  0.00740  0.88746  1.0000 -0.5182791031
O   O42       1.0  0.88746  0.47868  0.62646  1.0000 -0.5182791031
O   O43       1.0  0.00740  0.62646  0.47868  1.0000 -0.5182791031
O   O44       1.0  0.47868  0.88746  0.00740  1.0000 -0.5182791031
O   O45       1.0  0.88746  0.00740  0.47868  1.0000 -0.5182791031
O   O46       1.0  0.62646  0.47868  0.00740  1.0000 -0.5182791031
O   O47       1.0  0.47868  0.62646  0.88746  1.0000 -0.5182791031
O   O48       1.0  0.00740  0.88746  0.62646  1.0000 -0.5182791031
