# DDEC6 charges by PACMAN v1.1 (https://github.com/mtap-research/PACMAN-charge/)
data_2010[Zn][nan]3[ASR]22
_chemical_formula_sum              "Zn4 H64 C82 N8 O24"
_cell_length_a       13.7391
_cell_length_b       13.7391
_cell_length_c       20.09
_cell_angle_alpha    86.1372
_cell_angle_beta     93.8628
_cell_angle_gamma    39.7432

_symmetry_space_group_name_H-M    "P 1"
_symmetry_Int_Tables_number       1

loop_
  _symmetry_equiv_pos_as_xyz
  'x, y, z'

loop_
  _atom_site_type_symbol
  _atom_site_label
  _atom_site_symmetry_multiplicity
  _atom_site_fract_x
  _atom_site_fract_y
  _atom_site_fract_z
  _atom_site_occupancy
  _atom_site_charge
Zn  Zn1       1.0  0.65877  0.09781  0.01360  1.0000 0.7534584695
Zn  Zn2       1.0  0.09781  0.65877  0.48640  1.0000 0.7534584695
Zn  Zn3       1.0  0.34123  0.90219  0.98640  1.0000 0.7534584695
Zn  Zn4       1.0  0.90219  0.34123  0.51360  1.0000 0.7534584695
H   H1        1.0  0.98100  0.89000  0.06600  1.0000 0.1166673322
H   H2        1.0  0.89000  0.98100  0.43400  1.0000 0.1166673322
H   H3        1.0  0.01900  0.11000  0.93400  1.0000 0.1166673322
H   H4        1.0  0.11000  0.01900  0.56600  1.0000 0.1166673322
H   H5        1.0  0.13560  0.87820  0.12810  1.0000 0.1577171863
H   H6        1.0  0.87820  0.13560  0.37190  1.0000 0.1577171863
H   H7        1.0  0.86440  0.12180  0.87190  1.0000 0.1577171863
H   H8        1.0  0.12180  0.86440  0.62810  1.0000 0.1577171863
H   H9        1.0  0.75670  0.33250  0.13100  1.0000 0.1425556051
H   H10       1.0  0.33250  0.75670  0.36900  1.0000 0.1425556051
H   H11       1.0  0.24330  0.66750  0.86900  1.0000 0.1425556051
H   H12       1.0  0.66750  0.24330  0.63100  1.0000 0.1425556051
H   H13       1.0  0.61120  0.32800  0.07170  1.0000 0.1166673322
H   H14       1.0  0.32800  0.61120  0.42830  1.0000 0.1166673322
H   H15       1.0  0.38880  0.67200  0.92830  1.0000 0.1166673322
H   H16       1.0  0.67200  0.38880  0.57170  1.0000 0.1166673322
H   H17       1.0  0.97230  0.28990  0.16320  1.0000 0.1118991907
H   H18       1.0  0.28990  0.97230  0.33680  1.0000 0.1118991907
H   H19       1.0  0.02770  0.71010  0.83680  1.0000 0.1118991907
H   H20       1.0  0.71010  0.02770  0.66320  1.0000 0.1118991907
H   H21       1.0  0.92100  0.26460  0.22280  1.0000 0.1029126135
H   H22       1.0  0.26460  0.92100  0.27720  1.0000 0.1029126135
H   H23       1.0  0.07900  0.73540  0.77720  1.0000 0.1029126135
H   H24       1.0  0.73540  0.07900  0.72280  1.0000 0.1029126135
H   H25       1.0  0.28900  0.02640  0.18040  1.0000 0.1118991907
H   H26       1.0  0.02640  0.28900  0.31960  1.0000 0.1118991907
H   H27       1.0  0.71100  0.97360  0.81960  1.0000 0.1118991907
H   H28       1.0  0.97360  0.71100  0.68040  1.0000 0.1118991907
H   H29       1.0  0.36750  0.01750  0.24560  1.0000 0.1029126135
H   H30       1.0  0.01750  0.36750  0.25440  1.0000 0.1029126135
H   H31       1.0  0.63250  0.98250  0.75440  1.0000 0.1029126135
H   H32       1.0  0.98250  0.63250  0.74560  1.0000 0.1029126135
H   H33       1.0  0.59680  0.94940  0.06290  1.0000 0.1118991907
H   H34       1.0  0.94940  0.59680  0.43710  1.0000 0.1118991907
H   H35       1.0  0.40320  0.05060  0.93710  1.0000 0.1118991907
H   H36       1.0  0.05060  0.40320  0.56290  1.0000 0.1118991907
H   H37       1.0  0.44440  0.97740  0.12410  1.0000 0.1479897493
H   H38       1.0  0.97740  0.44440  0.37590  1.0000 0.1479897493
H   H39       1.0  0.55560  0.02260  0.87590  1.0000 0.1479897493
H   H40       1.0  0.02260  0.55560  0.62410  1.0000 0.1479897493
H   H41       1.0  0.23050  0.38910  0.14940  1.0000 0.1479897493
H   H42       1.0  0.38910  0.23050  0.35060  1.0000 0.1479897493
H   H43       1.0  0.76950  0.61090  0.85060  1.0000 0.1479897493
H   H44       1.0  0.61090  0.76950  0.64940  1.0000 0.1479897493
H   H45       1.0  0.38140  0.35640  0.08680  1.0000 0.1166673322
H   H46       1.0  0.35640  0.38140  0.41320  1.0000 0.1166673322
H   H47       1.0  0.61860  0.64360  0.91320  1.0000 0.1166673322
H   H48       1.0  0.64360  0.61860  0.58680  1.0000 0.1166673322
H   H49       1.0  0.12450  0.51990  0.94010  1.0000 0.1166673322
H   H50       1.0  0.51990  0.12450  0.55990  1.0000 0.1166673322
H   H51       1.0  0.87550  0.48010  0.05990  1.0000 0.1166673322
H   H52       1.0  0.48010  0.87550  0.44010  1.0000 0.1166673322
H   H53       1.0  0.81050  0.69290  0.05630  1.0000 0.1118991907
H   H54       1.0  0.69290  0.81050  0.44370  1.0000 0.1118991907
H   H55       1.0  0.18950  0.30710  0.94370  1.0000 0.1118991907
H   H56       1.0  0.30710  0.18950  0.55630  1.0000 0.1118991907
H   H57       1.0  0.38600  0.28660  0.80740  1.0000 0.1118991907
H   H58       1.0  0.28660  0.38600  0.69260  1.0000 0.1118991907
H   H59       1.0  0.61400  0.71340  0.19260  1.0000 0.1118991907
H   H60       1.0  0.71340  0.61400  0.30740  1.0000 0.1166673322
H   H61       1.0  0.53280  0.45240  0.80910  1.0000 0.1166673322
H   H62       1.0  0.45240  0.53280  0.69090  1.0000 0.1166673322
H   H63       1.0  0.46720  0.54760  0.19090  1.0000 0.1166673322
H   H64       1.0  0.54760  0.46720  0.30910  1.0000 0.1166673322
C   C1        1.0  0.93549  0.97909  0.08022  1.0000 0.1029126135
C   C2        1.0  0.97909  0.93549  0.41978  1.0000 0.1029126135
C   C3        1.0  0.06451  0.02091  0.91978  1.0000 0.1029126135
C   C4        1.0  0.02091  0.06451  0.58022  1.0000 0.1029126135
C   C5        1.0  0.02916  0.97116  0.11700  1.0000 -0.2607616639
C   C6        1.0  0.97116  0.02916  0.38300  1.0000 -0.2607616639
C   C7        1.0  0.97084  0.02884  0.88300  1.0000 -0.2607616639
C   C8        1.0  0.02884  0.97084  0.61700  1.0000 -0.2607616639
C   C9        1.0  0.96409  0.10249  0.13738  1.0000 0.3149940366
C   C10       1.0  0.10249  0.96409  0.36262  1.0000 0.3149940366
C   C11       1.0  0.03591  0.89751  0.86262  1.0000 0.3149940366
C   C12       1.0  0.89751  0.03591  0.63738  1.0000 0.3149940366
C   C13       1.0  0.80377  0.24097  0.11916  1.0000 -0.2607616639
C   C14       1.0  0.24097  0.80377  0.38084  1.0000 -0.2607616639
C   C15       1.0  0.19623  0.75903  0.88084  1.0000 -0.2607616639
C   C16       1.0  0.75903  0.19623  0.61916  1.0000 -0.2607616639
C   C17       1.0  0.71811  0.23711  0.08311  1.0000 0.1029126135
C   C18       1.0  0.23711  0.71811  0.41689  1.0000 0.1029126135
C   C19       1.0  0.28189  0.76289  0.91689  1.0000 0.1029126135
C   C20       1.0  0.76289  0.28189  0.58311  1.0000 0.1029126135
C   C21       1.0  0.00689  0.21429  0.19996  1.0000 -0.0861034101
C   C22       1.0  0.21429  0.00689  0.30004  1.0000 -0.0861034101
C   C23       1.0  0.99311  0.78571  0.80004  1.0000 -0.0861034101
C   C24       1.0  0.78571  0.99311  0.69996  1.0000 -0.0861034101
C   C25       1.0  0.14496  0.14496  0.25000  1.0000 0.0915297662
C   C26       1.0  0.85504  0.85504  0.75000  1.0000 0.0915297662
C   C27       1.0  0.27153  0.08493  0.21339  1.0000 -0.0847934565
C   C28       1.0  0.08493  0.27153  0.28661  1.0000 -0.0847934565
C   C29       1.0  0.72847  0.91507  0.78661  1.0000 -0.0847934565
C   C30       1.0  0.91507  0.72847  0.71339  1.0000 -0.0847934565
C   C31       1.0  0.52280  0.03900  0.08093  1.0000 0.0915297662
C   C32       1.0  0.03900  0.52280  0.41907  1.0000 0.0915297662
C   C33       1.0  0.47720  0.96100  0.91907  1.0000 0.0915297662
C   C34       1.0  0.96100  0.47720  0.58093  1.0000 0.0915297662
C   C35       1.0  0.43116  0.05496  0.11739  1.0000 -0.2607616639
C   C36       1.0  0.05496  0.43116  0.38261  1.0000 -0.2607616639
C   C37       1.0  0.56884  0.94504  0.88261  1.0000 -0.2607616639
C   C38       1.0  0.94504  0.56884  0.61739  1.0000 -0.2607616639
C   C39       1.0  0.32162  0.18502  0.14327  1.0000 0.2799126202
C   C40       1.0  0.18502  0.32162  0.35673  1.0000 0.2799126202
C   C41       1.0  0.67838  0.81498  0.85673  1.0000 0.2799126202
C   C42       1.0  0.81498  0.67838  0.64327  1.0000 0.2799126202
C   C43       1.0  0.30487  0.29887  0.13178  1.0000 -0.2383521131
C   C44       1.0  0.29887  0.30487  0.36822  1.0000 -0.2383521131
C   C45       1.0  0.69513  0.70113  0.86822  1.0000 -0.2383521131
C   C46       1.0  0.70113  0.69513  0.63178  1.0000 -0.2383521131
C   C47       1.0  0.39665  0.27765  0.09520  1.0000 0.0668398639
C   C48       1.0  0.27765  0.39665  0.40480  1.0000 0.0668398639
C   C49       1.0  0.60335  0.72235  0.90480  1.0000 0.0668398639
C   C50       1.0  0.72235  0.60335  0.59520  1.0000 0.0668398639
C   C51       1.0  0.91415  0.77055  0.99590  1.0000 0.5575763577
C   C52       1.0  0.77055  0.91415  0.50410  1.0000 0.5575763577
C   C53       1.0  0.08585  0.22945  0.00410  1.0000 0.5575763577
C   C54       1.0  0.22945  0.08585  0.49590  1.0000 0.5575763577
C   C55       1.0  0.07440  0.51240  0.96414  1.0000 -0.1181957765
C   C56       1.0  0.51240  0.07440  0.53586  1.0000 -0.1181957765
C   C57       1.0  0.92560  0.48760  0.03586  1.0000 -0.1181957765
C   C58       1.0  0.48760  0.92560  0.46414  1.0000 -0.1181957765
C   C59       1.0  0.95881  0.63001  0.99869  1.0000 -0.0273207343
C   C60       1.0  0.63001  0.95881  0.50131  1.0000 -0.0273207343
C   C61       1.0  0.04119  0.36999  0.00131  1.0000 -0.0273207343
C   C62       1.0  0.36999  0.04119  0.49869  1.0000 -0.0273207343
C   C63       1.0  0.88737  0.61477  0.03350  1.0000 -0.1181957765
C   C64       1.0  0.61477  0.88737  0.46650  1.0000 -0.1181957765
C   C65       1.0  0.11263  0.38523  0.96650  1.0000 -0.1181957765
C   C66       1.0  0.38523  0.11263  0.53350  1.0000 -0.1181957765
C   C67       1.0  0.53306  0.29686  0.89447  1.0000 0.5391434723
C   C68       1.0  0.29686  0.53306  0.60553  1.0000 0.5391434723
C   C69       1.0  0.46694  0.70314  0.10553  1.0000 0.5391434723
C   C70       1.0  0.70314  0.46694  0.39447  1.0000 0.5391434723
C   C71       1.0  0.39622  0.33882  0.78447  1.0000 -0.1363458565
C   C72       1.0  0.33882  0.39622  0.71553  1.0000 -0.1363458565
C   C73       1.0  0.60378  0.66118  0.21553  1.0000 -0.1363458565
C   C74       1.0  0.66118  0.60378  0.28447  1.0000 -0.1363458565
C   C75       1.0  0.46923  0.35903  0.81961  1.0000 -0.021300763
C   C76       1.0  0.35903  0.46923  0.68039  1.0000 -0.021300763
C   C77       1.0  0.53077  0.64097  0.18039  1.0000 -0.021300763
C   C78       1.0  0.64097  0.53077  0.31961  1.0000 -0.021300763
C   C79       1.0  0.48724  0.43584  0.78530  1.0000 -0.1281969255
C   C80       1.0  0.43584  0.48724  0.71470  1.0000 -0.1281969255
C   C81       1.0  0.51276  0.56416  0.21470  1.0000 -0.1281969255
C   C82       1.0  0.56416  0.51276  0.28530  1.0000 -0.1281969255
N   N1        1.0  0.78126  0.10846  0.06355  1.0000 -0.2607616639
N   N2        1.0  0.10846  0.78126  0.43645  1.0000 -0.2607616639
N   N3        1.0  0.21874  0.89154  0.93645  1.0000 -0.2607616639
N   N4        1.0  0.89154  0.21874  0.56355  1.0000 -0.2607616639
N   N5        1.0  0.51185  0.14565  0.06959  1.0000 -0.2693117714
N   N6        1.0  0.14565  0.51185  0.43041  1.0000 -0.2693117714
N   N7        1.0  0.48815  0.85435  0.93041  1.0000 -0.2693117714
N   N8        1.0  0.85435  0.48815  0.56959  1.0000 -0.2693117714
O   O1        1.0  0.06251  0.08571  0.17445  1.0000 -0.1584832711
O   O2        1.0  0.08571  0.06251  0.32555  1.0000 -0.1584832711
O   O3        1.0  0.93749  0.91429  0.82555  1.0000 -0.1584832711
O   O4        1.0  0.91429  0.93749  0.67445  1.0000 -0.1584832711
O   O5        1.0  0.22183  0.21623  0.18004  1.0000 -0.1765122941
O   O6        1.0  0.21623  0.22183  0.31996  1.0000 -0.1765122941
O   O7        1.0  0.77817  0.78377  0.81996  1.0000 -0.1765122941
O   O8        1.0  0.78377  0.77817  0.68004  1.0000 -0.1765122941
O   O9        1.0  0.79432  0.87952  0.02036  1.0000 -0.568103165
O   O10       1.0  0.87952  0.79432  0.47964  1.0000 -0.568103165
O   O11       1.0  0.20568  0.12048  0.97964  1.0000 -0.568103165
O   O12       1.0  0.12048  0.20568  0.52036  1.0000 -0.568103165
O   O13       1.0  0.99204  0.77384  0.97176  1.0000 -0.5388407639
O   O14       1.0  0.77384  0.99204  0.52824  1.0000 -0.5388407639
O   O15       1.0  0.00796  0.22616  0.02824  1.0000 -0.5388407639
O   O16       1.0  0.22616  0.00796  0.47176  1.0000 -0.5388407639
O   O17       1.0  0.55027  0.19727  0.91963  1.0000 -0.5388407639
O   O18       1.0  0.19727  0.55027  0.58037  1.0000 -0.5388407639
O   O19       1.0  0.44973  0.80273  0.08037  1.0000 -0.5388407639
O   O20       1.0  0.80273  0.44973  0.41963  1.0000 -0.5388407639
O   O21       1.0  0.56218  0.34638  0.92832  1.0000 -0.5492033666
O   O22       1.0  0.34638  0.56218  0.57168  1.0000 -0.5492033666
O   O23       1.0  0.43782  0.65362  0.07168  1.0000 -0.5492033666
O   O24       1.0  0.65362  0.43782  0.42832  1.0000 -0.5492033666
