# DDEC6 charges by PACMAN v1.1 (https://github.com/mtap-research/PACMAN-charge/)
data_2010[Zn][nan]3[ASR]12
_chemical_formula_sum              "Zn10 P8 H28 C64 O56"
_cell_length_a       15.6771
_cell_length_b       15.6771
_cell_length_c       15.834
_cell_angle_alpha    75.3754
_cell_angle_beta     104.625
_cell_angle_gamma    131.078

_symmetry_space_group_name_H-M    "P 1"
_symmetry_Int_Tables_number       1

loop_
  _symmetry_equiv_pos_as_xyz
  'x, y, z'

loop_
  _atom_site_type_symbol
  _atom_site_label
  _atom_site_symmetry_multiplicity
  _atom_site_fract_x
  _atom_site_fract_y
  _atom_site_fract_z
  _atom_site_occupancy
  _atom_site_charge
Zn  Zn1       1.0  0.38679  0.38679  0.75000  1.0000 1.1153354753
Zn  Zn2       1.0  0.61321  0.61321  0.25000  1.0000 1.1134982218
Zn  Zn3       1.0  0.31794  0.95416  0.91756  1.0000 1.0281920989
Zn  Zn4       1.0  0.95416  0.31794  0.58244  1.0000 1.0281920989
Zn  Zn5       1.0  0.68206  0.04584  0.08244  1.0000 1.0281920989
Zn  Zn6       1.0  0.04584  0.68206  0.41756  1.0000 1.0281920989
Zn  Zn7       1.0  0.58406  0.19784  0.93225  1.0000 1.0281920989
Zn  Zn8       1.0  0.19784  0.58406  0.56775  1.0000 1.0281920989
Zn  Zn9       1.0  0.41594  0.80216  0.06775  1.0000 1.0281920989
Zn  Zn10      1.0  0.80216  0.41594  0.43225  1.0000 1.0281920989
P   P1        1.0  0.37159  0.18967  0.89085  1.0000 1.3105538596
P   P2        1.0  0.18967  0.37159  0.60915  1.0000 1.3105538596
P   P3        1.0  0.62841  0.81033  0.10915  1.0000 1.3105538596
P   P4        1.0  0.81033  0.62841  0.39085  1.0000 1.3105538596
P   P5        1.0  0.48050  0.02712  0.09752  1.0000 1.2985786308
P   P6        1.0  0.02712  0.48050  0.40248  1.0000 1.2985786308
P   P7        1.0  0.51950  0.97288  0.90248  1.0000 1.2985786308
P   P8        1.0  0.97288  0.51950  0.59752  1.0000 1.2985786308
H   H1        1.0  0.51120  0.37260  0.99070  1.0000 0.1500795763
H   H2        1.0  0.37260  0.51120  0.50930  1.0000 0.1500795763
H   H3        1.0  0.48880  0.62740  0.00930  1.0000 0.1500795763
H   H4        1.0  0.62740  0.48880  0.49070  1.0000 0.1500795763
H   H5        1.0  0.37390  0.26810  0.21110  1.0000 0.1500795763
H   H6        1.0  0.26810  0.37390  0.28890  1.0000 0.1500795763
H   H7        1.0  0.62610  0.73190  0.78890  1.0000 0.1500795763
H   H8        1.0  0.73190  0.62610  0.71110  1.0000 0.1500795763
H   H9        1.0  0.23060  0.05100  0.03530  1.0000 0.1500795763
H   H10       1.0  0.05100  0.23060  0.46470  1.0000 0.1500795763
H   H11       1.0  0.76940  0.94900  0.96470  1.0000 0.1500795763
H   H12       1.0  0.94900  0.76940  0.53530  1.0000 0.1500795763
H   H13       1.0  0.61420  0.18140  0.23210  1.0000 0.1500795763
H   H14       1.0  0.18140  0.61420  0.26790  1.0000 0.1500795763
H   H15       1.0  0.38580  0.81860  0.76790  1.0000 0.1500795763
H   H16       1.0  0.81860  0.38580  0.73210  1.0000 0.1500795763
H   H17       1.0  0.40890  0.02790  0.42010  1.0000 0.1421393712
H   H18       1.0  0.02790  0.40890  0.07990  1.0000 0.1421393712
H   H19       1.0  0.59110  0.97210  0.57990  1.0000 0.1421393712
H   H20       1.0  0.97210  0.59110  0.92010  1.0000 0.1421393712
H   H21       1.0  0.30120  0.88280  0.20210  1.0000 0.1500795763
H   H22       1.0  0.88280  0.30120  0.29790  1.0000 0.1500795763
H   H23       1.0  0.69880  0.11720  0.79790  1.0000 0.1500795763
H   H24       1.0  0.11720  0.69880  0.70210  1.0000 0.1500795763
H   H25       1.0  0.16400  0.03200  0.30200  1.0000 0.396830212
H   H26       1.0  0.03200  0.16400  0.19800  1.0000 0.396830212
H   H27       1.0  0.83600  0.96800  0.69800  1.0000 0.396830212
H   H28       1.0  0.96800  0.83600  0.80200  1.0000 0.396830212
C   C1        1.0  0.36885  0.20815  0.99740  1.0000 -0.1382042732
C   C2        1.0  0.20815  0.36885  0.50260  1.0000 -0.1382042732
C   C3        1.0  0.63115  0.79185  0.00260  1.0000 -0.1382042732
C   C4        1.0  0.79185  0.63115  0.49740  1.0000 -0.1382042732
C   C5        1.0  0.45384  0.31536  0.02590  1.0000 -0.0539793934
C   C6        1.0  0.31536  0.45384  0.47410  1.0000 -0.0539793934
C   C7        1.0  0.54616  0.68464  0.97410  1.0000 -0.0539793934
C   C8        1.0  0.68464  0.54616  0.52590  1.0000 -0.0539793934
C   C9        1.0  0.45556  0.33924  0.10460  1.0000 0.0171174776
C   C10       1.0  0.33924  0.45556  0.39540  1.0000 0.0171174776
C   C11       1.0  0.54444  0.66076  0.89540  1.0000 0.0171174776
C   C12       1.0  0.66076  0.54444  0.60460  1.0000 0.0171174776
C   C13       1.0  0.37300  0.25340  0.15740  1.0000 -0.0796600509
C   C14       1.0  0.25340  0.37300  0.34260  1.0000 -0.0796600509
C   C15       1.0  0.62700  0.74660  0.84260  1.0000 -0.0796600509
C   C16       1.0  0.74660  0.62700  0.65740  1.0000 -0.0796600509
C   C17       1.0  0.28810  0.14530  0.13230  1.0000 -0.0358236361
C   C18       1.0  0.14530  0.28810  0.36770  1.0000 -0.0358236361
C   C19       1.0  0.71190  0.85470  0.86770  1.0000 -0.0358236361
C   C20       1.0  0.85470  0.71190  0.63230  1.0000 -0.0358236361
C   C21       1.0  0.28727  0.12373  0.05220  1.0000 -0.0599344479
C   C22       1.0  0.12373  0.28727  0.44780  1.0000 -0.0599344479
C   C23       1.0  0.71273  0.87627  0.94780  1.0000 -0.0599344479
C   C24       1.0  0.87627  0.71273  0.55220  1.0000 -0.0599344479
C   C25       1.0  0.54720  0.45800  0.13130  1.0000 0.5754132379
C   C26       1.0  0.45800  0.54720  0.36870  1.0000 0.5754132379
C   C27       1.0  0.45280  0.54200  0.86870  1.0000 0.5754132379
C   C28       1.0  0.54200  0.45280  0.63130  1.0000 0.5754132379
C   C29       1.0  0.19820  0.05380  0.18960  1.0000 0.5518330444
C   C30       1.0  0.05380  0.19820  0.31040  1.0000 0.5518330444
C   C31       1.0  0.80180  0.94620  0.81040  1.0000 0.5518330444
C   C32       1.0  0.94620  0.80180  0.68960  1.0000 0.5518330444
C   C33       1.0  0.46068  0.03312  0.20260  1.0000 -0.1382042732
C   C34       1.0  0.03312  0.46068  0.29740  1.0000 -0.1382042732
C   C35       1.0  0.53932  0.96688  0.79740  1.0000 -0.1382042732
C   C36       1.0  0.96688  0.53932  0.70260  1.0000 -0.1382042732
C   C37       1.0  0.54430  0.12110  0.25280  1.0000 -0.0599344479
C   C38       1.0  0.12110  0.54430  0.24720  1.0000 -0.0599344479
C   C39       1.0  0.45570  0.87890  0.74720  1.0000 -0.0599344479
C   C40       1.0  0.87890  0.45570  0.75280  1.0000 -0.0599344479
C   C41       1.0  0.52508  0.12032  0.33400  1.0000 0.0107763569
C   C42       1.0  0.12032  0.52508  0.16600  1.0000 0.0107763569
C   C43       1.0  0.47492  0.87968  0.66600  1.0000 0.0107763569
C   C44       1.0  0.87968  0.47492  0.83400  1.0000 0.0107763569
C   C45       1.0  0.42159  0.02941  0.36520  1.0000 -0.0796600509
C   C46       1.0  0.02941  0.42159  0.13480  1.0000 -0.0796600509
C   C47       1.0  0.57841  0.97059  0.63480  1.0000 -0.0796600509
C   C48       1.0  0.97059  0.57841  0.86520  1.0000 -0.0796600509
C   C49       1.0  0.33695  0.94085  0.31550  1.0000 0.0016042262
C   C50       1.0  0.94085  0.33695  0.18450  1.0000 0.0016042262
C   C51       1.0  0.66305  0.05915  0.68450  1.0000 0.0016042262
C   C52       1.0  0.05915  0.66305  0.81550  1.0000 0.0016042262
C   C53       1.0  0.35747  0.94293  0.23520  1.0000 -0.0725307654
C   C54       1.0  0.94293  0.35747  0.26480  1.0000 -0.0725307654
C   C55       1.0  0.64253  0.05707  0.76480  1.0000 -0.0725307654
C   C56       1.0  0.05707  0.64253  0.73520  1.0000 -0.0725307654
C   C57       1.0  0.61547  0.21713  0.38730  1.0000 0.5640217696
C   C58       1.0  0.21713  0.61547  0.11270  1.0000 0.5640217696
C   C59       1.0  0.38453  0.78287  0.61270  1.0000 0.5640217696
C   C60       1.0  0.78287  0.38453  0.88730  1.0000 0.5640217696
C   C61       1.0  0.22283  0.84217  0.34630  1.0000 0.5640217696
C   C62       1.0  0.84217  0.22283  0.15370  1.0000 0.5640217696
C   C63       1.0  0.77717  0.15783  0.65370  1.0000 0.5640217696
C   C64       1.0  0.15783  0.77717  0.84630  1.0000 0.5640217696
O   O1        1.0  0.32984  0.24696  0.82430  1.0000 -0.6967137347
O   O2        1.0  0.24696  0.32984  0.67570  1.0000 -0.6967137347
O   O3        1.0  0.67016  0.75304  0.17570  1.0000 -0.6967137347
O   O4        1.0  0.75304  0.67016  0.32430  1.0000 -0.6967137347
O   O5        1.0  0.28804  0.06136  0.88240  1.0000 -0.7180230956
O   O6        1.0  0.06136  0.28804  0.61760  1.0000 -0.7180230956
O   O7        1.0  0.71196  0.93864  0.11760  1.0000 -0.7180230956
O   O8        1.0  0.93864  0.71196  0.38240  1.0000 -0.7180230956
O   O9        1.0  0.49407  0.24653  0.88330  1.0000 -0.7180230956
O   O10       1.0  0.24653  0.49407  0.61670  1.0000 -0.7180230956
O   O11       1.0  0.50593  0.75347  0.11670  1.0000 -0.7180230956
O   O12       1.0  0.75347  0.50593  0.38330  1.0000 -0.7180230956
O   O13       1.0  0.63052  0.52928  0.09110  1.0000 -0.4568877074
O   O14       1.0  0.52928  0.63052  0.40890  1.0000 -0.4568877074
O   O15       1.0  0.36948  0.47072  0.90890  1.0000 -0.4568877074
O   O16       1.0  0.47072  0.36948  0.59110  1.0000 -0.4568877074
O   O17       1.0  0.53027  0.47573  0.19580  1.0000 -0.5007462393
O   O18       1.0  0.47573  0.53027  0.30420  1.0000 -0.5007462393
O   O19       1.0  0.46973  0.52427  0.80420  1.0000 -0.5007462393
O   O20       1.0  0.52427  0.46973  0.69580  1.0000 -0.5007462393
O   O21       1.0  0.21464  0.08176  0.26630  1.0000 -0.4194325398
O   O22       1.0  0.08176  0.21464  0.23370  1.0000 -0.4194325398
O   O23       1.0  0.78536  0.91824  0.73370  1.0000 -0.4194325398
O   O24       1.0  0.91824  0.78536  0.76630  1.0000 -0.4194325398
O   O25       1.0  0.11640  0.96260  0.16770  1.0000 -0.4119560014
O   O26       1.0  0.96260  0.11640  0.33230  1.0000 -0.4119560014
O   O27       1.0  0.88360  0.03740  0.83230  1.0000 -0.4119560014
O   O28       1.0  0.03740  0.88360  0.66770  1.0000 -0.4119560014
O   O29       1.0  0.36466  0.96134  0.04499  1.0000 -0.7390328239
O   O30       1.0  0.96134  0.36466  0.45501  1.0000 -0.7390328239
O   O31       1.0  0.63534  0.03866  0.95501  1.0000 -0.7390328239
O   O32       1.0  0.03866  0.63534  0.54499  1.0000 -0.7390328239
O   O33       1.0  0.57010  0.14710  0.05723  1.0000 -0.7390328239
O   O34       1.0  0.14710  0.57010  0.44277  1.0000 -0.7390328239
O   O35       1.0  0.42990  0.85290  0.94277  1.0000 -0.7390328239
O   O36       1.0  0.85290  0.42990  0.55723  1.0000 -0.7390328239
O   O37       1.0  0.52425  0.95915  0.11527  1.0000 -0.7554657351
O   O38       1.0  0.95915  0.52425  0.38473  1.0000 -0.7554657351
O   O39       1.0  0.47575  0.04085  0.88473  1.0000 -0.7554657351
O   O40       1.0  0.04085  0.47575  0.61527  1.0000 -0.7554657351
O   O41       1.0  0.71264  0.29016  0.36100  1.0000 -0.4892565276
O   O42       1.0  0.29016  0.71264  0.13900  1.0000 -0.4892565276
O   O43       1.0  0.28736  0.70984  0.63900  1.0000 -0.4892565276
O   O44       1.0  0.70984  0.28736  0.86100  1.0000 -0.4892565276
O   O45       1.0  0.59426  0.22514  0.45390  1.0000 -0.4568877074
O   O46       1.0  0.22514  0.59426  0.04610  1.0000 -0.4568877074
O   O47       1.0  0.40574  0.77486  0.54610  1.0000 -0.4568877074
O   O48       1.0  0.77486  0.40574  0.95390  1.0000 -0.4568877074
O   O49       1.0  0.20537  0.83723  0.42200  1.0000 -0.5007462393
O   O50       1.0  0.83723  0.20537  0.07800  1.0000 -0.5007462393
O   O51       1.0  0.79463  0.16277  0.57800  1.0000 -0.5007462393
O   O52       1.0  0.16277  0.79463  0.92200  1.0000 -0.5007462393
O   O53       1.0  0.14579  0.76701  0.29860  1.0000 -0.4767448496
O   O54       1.0  0.76701  0.14579  0.20140  1.0000 -0.4767448496
O   O55       1.0  0.85421  0.23299  0.70140  1.0000 -0.4767448496
O   O56       1.0  0.23299  0.85421  0.79860  1.0000 -0.4767448496
