# DDEC6 charges by PACMAN v1.1 (https://github.com/mtap-research/PACMAN-charge/)
data_2010[Co][nan]3[ASR]6
_chemical_formula_sum              "Co12 H36 C108 O72"
_cell_length_a       18.0309
_cell_length_b       14.278
_cell_length_c       26.7482
_cell_angle_alpha    90
_cell_angle_beta     130.962
_cell_angle_gamma    90

_symmetry_space_group_name_H-M    "P 1"
_symmetry_Int_Tables_number       1

loop_
  _symmetry_equiv_pos_as_xyz
  'x, y, z'

loop_
  _atom_site_type_symbol
  _atom_site_label
  _atom_site_symmetry_multiplicity
  _atom_site_fract_x
  _atom_site_fract_y
  _atom_site_fract_z
  _atom_site_occupancy
  _atom_site_charge
Co  Co1       1.0  0.32165  0.05327  0.07512  1.0000 1.1165354592
Co  Co2       1.0  0.67835  0.55327  0.42488  1.0000 1.1165354592
Co  Co3       1.0  0.67835  0.94673  0.92488  1.0000 1.1141568166
Co  Co4       1.0  0.32165  0.44673  0.57512  1.0000 1.1141568166
Co  Co5       1.0  0.14386  0.20241  0.94236  1.0000 1.0622400087
Co  Co6       1.0  0.85614  0.70241  0.55764  1.0000 1.0622400087
Co  Co7       1.0  0.85614  0.79759  0.05764  1.0000 1.0622400087
Co  Co8       1.0  0.14386  0.29759  0.44236  1.0000 1.0622400087
Co  Co9       1.0  0.61475  0.18049  0.90811  1.0000 1.0935791475
Co  Co10      1.0  0.38525  0.68049  0.59189  1.0000 1.0935791475
Co  Co11      1.0  0.38525  0.81951  0.09189  1.0000 1.0935791475
Co  Co12      1.0  0.61475  0.31951  0.40811  1.0000 1.0935791475
H   H1        1.0  0.37750  0.13230  0.90690  1.0000 0.1480061491
H   H2        1.0  0.62250  0.63230  0.59310  1.0000 0.1480061491
H   H3        1.0  0.62250  0.86770  0.09310  1.0000 0.1480061491
H   H4        1.0  0.37750  0.36770  0.40690  1.0000 0.1480061491
H   H5        1.0  0.11880  0.98070  0.92950  1.0000 0.1334148817
H   H6        1.0  0.88120  0.48070  0.57050  1.0000 0.1334148817
H   H7        1.0  0.88120  0.01930  0.07050  1.0000 0.1334148817
H   H8        1.0  0.11880  0.51930  0.42950  1.0000 0.1334148817
H   H9        1.0  0.84830  0.99270  0.87370  1.0000 0.1416862589
H   H10       1.0  0.15170  0.49270  0.62630  1.0000 0.1416862589
H   H11       1.0  0.15170  0.00730  0.12630  1.0000 0.1416862589
H   H12       1.0  0.84830  0.50730  0.37370  1.0000 0.1416862589
H   H13       1.0  0.05240  0.82000  0.02120  1.0000 0.1480061491
H   H14       1.0  0.94760  0.32000  0.47880  1.0000 0.1480061491
H   H15       1.0  0.94760  0.18000  0.97880  1.0000 0.1480061491
H   H16       1.0  0.05240  0.68000  0.52120  1.0000 0.1480061491
H   H17       1.0  0.50420  0.57550  0.21280  1.0000 0.1416862589
H   H18       1.0  0.49580  0.07550  0.28720  1.0000 0.1416862589
H   H19       1.0  0.49580  0.42450  0.78720  1.0000 0.1416862589
H   H20       1.0  0.50420  0.92450  0.71280  1.0000 0.1416862589
H   H21       1.0  0.32400  0.44160  0.03710  1.0000 0.1416862589
H   H22       1.0  0.67600  0.94160  0.46290  1.0000 0.1416862589
H   H23       1.0  0.67600  0.55840  0.96290  1.0000 0.1416862589
H   H24       1.0  0.32400  0.05840  0.53710  1.0000 0.1416862589
H   H25       1.0  0.46520  0.29530  0.20680  1.0000 0.1416862589
H   H26       1.0  0.53480  0.79530  0.29320  1.0000 0.1416862589
H   H27       1.0  0.53480  0.70470  0.79320  1.0000 0.1416862589
H   H28       1.0  0.46520  0.20470  0.70680  1.0000 0.1416862589
H   H29       1.0  0.46440  0.86680  0.92730  1.0000 0.1416862589
H   H30       1.0  0.53560  0.36680  0.57270  1.0000 0.1416862589
H   H31       1.0  0.53560  0.13320  0.07270  1.0000 0.1416862589
H   H32       1.0  0.46440  0.63320  0.42730  1.0000 0.1416862589
H   H33       1.0  0.27110  0.92830  0.95080  1.0000 0.1334148817
H   H34       1.0  0.72890  0.42830  0.54920  1.0000 0.1334148817
H   H35       1.0  0.72890  0.07170  0.04920  1.0000 0.1334148817
H   H36       1.0  0.27110  0.57170  0.45080  1.0000 0.1334148817
C   C1        1.0  0.33340  0.26730  0.07690  1.0000 0.6155814391
C   C2        1.0  0.66667  0.76730  0.42310  1.0000 0.6155814391
C   C3        1.0  0.66667  0.73270  0.92310  1.0000 0.6155814391
C   C4        1.0  0.33340  0.23270  0.57690  1.0000 0.6155814391
C   C5        1.0  0.25660  0.11200  0.93340  1.0000 0.5842132312
C   C6        1.0  0.74340  0.61200  0.56660  1.0000 0.5842132312
C   C7        1.0  0.74340  0.88800  0.06660  1.0000 0.5842132312
C   C8        1.0  0.25660  0.38800  0.43340  1.0000 0.5842132312
C   C9        1.0  0.31400  0.04090  0.92900  1.0000 0.001277517
C   C10       1.0  0.68600  0.54090  0.57100  1.0000 0.001277517
C   C11       1.0  0.68600  0.95910  0.07100  1.0000 0.001277517
C   C12       1.0  0.31400  0.45910  0.42900  1.0000 0.001277517
C   C13       1.0  0.37380  0.06910  0.91490  1.0000 -0.098595846
C   C14       1.0  0.62620  0.56910  0.58510  1.0000 -0.098595846
C   C15       1.0  0.62620  0.93090  0.08510  1.0000 -0.098595846
C   C16       1.0  0.37380  0.43090  0.41490  1.0000 -0.098595846
C   C17       1.0  0.42960  0.00340  0.91440  1.0000 -0.0294552732
C   C18       1.0  0.57040  0.50340  0.58560  1.0000 -0.0294552732
C   C19       1.0  0.57040  0.99660  0.08560  1.0000 -0.0294552732
C   C20       1.0  0.42960  0.49660  0.41440  1.0000 -0.0294552732
C   C21       1.0  0.50440  0.03300  0.90890  1.0000 0.5972101655
C   C22       1.0  0.49560  0.53300  0.59110  1.0000 0.5972101655
C   C23       1.0  0.49560  0.96700  0.09110  1.0000 0.5972101655
C   C24       1.0  0.50440  0.46700  0.40890  1.0000 0.5972101655
C   C25       1.0  0.20340  0.85740  0.02700  1.0000 0.5735593082
C   C26       1.0  0.79660  0.35740  0.47300  1.0000 0.5735593082
C   C27       1.0  0.79660  0.14260  0.97300  1.0000 0.5735593082
C   C28       1.0  0.20340  0.64260  0.52700  1.0000 0.5735593082
C   C29       1.0  0.09950  0.89280  0.98100  1.0000 0.0261654709
C   C30       1.0  0.90050  0.39280  0.51900  1.0000 0.0261654709
C   C31       1.0  0.90050  0.10720  0.01900  1.0000 0.0248994552
C   C32       1.0  0.09950  0.60720  0.48100  1.0000 0.0261654709
C   C33       1.0  0.07290  0.96130  0.93370  1.0000 -0.1128711547
C   C34       1.0  0.92710  0.46130  0.56630  1.0000 -0.1128711547
C   C35       1.0  0.92710  0.03870  0.06630  1.0000 -0.1128711547
C   C36       1.0  0.07290  0.53870  0.43370  1.0000 -0.1128711547
C   C37       1.0  0.97950  0.99760  0.89370  1.0000 -0.0028181344
C   C38       1.0  0.02050  0.49760  0.60630  1.0000 -0.0028181344
C   C39       1.0  0.02050  0.00240  0.10630  1.0000 -0.0028181344
C   C40       1.0  0.97950  0.50240  0.39370  1.0000 -0.0028181344
C   C41       1.0  0.91300  0.96900  0.90160  1.0000 -0.098595846
C   C42       1.0  0.08700  0.46900  0.59840  1.0000 -0.098595846
C   C43       1.0  0.08700  0.03100  0.09840  1.0000 -0.098595846
C   C44       1.0  0.91300  0.53100  0.40160  1.0000 -0.098595846
C   C45       1.0  0.94180  0.90310  0.95040  1.0000 -0.0198961506
C   C46       1.0  0.05820  0.40310  0.54960  1.0000 -0.0198961506
C   C47       1.0  0.05820  0.09690  0.04960  1.0000 -0.0198961506
C   C48       1.0  0.94180  0.59690  0.45040  1.0000 -0.0198961506
C   C49       1.0  0.03380  0.86410  0.98920  1.0000 -0.1128711547
C   C50       1.0  0.96620  0.36410  0.51080  1.0000 -0.1128711547
C   C51       1.0  0.96620  0.13590  0.01080  1.0000 -0.1128711547
C   C52       1.0  0.03380  0.63590  0.48920  1.0000 -0.1128711547
C   C53       1.0  0.87420  0.88090  0.96370  1.0000 0.6138152224
C   C54       1.0  0.12580  0.38090  0.53630  1.0000 0.6138152224
C   C55       1.0  0.12580  0.11910  0.03630  1.0000 0.6155814391
C   C56       1.0  0.87420  0.61910  0.46370  1.0000 0.6138152224
C   C57       1.0  0.95300  0.07460  0.84470  1.0000 0.5735593082
C   C58       1.0  0.04700  0.57460  0.65530  1.0000 0.5735593082
C   C59       1.0  0.04700  0.92540  0.15530  1.0000 0.5735593082
C   C60       1.0  0.95300  0.42540  0.34470  1.0000 0.5735593082
C   C61       1.0  0.55740  0.43540  0.29440  1.0000 0.5972101655
C   C62       1.0  0.44260  0.93540  0.20560  1.0000 0.5972101655
C   C63       1.0  0.44260  0.56460  0.70560  1.0000 0.5972101655
C   C64       1.0  0.55740  0.06460  0.79440  1.0000 0.5972101655
C   C65       1.0  0.49320  0.43630  0.22150  1.0000 -0.0294552732
C   C66       1.0  0.50680  0.93630  0.27850  1.0000 -0.0294552732
C   C67       1.0  0.50680  0.56370  0.77850  1.0000 -0.0294552732
C   C68       1.0  0.49320  0.06370  0.72150  1.0000 -0.0294552732
C   C69       1.0  0.47410  0.52080  0.18830  1.0000 -0.0874293765
C   C70       1.0  0.52590  0.02080  0.31170  1.0000 -0.0874293765
C   C71       1.0  0.52590  0.47920  0.81170  1.0000 -0.0874293765
C   C72       1.0  0.47410  0.97920  0.68830  1.0000 -0.0874293765
C   C73       1.0  0.41130  0.52170  0.12050  1.0000 -0.0079284353
C   C74       1.0  0.58870  0.02170  0.37950  1.0000 -0.0079284353
C   C75       1.0  0.58870  0.47830  0.87950  1.0000 -0.0079284353
C   C76       1.0  0.41130  0.97830  0.62050  1.0000 -0.0079284353
C   C77       1.0  0.36640  0.43910  0.08350  1.0000 -0.0746050864
C   C78       1.0  0.63360  0.93910  0.41650  1.0000 -0.0746050864
C   C79       1.0  0.63360  0.56090  0.91650  1.0000 -0.0746050864
C   C80       1.0  0.36640  0.06090  0.58350  1.0000 -0.0746050864
C   C81       1.0  0.38450  0.35600  0.11600  1.0000 -0.0198961506
C   C82       1.0  0.61550  0.85600  0.38400  1.0000 -0.0198961506
C   C83       1.0  0.61550  0.64400  0.88400  1.0000 -0.0198961506
C   C84       1.0  0.38450  0.14400  0.61600  1.0000 -0.0198961506
C   C85       1.0  0.45000  0.35320  0.18520  1.0000 -0.0746050864
C   C86       1.0  0.55000  0.85320  0.31480  1.0000 -0.0746050864
C   C87       1.0  0.55000  0.64680  0.81480  1.0000 -0.0746050864
C   C88       1.0  0.45000  0.14680  0.68520  1.0000 -0.0746050864
C   C89       1.0  0.39120  0.61130  0.08300  1.0000 0.5735593082
C   C90       1.0  0.60880  0.11130  0.41700  1.0000 0.5735593082
C   C91       1.0  0.60880  0.38870  0.91700  1.0000 0.5735593082
C   C92       1.0  0.39120  0.88870  0.58300  1.0000 0.5735593082
C   C93       1.0  0.42470  0.91000  0.92640  1.0000 -0.0874293765
C   C94       1.0  0.57530  0.41000  0.57360  1.0000 -0.0874293765
C   C95       1.0  0.57530  0.09000  0.07360  1.0000 -0.0874293765
C   C96       1.0  0.42470  0.59000  0.42640  1.0000 -0.0874293765
C   C97       1.0  0.36490  0.88070  0.93900  1.0000 -0.0198961506
C   C98       1.0  0.63510  0.38070  0.56100  1.0000 -0.0198961506
C   C99       1.0  0.63510  0.11930  0.06100  1.0000 -0.0198961506
C   C100      1.0  0.36490  0.61930  0.43900  1.0000 -0.0198961506
C   C101      1.0  0.31050  0.94760  0.94110  1.0000 -0.0874293765
C   C102      1.0  0.68950  0.44760  0.55890  1.0000 -0.0874293765
C   C103      1.0  0.68950  0.05240  0.05890  1.0000 -0.0874293765
C   C104      1.0  0.31050  0.55240  0.44110  1.0000 -0.0874293765
C   C105      1.0  0.36620  0.78090  0.95540  1.0000 0.5510838967
C   C106      1.0  0.63380  0.28090  0.54460  1.0000 0.5510838967
C   C107      1.0  0.63380  0.21910  0.04460  1.0000 0.5510838967
C   C108      1.0  0.36620  0.71910  0.45540  1.0000 0.5510838967
O   O1        1.0  0.36790  0.19060  0.10630  1.0000 -0.49712735
O   O2        1.0  0.63210  0.69060  0.39370  1.0000 -0.49712735
O   O3        1.0  0.63210  0.80940  0.89370  1.0000 -0.49712735
O   O4        1.0  0.36790  0.30940  0.60630  1.0000 -0.49712735
O   O5        1.0  0.26030  0.28100  0.01650  1.0000 -0.5499933544
O   O6        1.0  0.73970  0.78100  0.48350  1.0000 -0.5499933544
O   O7        1.0  0.73970  0.71900  0.98350  1.0000 -0.5499933544
O   O8        1.0  0.26030  0.21900  0.51650  1.0000 -0.5499933544
O   O9        1.0  0.23980  0.09080  0.97210  1.0000 -0.6101263571
O   O10       1.0  0.76020  0.59080  0.52790  1.0000 -0.6101263571
O   O11       1.0  0.76020  0.90920  0.02790  1.0000 -0.6101263571
O   O12       1.0  0.23980  0.40920  0.47210  1.0000 -0.6101263571
O   O13       1.0  0.21990  0.18260  0.89800  1.0000 -0.4309862165
O   O14       1.0  0.78010  0.68260  0.60200  1.0000 -0.4309862165
O   O15       1.0  0.78010  0.81740  0.10200  1.0000 -0.4309862165
O   O16       1.0  0.21990  0.31740  0.39800  1.0000 -0.4309862165
O   O17       1.0  0.55420  0.97110  0.91210  1.0000 -0.5160520482
O   O18       1.0  0.44580  0.47110  0.58790  1.0000 -0.5160520482
O   O19       1.0  0.44580  0.02890  0.08790  1.0000 -0.5160520482
O   O20       1.0  0.55420  0.52890  0.41210  1.0000 -0.5160520482
O   O21       1.0  0.50890  0.12110  0.90170  1.0000 -0.5160520482
O   O22       1.0  0.49110  0.62110  0.59830  1.0000 -0.5160520482
O   O23       1.0  0.49110  0.87890  0.09830  1.0000 -0.5160520482
O   O24       1.0  0.50890  0.37890  0.40170  1.0000 -0.5160520482
O   O25       1.0  0.27040  0.91060  0.03650  1.0000 -0.6010390777
O   O26       1.0  0.72960  0.41060  0.46350  1.0000 -0.6010390777
O   O27       1.0  0.72960  0.08940  0.96350  1.0000 -0.6010390777
O   O28       1.0  0.27040  0.58940  0.53650  1.0000 -0.6010390777
O   O29       1.0  0.22600  0.77870  0.05250  1.0000 -0.42314681
O   O30       1.0  0.77400  0.27870  0.44750  1.0000 -0.4309862165
O   O31       1.0  0.77400  0.22130  0.94750  1.0000 -0.4309862165
O   O32       1.0  0.22600  0.72130  0.55250  1.0000 -0.42314681
O   O33       1.0  0.90510  0.82310  0.00850  1.0000 -0.5404670346
O   O34       1.0  0.09490  0.32310  0.49150  1.0000 -0.5404670346
O   O35       1.0  0.09490  0.17690  0.99150  1.0000 -0.5404670346
O   O36       1.0  0.90510  0.67690  0.50850  1.0000 -0.5404670346
O   O37       1.0  0.79370  0.92670  0.93040  1.0000 -0.5575330514
O   O38       1.0  0.20630  0.42670  0.56960  1.0000 -0.5575330514
O   O39       1.0  0.20630  0.07330  0.06960  1.0000 -0.5575330514
O   O40       1.0  0.79370  0.57330  0.43040  1.0000 -0.5575330514
O   O41       1.0  0.02610  0.12310  0.85890  1.0000 -0.5499933544
O   O42       1.0  0.97390  0.62310  0.64110  1.0000 -0.5499933544
O   O43       1.0  0.97390  0.87690  0.14110  1.0000 -0.5499933544
O   O44       1.0  0.02610  0.37690  0.35890  1.0000 -0.5499933544
O   O45       1.0  0.86780  0.08430  0.79520  1.0000 -0.3919722694
O   O46       1.0  0.13220  0.58430  0.70480  1.0000 -0.3919722694
O   O47       1.0  0.13220  0.91570  0.20480  1.0000 -0.3919722694
O   O48       1.0  0.86780  0.41570  0.29520  1.0000 -0.3919722694
O   O49       1.0  0.56830  0.35590  0.31950  1.0000 -0.5160520482
O   O50       1.0  0.43170  0.85590  0.18050  1.0000 -0.5160520482
O   O51       1.0  0.43170  0.64410  0.68050  1.0000 -0.5160520482
O   O52       1.0  0.56830  0.14410  0.81950  1.0000 -0.5160520482
O   O53       1.0  0.59740  0.50960  0.32630  1.0000 -0.4897129792
O   O54       1.0  0.40260  0.00960  0.17370  1.0000 -0.4897129792
O   O55       1.0  0.40260  0.49040  0.67370  1.0000 -0.4897129792
O   O56       1.0  0.59740  0.99040  0.82630  1.0000 -0.4897129792
O   O57       1.0  0.42550  0.68520  0.11660  1.0000 -0.4639225486
O   O58       1.0  0.57450  0.18520  0.38340  1.0000 -0.4639225486
O   O59       1.0  0.57450  0.31480  0.88340  1.0000 -0.4639225486
O   O60       1.0  0.42550  0.81480  0.61660  1.0000 -0.4639225486
O   O61       1.0  0.33900  0.60690  0.02130  1.0000 -0.3481574315
O   O62       1.0  0.66100  0.10690  0.47870  1.0000 -0.3481574315
O   O63       1.0  0.66100  0.39310  0.97870  1.0000 -0.3481574315
O   O64       1.0  0.33900  0.89310  0.52130  1.0000 -0.3481574315
O   O65       1.0  0.32220  0.76620  0.97980  1.0000 -0.4806757006
O   O66       1.0  0.67780  0.26620  0.52020  1.0000 -0.4806757006
O   O67       1.0  0.67780  0.23380  0.02020  1.0000 -0.4806757006
O   O68       1.0  0.32220  0.73380  0.47980  1.0000 -0.4806757006
O   O69       1.0  0.40040  0.71950  0.94440  1.0000 -0.399091478
O   O70       1.0  0.59960  0.21950  0.55560  1.0000 -0.399091478
O   O71       1.0  0.59960  0.28050  0.05560  1.0000 -0.399091478
O   O72       1.0  0.40040  0.78050  0.44440  1.0000 -0.399091478
