# DDEC6 charges by PACMAN v1.1 (https://github.com/mtap-research/PACMAN-charge/)
data_2010[Zn][nan]3[ASR]15
_chemical_formula_sum              "Zn4 H16 C48 N4 O12 F16"
_cell_length_a       26.376
_cell_length_b       8.984
_cell_length_c       6.3964
_cell_angle_alpha    90
_cell_angle_beta     90
_cell_angle_gamma    90

_symmetry_space_group_name_H-M    "P 1"
_symmetry_Int_Tables_number       1

loop_
  _symmetry_equiv_pos_as_xyz
  'x, y, z'

loop_
  _atom_site_type_symbol
  _atom_site_label
  _atom_site_symmetry_multiplicity
  _atom_site_fract_x
  _atom_site_fract_y
  _atom_site_fract_z
  _atom_site_occupancy
  _atom_site_charge
Zn  Zn1       1.0  0.28578  0.00000  0.00000  1.0000 0.9064046628
Zn  Zn2       1.0  0.71422  0.00000  0.00000  1.0000 0.9064046628
Zn  Zn3       1.0  0.21422  0.00000  0.50000  1.0000 0.9064046628
Zn  Zn4       1.0  0.78578  0.00000  0.50000  1.0000 0.9064046628
H   H1        1.0  0.37014  0.13266  0.27051  1.0000 0.1018617726
H   H2        1.0  0.62986  0.86734  0.72949  1.0000 0.1018617726
H   H3        1.0  0.12986  0.86734  0.77051  1.0000 0.1018617726
H   H4        1.0  0.87014  0.13266  0.22949  1.0000 0.1018617726
H   H5        1.0  0.12986  0.13266  0.22949  1.0000 0.1018617726
H   H6        1.0  0.87014  0.86734  0.77051  1.0000 0.1018617726
H   H7        1.0  0.37014  0.86734  0.72949  1.0000 0.1018617726
H   H8        1.0  0.62986  0.13266  0.27051  1.0000 0.1018617726
H   H9        1.0  0.46321  0.13808  0.27854  1.0000 0.1128037771
H   H10       1.0  0.53679  0.86192  0.72146  1.0000 0.1128037771
H   H11       1.0  0.03679  0.86192  0.77854  1.0000 0.1128037771
H   H12       1.0  0.96321  0.13808  0.22146  1.0000 0.1128037771
H   H13       1.0  0.03679  0.13808  0.22146  1.0000 0.1128037771
H   H14       1.0  0.96321  0.86192  0.77854  1.0000 0.1128037771
H   H15       1.0  0.46321  0.86192  0.72146  1.0000 0.1128037771
H   H16       1.0  0.53679  0.13808  0.27854  1.0000 0.1128037771
C   C1        1.0  0.25000  0.25776  0.25000  1.0000 0.6340868957
C   C2        1.0  0.75000  0.74224  0.75000  1.0000 0.6340868957
C   C3        1.0  0.25000  0.74224  0.75000  1.0000 0.6340868957
C   C4        1.0  0.75000  0.25776  0.25000  1.0000 0.6340868957
C   C5        1.0  0.25000  0.42395  0.25000  1.0000 -0.2712188178
C   C6        1.0  0.75000  0.57605  0.75000  1.0000 -0.2712188178
C   C7        1.0  0.25000  0.57605  0.75000  1.0000 -0.2712188178
C   C8        1.0  0.75000  0.42395  0.25000  1.0000 -0.2712188178
C   C9        1.0  0.20489  0.50702  0.24505  1.0000 0.1798731721
C   C10       1.0  0.79511  0.49298  0.75495  1.0000 0.1798731721
C   C11       1.0  0.29511  0.49298  0.74505  1.0000 0.1798731721
C   C12       1.0  0.70489  0.50702  0.25495  1.0000 0.1798731721
C   C13       1.0  0.29511  0.50702  0.25495  1.0000 0.1798731721
C   C14       1.0  0.70489  0.49298  0.74505  1.0000 0.1798731721
C   C15       1.0  0.20489  0.49298  0.75495  1.0000 0.1798731721
C   C16       1.0  0.79511  0.50702  0.24505  1.0000 0.1798731721
C   C17       1.0  0.20488  0.66179  0.23999  1.0000 0.0618222951
C   C18       1.0  0.79512  0.33821  0.76001  1.0000 0.0618222951
C   C19       1.0  0.29512  0.33821  0.73999  1.0000 0.0618222951
C   C20       1.0  0.70488  0.66179  0.26001  1.0000 0.0618222951
C   C21       1.0  0.29512  0.66179  0.26001  1.0000 0.0618222951
C   C22       1.0  0.70488  0.33821  0.73999  1.0000 0.0618222951
C   C23       1.0  0.20488  0.33821  0.76001  1.0000 0.0618222951
C   C24       1.0  0.79512  0.66179  0.23999  1.0000 0.0618222951
C   C25       1.0  0.25000  0.74553  0.25000  1.0000 0.1712290383
C   C26       1.0  0.75000  0.25447  0.75000  1.0000 0.1712290383
C   C27       1.0  0.25000  0.25447  0.75000  1.0000 0.1712290383
C   C28       1.0  0.75000  0.74553  0.25000  1.0000 0.1712290383
C   C29       1.0  0.39148  0.07305  0.15013  1.0000 0.1128037771
C   C30       1.0  0.60852  0.92695  0.84987  1.0000 0.1128037771
C   C31       1.0  0.10852  0.92695  0.65013  1.0000 0.1128037771
C   C32       1.0  0.89148  0.07305  0.34987  1.0000 0.1128037771
C   C33       1.0  0.10852  0.07305  0.34987  1.0000 0.1128037771
C   C34       1.0  0.89148  0.92695  0.65013  1.0000 0.1128037771
C   C35       1.0  0.39148  0.92695  0.84987  1.0000 0.1128037771
C   C36       1.0  0.60852  0.07305  0.15013  1.0000 0.1128037771
C   C37       1.0  0.44419  0.07585  0.15422  1.0000 -0.1748055481
C   C38       1.0  0.55581  0.92415  0.84578  1.0000 -0.1748055481
C   C39       1.0  0.05581  0.92415  0.65422  1.0000 -0.1748055481
C   C40       1.0  0.94419  0.07585  0.34578  1.0000 -0.1748055481
C   C41       1.0  0.05581  0.07585  0.34578  1.0000 -0.1748055481
C   C42       1.0  0.94419  0.92415  0.65422  1.0000 -0.1748055481
C   C43       1.0  0.44419  0.92415  0.84578  1.0000 -0.1748055481
C   C44       1.0  0.55581  0.07585  0.15422  1.0000 -0.1748055481
C   C45       1.0  0.47206  0.00000  0.00000  1.0000 0.0946534313
C   C46       1.0  0.52794  0.00000  0.00000  1.0000 0.1018617726
C   C47       1.0  0.02794  0.00000  0.50000  1.0000 0.1018617726
C   C48       1.0  0.97206  0.00000  0.50000  1.0000 0.0946534313
N   N1        1.0  0.36510  0.00000  0.00000  1.0000 -0.2378412001
N   N2        1.0  0.63490  0.00000  0.00000  1.0000 -0.2378412001
N   N3        1.0  0.13490  0.00000  0.50000  1.0000 -0.2378412001
N   N4        1.0  0.86510  0.00000  0.50000  1.0000 -0.2378412001
O   O1        1.0  0.28750  0.19363  0.16227  1.0000 -0.5582866185
O   O2        1.0  0.71250  0.80637  0.83773  1.0000 -0.5582866185
O   O3        1.0  0.21250  0.80637  0.66227  1.0000 -0.5582866185
O   O4        1.0  0.78750  0.19363  0.33773  1.0000 -0.5582866185
O   O5        1.0  0.21250  0.19363  0.33773  1.0000 -0.5582866185
O   O6        1.0  0.78750  0.80637  0.66227  1.0000 -0.5582866185
O   O7        1.0  0.28750  0.80637  0.83773  1.0000 -0.5582866185
O   O8        1.0  0.71250  0.19363  0.16227  1.0000 -0.5582866185
O   O9        1.0  0.25000  0.89518  0.25000  1.0000 -0.5398635232
O   O10       1.0  0.75000  0.10482  0.75000  1.0000 -0.5398635232
O   O11       1.0  0.25000  0.10482  0.75000  1.0000 -0.5398635232
O   O12       1.0  0.75000  0.89518  0.25000  1.0000 -0.5398635232
F   F1        1.0  0.15891  0.43796  0.23535  1.0000 -0.1082999781
F   F2        1.0  0.84109  0.56204  0.76465  1.0000 -0.1082999781
F   F3        1.0  0.34109  0.56204  0.73535  1.0000 -0.1082999781
F   F4        1.0  0.65891  0.43796  0.26465  1.0000 -0.1082999781
F   F5        1.0  0.34109  0.43796  0.26465  1.0000 -0.1082999781
F   F6        1.0  0.65891  0.56204  0.73535  1.0000 -0.1082999781
F   F7        1.0  0.15891  0.56204  0.76465  1.0000 -0.1082999781
F   F8        1.0  0.84109  0.43796  0.23535  1.0000 -0.1082999781
F   F9        1.0  0.15962  0.73490  0.22754  1.0000 -0.1082999781
F   F10       1.0  0.84038  0.26510  0.77246  1.0000 -0.1082999781
F   F11       1.0  0.34038  0.26510  0.72754  1.0000 -0.1082999781
F   F12       1.0  0.65962  0.73490  0.27246  1.0000 -0.1082999781
F   F13       1.0  0.34038  0.73490  0.27246  1.0000 -0.1082999781
F   F14       1.0  0.65962  0.26510  0.72754  1.0000 -0.1082999781
F   F15       1.0  0.15962  0.26510  0.77246  1.0000 -0.1082999781
F   F16       1.0  0.84038  0.73490  0.22754  1.0000 -0.1082999781
