# DDEC6 charges by PACMAN v1.1 (https://github.com/mtap-research/PACMAN-charge/)
data_2010[Cu][wbl]3[ASR]1
_chemical_formula_sum              "Cu8 H104 C144 O40"
_cell_length_a       32.5729
_cell_length_b       32.5729
_cell_length_c       32.5729
_cell_angle_alpha    141.614
_cell_angle_beta     141.614
_cell_angle_gamma    55.411

_symmetry_space_group_name_H-M    "P 1"
_symmetry_Int_Tables_number       1

loop_
  _symmetry_equiv_pos_as_xyz
  'x, y, z'

loop_
  _atom_site_type_symbol
  _atom_site_label
  _atom_site_symmetry_multiplicity
  _atom_site_fract_x
  _atom_site_fract_y
  _atom_site_fract_z
  _atom_site_occupancy
  _atom_site_charge
Cu  Cu1       1.0  0.15831  0.57302  0.51375  1.0000 0.8536569811
Cu  Cu2       1.0  0.05927  0.64456  0.48625  1.0000 0.8536569811
Cu  Cu3       1.0  0.32302  0.30927  0.91471  1.0000 0.8536569811
Cu  Cu4       1.0  0.39456  0.40831  0.08529  1.0000 0.8555394984
Cu  Cu5       1.0  0.69073  0.67698  0.08529  1.0000 0.8555394984
Cu  Cu6       1.0  0.59169  0.60544  0.91471  1.0000 0.8555394984
Cu  Cu7       1.0  0.35544  0.94073  0.51375  1.0000 0.8536569811
Cu  Cu8       1.0  0.42698  0.84169  0.48625  1.0000 0.8536569811
H   H1        1.0  0.91990  0.34590  0.22240  1.0000 0.1286402408
H   H2        1.0  0.12350  0.69750  0.77760  1.0000 0.1286402408
H   H3        1.0  0.09590  0.37350  0.92600  1.0000 0.1286402408
H   H4        1.0  0.44750  0.16990  0.07400  1.0000 0.1286402408
H   H5        1.0  0.62650  0.90410  0.07400  1.0000 0.1286402408
H   H6        1.0  0.83010  0.55250  0.92600  1.0000 0.1286402408
H   H7        1.0  0.30250  0.87650  0.22240  1.0000 0.1286402408
H   H8        1.0  0.65410  0.08010  0.77760  1.0000 0.1286402408
H   H9        1.0  0.65790  0.30330  0.92300  1.0000 0.1182938946
H   H10       1.0  0.38030  0.73490  0.07700  1.0000 0.1182938946
H   H11       1.0  0.05330  0.63030  0.14540  1.0000 0.1182938946
H   H12       1.0  0.48490  0.90790  0.85460  1.0000 0.1182938946
H   H13       1.0  0.36970  0.94670  0.85460  1.0000 0.1182938946
H   H14       1.0  0.09210  0.51510  0.14540  1.0000 0.1182938946
H   H15       1.0  0.26510  0.61970  0.92300  1.0000 0.1182938946
H   H16       1.0  0.69670  0.34210  0.07700  1.0000 0.1182938946
H   H17       1.0  0.63410  0.37950  0.91560  1.0000 0.1182938946
H   H18       1.0  0.46390  0.71850  0.08440  1.0000 0.1182938946
H   H19       1.0  0.12950  0.71390  0.24540  1.0000 0.1182938946
H   H20       1.0  0.46850  0.88410  0.75460  1.0000 0.1182938946
H   H21       1.0  0.28610  0.87050  0.75460  1.0000 0.1182938946
H   H22       1.0  0.11590  0.53150  0.24540  1.0000 0.1182938946
H   H23       1.0  0.28150  0.53610  0.91560  1.0000 0.1182938946
H   H24       1.0  0.62050  0.36590  0.08440  1.0000 0.1182938946
H   H25       1.0  0.82140  0.47480  0.15300  1.0000 0.1131698006
H   H26       1.0  0.32180  0.66840  0.84700  1.0000 0.1131698006
H   H27       1.0  0.22480  0.57180  0.15340  1.0000 0.1131698006
H   H28       1.0  0.41840  0.07140  0.84660  1.0000 0.1131698006
H   H29       1.0  0.42820  0.77520  0.84660  1.0000 0.1131698006
H   H30       1.0  0.92860  0.58160  0.15340  1.0000 0.1131698006
H   H31       1.0  0.33160  0.67820  0.15300  1.0000 0.1131698006
H   H32       1.0  0.52520  0.17860  0.84700  1.0000 0.1131698006
H   H33       1.0  0.90450  0.48990  0.26800  1.0000 0.1182938946
H   H34       1.0  0.22190  0.63650  0.73200  1.0000 0.1182938946
H   H35       1.0  0.23990  0.47190  0.08540  1.0000 0.1182938946
H   H36       1.0  0.38650  0.15450  0.91460  1.0000 0.1182938946
H   H37       1.0  0.52810  0.76010  0.91460  1.0000 0.1182938946
H   H38       1.0  0.84550  0.61350  0.08540  1.0000 0.1182938946
H   H39       1.0  0.36350  0.77810  0.26800  1.0000 0.1182938946
H   H40       1.0  0.51010  0.09550  0.73200  1.0000 0.1182938946
H   H41       1.0  0.99790  0.40730  0.29480  1.0000 0.1409973851
H   H42       1.0  0.11250  0.70310  0.70520  1.0000 0.1409973851
H   H43       1.0  0.15730  0.36250  0.90940  1.0000 0.1409973851
H   H44       1.0  0.45310  0.24790  0.09060  1.0000 0.1409973851
H   H45       1.0  0.63750  0.84270  0.09060  1.0000 0.1409973851
H   H46       1.0  0.75210  0.54690  0.90940  1.0000 0.1409973851
H   H47       1.0  0.29690  0.88750  0.29480  1.0000 0.1409973851
H   H48       1.0  0.59270  0.00210  0.70520  1.0000 0.1409973851
H   H49       1.0  0.74890  0.52290  0.08860  1.0000 0.1286402408
H   H50       1.0  0.43430  0.66030  0.91140  1.0000 0.1286402408
H   H51       1.0  0.27290  0.68430  0.27400  1.0000 0.1286402408
H   H52       1.0  0.41030  0.99890  0.72600  1.0000 0.1286402408
H   H53       1.0  0.31570  0.72710  0.72600  1.0000 0.1286402408
H   H54       1.0  0.00110  0.58970  0.27400  1.0000 0.1286402408
H   H55       1.0  0.33970  0.56570  0.08860  1.0000 0.1286402408
H   H56       1.0  0.47710  0.25110  0.91140  1.0000 0.1286402408
H   H57       1.0  0.63230  0.45190  0.91840  1.0000 0.1513962201
H   H58       1.0  0.53350  0.71390  0.08160  1.0000 0.1513962201
H   H59       1.0  0.20190  0.78350  0.31960  1.0000 0.1513962201
H   H60       1.0  0.46390  0.88230  0.68040  1.0000 0.1513962201
H   H61       1.0  0.21650  0.79810  0.68040  1.0000 0.1513962201
H   H62       1.0  0.11770  0.53610  0.31960  1.0000 0.1513962201
H   H63       1.0  0.28610  0.46650  0.91840  1.0000 0.1513962201
H   H64       1.0  0.54810  0.36770  0.08160  1.0000 0.1513962201
H   H65       1.0  0.93370  0.22960  0.15410  1.0000 0.0799680562
H   H66       1.0  0.07550  0.77960  0.84590  1.0000 0.0799680562
H   H67       1.0  0.97960  0.32550  0.79590  1.0000 0.0799680562
H   H68       1.0  0.52960  0.18370  0.20410  1.0000 0.0799680562
H   H69       1.0  0.67450  0.02040  0.20410  1.0000 0.0799680562
H   H70       1.0  0.81630  0.47040  0.79590  1.0000 0.0799680562
H   H71       1.0  0.22040  0.92450  0.15410  1.0000 0.0799680562
H   H72       1.0  0.77040  0.06630  0.84590  1.0000 0.0799680562
H   H73       1.0  0.92580  0.26970  0.22070  1.0000 0.0799680562
H   H74       1.0  0.04900  0.70510  0.77930  1.0000 0.0799680562
H   H75       1.0  0.01970  0.29900  0.84390  1.0000 0.0799680562
H   H76       1.0  0.45510  0.17580  0.15610  1.0000 0.0799680562
H   H77       1.0  0.70100  0.98030  0.15610  1.0000 0.0799680562
H   H78       1.0  0.82420  0.54490  0.84390  1.0000 0.0799680562
H   H79       1.0  0.29490  0.95100  0.22070  1.0000 0.0799680562
H   H80       1.0  0.73030  0.07420  0.77930  1.0000 0.0799680562
H   H81       1.0  0.85660  0.14920  0.07860  1.0000 0.1131698006
H   H82       1.0  0.07060  0.77800  0.92140  1.0000 0.1131698006
H   H83       1.0  0.89920  0.32060  0.79260  1.0000 0.1131698006
H   H84       1.0  0.52800  0.10660  0.20740  1.0000 0.1131698006
H   H85       1.0  0.67940  0.10080  0.20740  1.0000 0.1131698006
H   H86       1.0  0.89340  0.47200  0.79260  1.0000 0.1131698006
H   H87       1.0  0.22200  0.92940  0.07860  1.0000 0.1131698006
H   H88       1.0  0.85080  0.14340  0.92140  1.0000 0.1131698006
H   H89       1.0  0.91690  0.18000  0.17770  1.0000 0.1286402408
H   H90       1.0  0.00230  0.73920  0.82230  1.0000 0.1182938946
H   H91       1.0  0.93000  0.25230  0.76310  1.0000 0.1286402408
H   H92       1.0  0.48920  0.16690  0.23690  1.0000 0.1286402408
H   H93       1.0  0.74770  0.07000  0.23690  1.0000 0.1182938946
H   H94       1.0  0.83310  0.51080  0.76310  1.0000 0.1182938946
H   H95       1.0  0.26080  0.99770  0.17770  1.0000 0.1182938946
H   H96       1.0  0.82000  0.08310  0.82230  1.0000 0.1182938946
H   H97       1.0  0.93060  0.14100  0.11720  1.0000 0.1010976811
H   H98       1.0  0.02380  0.81340  0.88280  1.0000 0.1010976811
H   H99       1.0  0.89100  0.27380  0.71040  1.0000 0.1010976811
H   H100      1.0  0.56340  0.18060  0.28960  1.0000 0.1010976811
H   H101      1.0  0.72620  0.10900  0.28960  1.0000 0.1010976811
H   H102      1.0  0.81940  0.43660  0.71040  1.0000 0.1010976811
H   H103      1.0  0.18660  0.97620  0.11720  1.0000 0.1010976811
H   H104      1.0  0.85900  0.06940  0.88280  1.0000 0.1010976811
C   C1        1.0  0.76640  0.28879  0.03567  1.0000 -0.045742108
C   C2        1.0  0.25312  0.73073  0.96433  1.0000 -0.0446091001
C   C3        1.0  0.03879  0.50312  0.02239  1.0000 -0.045742108
C   C4        1.0  0.48073  0.01640  0.97761  1.0000 -0.0446091001
C   C5        1.0  0.49688  0.96121  0.97761  1.0000 -0.0446091001
C   C6        1.0  0.98360  0.51927  0.02239  1.0000 -0.045742108
C   C7        1.0  0.26927  0.74688  0.03567  1.0000 -0.045742108
C   C8        1.0  0.71121  0.23360  0.96433  1.0000 -0.0446091001
C   C9        1.0  0.82867  0.29183  0.10530  1.0000 0.2050969727
C   C10       1.0  0.18653  0.72337  0.89470  1.0000 0.2032416812
C   C11       1.0  0.04183  0.43653  0.96316  1.0000 0.2032416812
C   C12       1.0  0.47337  0.07867  0.03684  1.0000 0.2050969727
C   C13       1.0  0.56347  0.95817  0.03684  1.0000 0.2032416812
C   C14       1.0  0.92133  0.52663  0.96316  1.0000 0.2050969727
C   C15       1.0  0.27663  0.81347  0.10530  1.0000 0.2050969727
C   C16       1.0  0.70817  0.17133  0.89470  1.0000 0.2032416812
C   C17       1.0  0.87778  0.34385  0.17527  1.0000 -0.2386541371
C   C18       1.0  0.16858  0.70251  0.82473  1.0000 -0.2386541371
C   C19       1.0  0.09385  0.41858  0.96607  1.0000 -0.2386541371
C   C20       1.0  0.45251  0.12778  0.03393  1.0000 -0.2386541371
C   C21       1.0  0.58142  0.90615  0.03393  1.0000 -0.2386541371
C   C22       1.0  0.87222  0.54749  0.96607  1.0000 -0.2386541371
C   C23       1.0  0.29749  0.83142  0.17527  1.0000 -0.2386541371
C   C24       1.0  0.65615  0.12222  0.82473  1.0000 -0.2386541371
C   C25       1.0  0.86462  0.39282  0.17560  1.0000 0.0721216589
C   C26       1.0  0.21722  0.68902  0.82440  1.0000 0.0721216589
C   C27       1.0  0.14282  0.46722  0.02820  1.0000 0.0721216589
C   C28       1.0  0.43902  0.11462  0.97180  1.0000 0.0721216589
C   C29       1.0  0.53278  0.85718  0.97180  1.0000 0.0721216589
C   C30       1.0  0.88538  0.56098  0.02820  1.0000 0.0721216589
C   C31       1.0  0.31098  0.78278  0.17560  1.0000 0.0721216589
C   C32       1.0  0.60718  0.13538  0.82440  1.0000 0.0721216589
C   C33       1.0  0.80235  0.38978  0.10597  1.0000 0.0100063095
C   C34       1.0  0.28381  0.69638  0.89403  1.0000 0.0100063095
C   C35       1.0  0.13978  0.53381  0.08743  1.0000 0.0100063095
C   C36       1.0  0.44638  0.05235  0.91257  1.0000 0.0100063095
C   C37       1.0  0.46619  0.86022  0.91257  1.0000 0.0100063095
C   C38       1.0  0.94765  0.55362  0.08743  1.0000 0.0100063095
C   C39       1.0  0.30362  0.71619  0.10597  1.0000 0.0100063095
C   C40       1.0  0.61022  0.19765  0.89403  1.0000 0.0100063095
C   C41       1.0  0.75324  0.33776  0.03600  1.0000 0.0235586611
C   C42       1.0  0.30176  0.71724  0.96400  1.0000 0.0235586611
C   C43       1.0  0.08776  0.55176  0.08452  1.0000 0.0235586611
C   C44       1.0  0.46724  0.00324  0.91548  1.0000 0.0235586611
C   C45       1.0  0.44824  0.91224  0.91548  1.0000 0.0235586611
C   C46       1.0  0.99676  0.53276  0.08452  1.0000 0.0235586611
C   C47       1.0  0.28276  0.69824  0.03600  1.0000 0.0235586611
C   C48       1.0  0.66224  0.24676  0.96400  1.0000 0.0235586611
C   C49       1.0  0.69164  0.33724  0.96860  1.0000 -0.1389553272
C   C50       1.0  0.36864  0.72304  0.03140  1.0000 -0.1389553272
C   C51       1.0  0.08724  0.61864  0.14560  1.0000 -0.1389553272
C   C52       1.0  0.47304  0.94164  0.85440  1.0000 -0.1389553272
C   C53       1.0  0.38136  0.91276  0.85440  1.0000 -0.1389553272
C   C54       1.0  0.05836  0.52696  0.14560  1.0000 -0.1389553272
C   C55       1.0  0.27696  0.63136  0.96860  1.0000 -0.1389553272
C   C56       1.0  0.66276  0.30836  0.03140  1.0000 -0.1389553272
C   C57       1.0  0.67630  0.38260  0.96350  1.0000 -0.154350488
C   C58       1.0  0.41910  0.71280  0.03650  1.0000 -0.154350488
C   C59       1.0  0.13260  0.66910  0.20630  1.0000 -0.154350488
C   C60       1.0  0.46280  0.92630  0.79370  1.0000 -0.154350488
C   C61       1.0  0.33090  0.86740  0.79370  1.0000 -0.154350488
C   C62       1.0  0.07370  0.53720  0.20630  1.0000 -0.154350488
C   C63       1.0  0.28720  0.58090  0.96350  1.0000 -0.154350488
C   C64       1.0  0.61740  0.32370  0.03650  1.0000 -0.154350488
C   C65       1.0  0.72743  0.43443  0.03440  1.0000 0.1131698006
C   C66       1.0  0.40003  0.69303  0.96560  1.0000 0.1131698006
C   C67       1.0  0.18443  0.65003  0.20700  1.0000 0.1131698006
C   C68       1.0  0.44303  0.97743  0.79300  1.0000 0.1131698006
C   C69       1.0  0.34997  0.81557  0.79300  1.0000 0.1131698006
C   C70       1.0  0.02257  0.55697  0.20700  1.0000 0.1131698006
C   C71       1.0  0.30697  0.59997  0.03440  1.0000 0.1131698006
C   C72       1.0  0.56557  0.27257  0.96560  1.0000 0.1131698006
C   C73       1.0  0.78873  0.43893  0.10520  1.0000 -0.2012674459
C   C74       1.0  0.33373  0.68353  0.89480  1.0000 -0.2012674459
C   C75       1.0  0.18893  0.58373  0.15020  1.0000 -0.2012674459
C   C76       1.0  0.43353  0.03873  0.84980  1.0000 -0.2012674459
C   C77       1.0  0.41627  0.81107  0.84980  1.0000 -0.2012674459
C   C78       1.0  0.96127  0.56647  0.15020  1.0000 -0.2012674459
C   C79       1.0  0.31647  0.66627  0.10520  1.0000 -0.2012674459
C   C80       1.0  0.56107  0.21127  0.89480  1.0000 -0.2012674459
C   C81       1.0  0.91812  0.44872  0.25400  1.0000 -0.08770908
C   C82       1.0  0.19472  0.66412  0.74600  1.0000 -0.08770908
C   C83       1.0  0.19872  0.44472  0.03060  1.0000 -0.08770908
C   C84       1.0  0.41412  0.16812  0.96940  1.0000 -0.08770908
C   C85       1.0  0.55528  0.80128  0.96940  1.0000 -0.08770908
C   C86       1.0  0.83188  0.58588  0.03060  1.0000 -0.08770908
C   C87       1.0  0.33588  0.80528  0.25400  1.0000 -0.08770908
C   C88       1.0  0.55128  0.08188  0.74600  1.0000 -0.08770908
C   C89       1.0  0.98104  0.44664  0.30460  1.0000 -0.1864535683
C   C90       1.0  0.14204  0.67644  0.69540  1.0000 -0.1864535683
C   C91       1.0  0.19664  0.39204  0.96560  1.0000 -0.1864535683
C   C92       1.0  0.42644  0.23104  0.03440  1.0000 -0.1864535683
C   C93       1.0  0.60796  0.80336  0.03440  1.0000 -0.1864535683
C   C94       1.0  0.76896  0.57356  0.96560  1.0000 -0.1864535683
C   C95       1.0  0.32356  0.85796  0.30460  1.0000 -0.1864535683
C   C96       1.0  0.55336  0.01896  0.69540  1.0000 -0.1849735551
C   C97       1.0  0.02862  0.51032  0.38210  1.0000 0.6309757321
C   C98       1.0  0.12822  0.64652  0.61790  1.0000 0.6309757321
C   C99       1.0  0.26032  0.37822  0.98170  1.0000 0.6309757321
C   C100      1.0  0.39652  0.27862  0.01830  1.0000 0.6309757321
C   C101      1.0  0.62178  0.73968  0.01830  1.0000 0.6309757321
C   C102      1.0  0.72138  0.60348  0.98170  1.0000 0.6309757321
C   C103      1.0  0.35348  0.87178  0.38210  1.0000 0.6309757321
C   C104      1.0  0.48968  0.97138  0.61790  1.0000 0.6309757321
C   C105      1.0  0.71550  0.48630  0.03520  1.0000 -0.0759049543
C   C106      1.0  0.45110  0.68030  0.96480  1.0000 -0.0759049543
C   C107      1.0  0.23630  0.70110  0.27080  1.0000 -0.0759049543
C   C108      1.0  0.43030  0.96550  0.72920  1.0000 -0.0747522362
C   C109      1.0  0.29890  0.76370  0.72920  1.0000 -0.0759049543
C   C110      1.0  0.03450  0.56970  0.27080  1.0000 -0.0759049543
C   C111      1.0  0.31970  0.54890  0.03520  1.0000 -0.0747522362
C   C112      1.0  0.51370  0.28450  0.96480  1.0000 -0.0747522362
C   C113      1.0  0.66584  0.48834  0.97310  1.0000 -0.2268229448
C   C114      1.0  0.51524  0.69274  0.02690  1.0000 -0.2268229448
C   C115      1.0  0.23834  0.76524  0.32250  1.0000 -0.2268229448
C   C116      1.0  0.44274  0.91584  0.67750  1.0000 -0.2268229448
C   C117      1.0  0.23476  0.76166  0.67750  1.0000 -0.2268229448
C   C118      1.0  0.08416  0.55726  0.32250  1.0000 -0.2268229448
C   C119      1.0  0.30726  0.48476  0.97310  1.0000 -0.2268229448
C   C120      1.0  0.51166  0.33416  0.02690  1.0000 -0.2268229448
C   C121      1.0  0.65815  0.54225  0.98150  1.0000 0.6309757321
C   C122      1.0  0.56075  0.67665  0.01850  1.0000 0.6309757321
C   C123      1.0  0.29225  0.81075  0.38410  1.0000 0.6309757321
C   C124      1.0  0.42665  0.90815  0.61590  1.0000 0.6309757321
C   C125      1.0  0.18925  0.70775  0.61590  1.0000 0.6309757321
C   C126      1.0  0.09185  0.57335  0.38410  1.0000 0.6309757321
C   C127      1.0  0.32335  0.43925  0.98150  1.0000 0.6309757321
C   C128      1.0  0.45775  0.34185  0.01850  1.0000 0.6309757321
C   C129      1.0  0.90594  0.23234  0.15900  1.0000 0.0100063095
C   C130      1.0  0.07334  0.74694  0.84100  1.0000 0.0100063095
C   C131      1.0  0.98234  0.32334  0.82640  1.0000 0.0100063095
C   C132      1.0  0.49694  0.15594  0.17360  1.0000 0.0100063095
C   C133      1.0  0.67666  0.01766  0.17360  1.0000 0.0100063095
C   C134      1.0  0.84406  0.50306  0.82640  1.0000 0.0100063095
C   C135      1.0  0.25306  0.92666  0.15900  1.0000 0.0048248004
C   C136      1.0  0.76766  0.09406  0.84100  1.0000 0.0100063095
C   C137      1.0  0.90230  0.17050  0.13080  1.0000 -0.3586662174
C   C138      1.0  0.03970  0.77150  0.86920  1.0000 -0.3586662174
C   C139      1.0  0.92050  0.28970  0.76820  1.0000 -0.3586662174
C   C140      1.0  0.52150  0.15230  0.23180  1.0000 -0.3586662174
C   C141      1.0  0.71030  0.07950  0.23180  1.0000 -0.3586662174
C   C142      1.0  0.84770  0.47850  0.76820  1.0000 -0.3586662174
C   C143      1.0  0.22850  0.96030  0.13080  1.0000 -0.3586662174
C   C144      1.0  0.82950  0.09770  0.86920  1.0000 -0.3586662174
O   O1        1.0  0.08908  0.49997  0.41635  1.0000 -0.5371109717
O   O2        1.0  0.08362  0.67273  0.58365  1.0000 -0.5371109717
O   O3        1.0  0.24997  0.33362  0.91089  1.0000 -0.5371109717
O   O4        1.0  0.42273  0.33908  0.08911  1.0000 -0.5371109717
O   O5        1.0  0.66638  0.75003  0.08911  1.0000 -0.5371109717
O   O6        1.0  0.66092  0.57727  0.91089  1.0000 -0.5371109717
O   O7        1.0  0.32727  0.91638  0.41635  1.0000 -0.5371109717
O   O8        1.0  0.50003  0.91092  0.58365  1.0000 -0.5371109717
O   O9        1.0  0.00719  0.56459  0.40426  1.0000 -0.5102354014
O   O10       1.0  0.16033  0.60293  0.59574  1.0000 -0.5102354014
O   O11       1.0  0.31459  0.41033  0.05740  1.0000 -0.5102354014
O   O12       1.0  0.35293  0.25719  0.94260  1.0000 -0.5102354014
O   O13       1.0  0.58967  0.68541  0.94260  1.0000 -0.5102354014
O   O14       1.0  0.74281  0.64707  0.05740  1.0000 -0.5102354014
O   O15       1.0  0.39707  0.83967  0.40426  1.0000 -0.5102354014
O   O16       1.0  0.43541  0.99281  0.59574  1.0000 -0.5102354014
O   O17       1.0  0.60853  0.53710  0.91435  1.0000 -0.5317293503
O   O18       1.0  0.62275  0.69418  0.08565  1.0000 -0.5317293503
O   O19       1.0  0.28710  0.87275  0.42857  1.0000 -0.5317293503
O   O20       1.0  0.44418  0.85853  0.57143  1.0000 -0.5317293503
O   O21       1.0  0.12725  0.71290  0.57143  1.0000 -0.5317293503
O   O22       1.0  0.14147  0.55582  0.42857  1.0000 -0.5317293503
O   O23       1.0  0.30582  0.37725  0.91435  1.0000 -0.5317293503
O   O24       1.0  0.46290  0.39147  0.08565  1.0000 -0.5317293503
O   O25       1.0  0.70115  0.59398  0.05797  1.0000 -0.5317293503
O   O26       1.0  0.53601  0.64318  0.94203  1.0000 -0.5317293503
O   O27       1.0  0.34398  0.78601  0.39283  1.0000 -0.5317293503
O   O28       1.0  0.39318  0.95115  0.60717  1.0000 -0.5317293503
O   O29       1.0  0.21399  0.65602  0.60717  1.0000 -0.5317293503
O   O30       1.0  0.04885  0.60682  0.39283  1.0000 -0.5317293503
O   O31       1.0  0.35682  0.46399  0.05797  1.0000 -0.5317293503
O   O32       1.0  0.40602  0.29885  0.94203  1.0000 -0.5317293503
O   O33       1.0  0.83831  0.24220  0.10187  1.0000 -0.2386541371
O   O34       1.0  0.14033  0.73644  0.89813  1.0000 -0.2386541371
O   O35       1.0  0.99220  0.39033  0.90389  1.0000 -0.2386541371
O   O36       1.0  0.48644  0.08831  0.09611  1.0000 -0.2386541371
O   O37       1.0  0.60967  0.00780  0.09611  1.0000 -0.2386541371
O   O38       1.0  0.91169  0.51356  0.90389  1.0000 -0.2386541371
O   O39       1.0  0.26356  0.85967  0.10187  1.0000 -0.2386541371
O   O40       1.0  0.75780  0.16169  0.89813  1.0000 -0.2386541371
