# DDEC6 charges by PACMAN v1.1 (https://github.com/mtap-research/PACMAN-charge/)
data_2010[Cu][nan]3[ASR]29
_chemical_formula_sum              "Cu8 H12 C32 S4 O32"
_cell_length_a       7.252
_cell_length_b       18.068
_cell_length_c       12.097
_cell_angle_alpha    90
_cell_angle_beta     122.501
_cell_angle_gamma    90

_symmetry_space_group_name_H-M    "P 1"
_symmetry_Int_Tables_number       1

loop_
  _symmetry_equiv_pos_as_xyz
  'x, y, z'

loop_
  _atom_site_type_symbol
  _atom_site_label
  _atom_site_symmetry_multiplicity
  _atom_site_fract_x
  _atom_site_fract_y
  _atom_site_fract_z
  _atom_site_occupancy
  _atom_site_charge
Cu  Cu1       1.0  0.35179  0.09413  0.21401  1.0000 1.0312285925
Cu  Cu2       1.0  0.64821  0.59413  0.28599  1.0000 1.0312285925
Cu  Cu3       1.0  0.64821  0.90587  0.78599  1.0000 1.0312285925
Cu  Cu4       1.0  0.35179  0.40587  0.71401  1.0000 1.0312285925
Cu  Cu5       1.0  0.89330  0.06851  0.92958  1.0000 1.1481063868
Cu  Cu6       1.0  0.10670  0.56851  0.57042  1.0000 1.1481063868
Cu  Cu7       1.0  0.10670  0.93149  0.07042  1.0000 1.1481063868
Cu  Cu8       1.0  0.89330  0.43149  0.42958  1.0000 1.1481063868
H   H1        1.0  0.38630  0.30850  0.16500  1.0000 0.1478098735
H   H2        1.0  0.61370  0.80850  0.33500  1.0000 0.1478098735
H   H3        1.0  0.61370  0.69150  0.83500  1.0000 0.1478098735
H   H4        1.0  0.38630  0.19150  0.66500  1.0000 0.1478098735
H   H5        1.0  0.86680  0.29270  0.79970  1.0000 0.1478098735
H   H6        1.0  0.13320  0.79270  0.70030  1.0000 0.1478098735
H   H7        1.0  0.13320  0.70730  0.20030  1.0000 0.1478098735
H   H8        1.0  0.86680  0.20730  0.29970  1.0000 0.1478098735
H   H9        1.0  0.16780  0.48820  0.93830  1.0000 0.1478098735
H   H10       1.0  0.83220  0.98820  0.56170  1.0000 0.1478098735
H   H11       1.0  0.83220  0.51180  0.06170  1.0000 0.1478098735
H   H12       1.0  0.16780  0.01180  0.43830  1.0000 0.1478098735
C   C1        1.0  0.99670  0.39610  0.84920  1.0000 -0.0799213653
C   C2        1.0  0.00330  0.89610  0.65080  1.0000 -0.0799213653
C   C3        1.0  0.00330  0.60390  0.15080  1.0000 -0.0799213653
C   C4        1.0  0.99670  0.10390  0.34920  1.0000 -0.0799213653
C   C5        1.0  0.30670  0.40520  0.07070  1.0000 -0.0009041521
C   C6        1.0  0.69330  0.90520  0.42930  1.0000 -0.0009041521
C   C7        1.0  0.69330  0.59480  0.92930  1.0000 -0.0009041521
C   C8        1.0  0.30670  0.09480  0.57070  1.0000 -0.0009041521
C   C9        1.0  0.28730  0.33070  0.08520  1.0000 -0.0799213653
C   C10       1.0  0.71270  0.83070  0.41480  1.0000 -0.0799213653
C   C11       1.0  0.71270  0.66930  0.91480  1.0000 -0.0799213653
C   C12       1.0  0.28730  0.16930  0.58520  1.0000 -0.0799213653
C   C13       1.0  0.12670  0.28780  0.98610  1.0000 -0.0157168676
C   C14       1.0  0.87330  0.78780  0.51390  1.0000 -0.0157168676
C   C15       1.0  0.87330  0.71220  0.01390  1.0000 -0.0157168676
C   C16       1.0  0.12670  0.21220  0.48610  1.0000 -0.0157168676
C   C17       1.0  0.11270  0.20750  0.00800  1.0000 0.6218040343
C   C18       1.0  0.88730  0.70750  0.49200  1.0000 0.6218040343
C   C19       1.0  0.88730  0.79250  0.99200  1.0000 0.6218040343
C   C20       1.0  0.11270  0.29250  0.50800  1.0000 0.6218040343
C   C21       1.0  0.97820  0.32060  0.86720  1.0000 -0.0799213653
C   C22       1.0  0.02180  0.82060  0.63280  1.0000 -0.0799213653
C   C23       1.0  0.02180  0.67940  0.13280  1.0000 -0.0799213653
C   C24       1.0  0.97820  0.17940  0.36720  1.0000 -0.0799213653
C   C25       1.0  0.15800  0.43780  0.95040  1.0000 -0.0799213653
C   C26       1.0  0.84200  0.93780  0.54960  1.0000 -0.0799213653
C   C27       1.0  0.84200  0.56220  0.04960  1.0000 -0.0799213653
C   C28       1.0  0.15800  0.06220  0.45040  1.0000 -0.0799213653
C   C29       1.0  0.49240  0.44690  0.18240  1.0000 0.6059791352
C   C30       1.0  0.50760  0.94690  0.31760  1.0000 0.6059791352
C   C31       1.0  0.50760  0.55310  0.81760  1.0000 0.6059791352
C   C32       1.0  0.49240  0.05310  0.68240  1.0000 0.6059791352
S   S1        1.0  0.82250  0.43524  0.69320  1.0000 1.183213463
S   S2        1.0  0.17750  0.93524  0.80680  1.0000 1.183213463
S   S3        1.0  0.17750  0.56476  0.30680  1.0000 1.183213463
S   S4        1.0  0.82250  0.06476  0.19320  1.0000 1.183213463
O   O1        1.0  0.97490  0.16710  0.91560  1.0000 -0.5086695646
O   O2        1.0  0.02510  0.66710  0.58440  1.0000 -0.5086695646
O   O3        1.0  0.02510  0.83290  0.08440  1.0000 -0.5086695646
O   O4        1.0  0.97490  0.33290  0.41560  1.0000 -0.5086695646
O   O5        1.0  0.18910  0.03360  0.05760  1.0000 -0.8989600335
O   O6        1.0  0.81090  0.53360  0.44240  1.0000 -0.8989600335
O   O7        1.0  0.81090  0.96640  0.94240  1.0000 -0.8989600335
O   O8        1.0  0.18910  0.46640  0.55760  1.0000 -0.8989600335
O   O9        1.0  0.50700  0.51360  0.16320  1.0000 -0.5402411615
O   O10       1.0  0.49300  0.01360  0.33680  1.0000 -0.5402411615
O   O11       1.0  0.49300  0.48640  0.83680  1.0000 -0.5402411615
O   O12       1.0  0.50700  0.98640  0.66320  1.0000 -0.5402411615
O   O13       1.0  0.24950  0.18600  0.12340  1.0000 -0.5340299998
O   O14       1.0  0.75050  0.68600  0.37660  1.0000 -0.5340299998
O   O15       1.0  0.75050  0.81400  0.87660  1.0000 -0.5340299998
O   O16       1.0  0.24950  0.31400  0.62340  1.0000 -0.5340299998
O   O17       1.0  0.85250  0.51250  0.70260  1.0000 -0.5223219936
O   O18       1.0  0.14750  0.01250  0.79740  1.0000 -0.5223219936
O   O19       1.0  0.14750  0.48750  0.29740  1.0000 -0.5223219936
O   O20       1.0  0.85250  0.98750  0.20260  1.0000 -0.5223219936
O   O21       1.0  0.61280  0.41010  0.28410  1.0000 -0.4956379627
O   O22       1.0  0.38720  0.91010  0.21590  1.0000 -0.4956379627
O   O23       1.0  0.38720  0.58990  0.71590  1.0000 -0.4956379627
O   O24       1.0  0.61280  0.08990  0.78410  1.0000 -0.4956379627
O   O25       1.0  0.88960  0.40020  0.61190  1.0000 -0.6410805379
O   O26       1.0  0.11040  0.90020  0.88810  1.0000 -0.6410805379
O   O27       1.0  0.11040  0.59980  0.38810  1.0000 -0.6410805379
O   O28       1.0  0.88960  0.09980  0.11190  1.0000 -0.6410805379
O   O29       1.0  0.60620  0.41000  0.64930  1.0000 -0.5565134977
O   O30       1.0  0.39380  0.91000  0.85070  1.0000 -0.5565134977
O   O31       1.0  0.39380  0.59000  0.35070  1.0000 -0.5565134977
O   O32       1.0  0.60620  0.09000  0.14930  1.0000 -0.5565134977
