# DDEC6 charges by PACMAN v1.1 (https://github.com/mtap-research/PACMAN-charge/)
data_2010[Cu][nan]3[ASR]11
_chemical_formula_sum              "Cu8 H12 C32 S4 O32"
_cell_length_a       7.355
_cell_length_b       18.215
_cell_length_c       12.0597
_cell_angle_alpha    90
_cell_angle_beta     122.943
_cell_angle_gamma    90

_symmetry_space_group_name_H-M    "P 1"
_symmetry_Int_Tables_number       1

loop_
  _symmetry_equiv_pos_as_xyz
  'x, y, z'

loop_
  _atom_site_type_symbol
  _atom_site_label
  _atom_site_symmetry_multiplicity
  _atom_site_fract_x
  _atom_site_fract_y
  _atom_site_fract_z
  _atom_site_occupancy
  _atom_site_charge
Cu  Cu1       1.0  0.35110  0.09336  0.21767  1.0000 1.0466253053
Cu  Cu2       1.0  0.64890  0.59336  0.28233  1.0000 1.0466253053
Cu  Cu3       1.0  0.64890  0.90664  0.78233  1.0000 1.0466253053
Cu  Cu4       1.0  0.35110  0.40664  0.71767  1.0000 1.0466253053
Cu  Cu5       1.0  0.88512  0.06848  0.93435  1.0000 1.1454226267
Cu  Cu6       1.0  0.11488  0.56848  0.56565  1.0000 1.1454226267
Cu  Cu7       1.0  0.11488  0.93152  0.06565  1.0000 1.1454226267
Cu  Cu8       1.0  0.88512  0.43152  0.43435  1.0000 1.1447701942
H   H1        1.0  0.37920  0.30580  0.16840  1.0000 0.1434345137
H   H2        1.0  0.62080  0.80580  0.33160  1.0000 0.1434345137
H   H3        1.0  0.62080  0.69420  0.83160  1.0000 0.1434345137
H   H4        1.0  0.37920  0.19420  0.66840  1.0000 0.1434345137
H   H5        1.0  0.85020  0.29310  0.79920  1.0000 0.149046183
H   H6        1.0  0.14980  0.79310  0.70080  1.0000 0.149046183
H   H7        1.0  0.14980  0.70690  0.20080  1.0000 0.149046183
H   H8        1.0  0.85020  0.20690  0.29920  1.0000 0.149046183
H   H9        1.0  0.15490  0.48710  0.94140  1.0000 0.149046183
H   H10       1.0  0.84510  0.98710  0.55860  1.0000 0.149046183
H   H11       1.0  0.84510  0.51290  0.05860  1.0000 0.149046183
H   H12       1.0  0.15490  0.01290  0.44140  1.0000 0.149046183
C   C1        1.0  0.98290  0.39512  0.85170  1.0000 -0.0659354995
C   C2        1.0  0.01710  0.89512  0.64830  1.0000 -0.0659354995
C   C3        1.0  0.01710  0.60488  0.14830  1.0000 -0.0659354995
C   C4        1.0  0.98290  0.10488  0.35170  1.0000 -0.0659354995
C   C5        1.0  0.29560  0.40357  0.07350  1.0000 -0.0062924289
C   C6        1.0  0.70440  0.90357  0.42650  1.0000 -0.0048111636
C   C7        1.0  0.70440  0.59643  0.92650  1.0000 -0.0048111636
C   C8        1.0  0.29560  0.09643  0.57350  1.0000 -0.0062924289
C   C9        1.0  0.27850  0.32843  0.08890  1.0000 -0.0798054464
C   C10       1.0  0.72150  0.82843  0.41110  1.0000 -0.0798054464
C   C11       1.0  0.72150  0.67157  0.91110  1.0000 -0.0798054464
C   C12       1.0  0.27850  0.17157  0.58890  1.0000 -0.0798054464
C   C13       1.0  0.11280  0.28681  0.98690  1.0000 -0.0062924289
C   C14       1.0  0.88720  0.78681  0.51310  1.0000 -0.0062924289
C   C15       1.0  0.88720  0.71319  0.01310  1.0000 -0.0062924289
C   C16       1.0  0.11280  0.21319  0.48690  1.0000 -0.0062924289
C   C17       1.0  0.10370  0.20663  0.01080  1.0000 0.62213086
C   C18       1.0  0.89630  0.70663  0.48920  1.0000 0.62213086
C   C19       1.0  0.89630  0.79337  0.98920  1.0000 0.62213086
C   C20       1.0  0.10370  0.29337  0.51080  1.0000 0.62213086
C   C21       1.0  0.96250  0.32021  0.86750  1.0000 -0.0798054464
C   C22       1.0  0.03750  0.82021  0.63250  1.0000 -0.0798054464
C   C23       1.0  0.03750  0.67979  0.13250  1.0000 -0.0798054464
C   C24       1.0  0.96250  0.17979  0.36750  1.0000 -0.0798054464
C   C25       1.0  0.14560  0.43709  0.95320  1.0000 -0.0855698172
C   C26       1.0  0.85440  0.93709  0.54680  1.0000 -0.0855698172
C   C27       1.0  0.85440  0.56291  0.04680  1.0000 -0.0855698172
C   C28       1.0  0.14560  0.06291  0.45320  1.0000 -0.0855698172
C   C29       1.0  0.47810  0.44509  0.18550  1.0000 0.6113240015
C   C30       1.0  0.52190  0.94509  0.31450  1.0000 0.6113240015
C   C31       1.0  0.52190  0.55491  0.81450  1.0000 0.6113240015
C   C32       1.0  0.47810  0.05491  0.68550  1.0000 0.6113240015
S   S1        1.0  0.80896  0.43386  0.69354  1.0000 1.187769134
S   S2        1.0  0.19104  0.93386  0.80646  1.0000 1.187769134
S   S3        1.0  0.19104  0.56614  0.30646  1.0000 1.187769134
S   S4        1.0  0.80896  0.06614  0.19354  1.0000 1.187769134
O   O1        1.0  0.96220  0.16771  0.91560  1.0000 -0.5186618504
O   O2        1.0  0.03780  0.66771  0.58440  1.0000 -0.5186618504
O   O3        1.0  0.03780  0.83229  0.08440  1.0000 -0.5186618504
O   O4        1.0  0.96220  0.33229  0.41560  1.0000 -0.5148766149
O   O5        1.0  0.18597  0.03516  0.05477  1.0000 -0.8940683513
O   O6        1.0  0.81403  0.53516  0.44523  1.0000 -0.8958588947
O   O7        1.0  0.81403  0.96484  0.94523  1.0000 -0.8940683513
O   O8        1.0  0.18597  0.46484  0.55477  1.0000 -0.8940683513
O   O9        1.0  0.50390  0.51109  0.16490  1.0000 -0.5544537861
O   O10       1.0  0.49610  0.01109  0.33510  1.0000 -0.5544537861
O   O11       1.0  0.49610  0.48891  0.83510  1.0000 -0.5544537861
O   O12       1.0  0.50390  0.98891  0.66490  1.0000 -0.5544537861
O   O13       1.0  0.24150  0.18521  0.12620  1.0000 -0.5306720693
O   O14       1.0  0.75850  0.68521  0.37380  1.0000 -0.5306720693
O   O15       1.0  0.75850  0.81479  0.87380  1.0000 -0.5306720693
O   O16       1.0  0.24150  0.31479  0.62620  1.0000 -0.5306720693
O   O17       1.0  0.81850  0.51284  0.70570  1.0000 -0.5186618504
O   O18       1.0  0.18150  0.01284  0.79430  1.0000 -0.5186618504
O   O19       1.0  0.18150  0.48716  0.29430  1.0000 -0.5186618504
O   O20       1.0  0.81850  0.98716  0.20570  1.0000 -0.5186618504
O   O21       1.0  0.59390  0.40967  0.29310  1.0000 -0.4997148622
O   O22       1.0  0.40610  0.90967  0.20690  1.0000 -0.4997148622
O   O23       1.0  0.40610  0.59033  0.70690  1.0000 -0.4997148622
O   O24       1.0  0.59390  0.09033  0.79310  1.0000 -0.4997148622
O   O25       1.0  0.89670  0.40586  0.61890  1.0000 -0.6468446661
O   O26       1.0  0.10330  0.90586  0.88110  1.0000 -0.6468446661
O   O27       1.0  0.10330  0.59414  0.38110  1.0000 -0.6468446661
O   O28       1.0  0.89670  0.09414  0.11890  1.0000 -0.6468446661
O   O29       1.0  0.59370  0.40326  0.64240  1.0000 -0.5690965015
O   O30       1.0  0.40630  0.90326  0.85760  1.0000 -0.5690965015
O   O31       1.0  0.40630  0.59674  0.35760  1.0000 -0.5690965015
O   O32       1.0  0.59370  0.09674  0.14240  1.0000 -0.5690965015
