# DDEC6 charges by PACMAN v1.1 (https://github.com/mtap-research/PACMAN-charge/)
data_2010[Cu][nan]3[ASR]28
_chemical_formula_sum              "Cu8 H12 C32 S4 O32"
_cell_length_a       7.283
_cell_length_b       18.119
_cell_length_c       12.1497
_cell_angle_alpha    90
_cell_angle_beta     122.6
_cell_angle_gamma    90

_symmetry_space_group_name_H-M    "P 1"
_symmetry_Int_Tables_number       1

loop_
  _symmetry_equiv_pos_as_xyz
  'x, y, z'

loop_
  _atom_site_type_symbol
  _atom_site_label
  _atom_site_symmetry_multiplicity
  _atom_site_fract_x
  _atom_site_fract_y
  _atom_site_fract_z
  _atom_site_occupancy
  _atom_site_charge
Cu  Cu1       1.0  0.35176  0.09426  0.21424  1.0000 1.0397662251
Cu  Cu2       1.0  0.64824  0.59426  0.28576  1.0000 1.0397662251
Cu  Cu3       1.0  0.64824  0.90574  0.78576  1.0000 1.0397662251
Cu  Cu4       1.0  0.35176  0.40574  0.71424  1.0000 1.0397662251
Cu  Cu5       1.0  0.89288  0.06844  0.92923  1.0000 1.1485340326
Cu  Cu6       1.0  0.10712  0.56844  0.57077  1.0000 1.1485340326
Cu  Cu7       1.0  0.10712  0.93156  0.07077  1.0000 1.1485340326
Cu  Cu8       1.0  0.89288  0.43156  0.42923  1.0000 1.1485340326
H   H1        1.0  0.38860  0.30830  0.16400  1.0000 0.1494355554
H   H2        1.0  0.61140  0.80830  0.33600  1.0000 0.1494355554
H   H3        1.0  0.61140  0.69170  0.83600  1.0000 0.1494355554
H   H4        1.0  0.38860  0.19170  0.66400  1.0000 0.1494355554
H   H5        1.0  0.86690  0.29360  0.79970  1.0000 0.1494355554
H   H6        1.0  0.13310  0.79360  0.70030  1.0000 0.1494355554
H   H7        1.0  0.13310  0.70640  0.20030  1.0000 0.1494355554
H   H8        1.0  0.86690  0.20640  0.29970  1.0000 0.1494355554
H   H9        1.0  0.16700  0.48810  0.93800  1.0000 0.1494355554
H   H10       1.0  0.83300  0.98810  0.56200  1.0000 0.1494355554
H   H11       1.0  0.83300  0.51190  0.06200  1.0000 0.1494355554
H   H12       1.0  0.16700  0.01190  0.43800  1.0000 0.1494355554
C   C1        1.0  0.99520  0.39600  0.84960  1.0000 -0.0714008779
C   C2        1.0  0.00480  0.89600  0.65040  1.0000 -0.0714008779
C   C3        1.0  0.00480  0.60400  0.15040  1.0000 -0.0714008779
C   C4        1.0  0.99520  0.10400  0.34960  1.0000 -0.0714008779
C   C5        1.0  0.30420  0.40510  0.06890  1.0000 -0.0066312171
C   C6        1.0  0.69580  0.90510  0.43110  1.0000 -0.0066312171
C   C7        1.0  0.69580  0.59490  0.93110  1.0000 -0.0066312171
C   C8        1.0  0.30420  0.09490  0.56890  1.0000 -0.0066312171
C   C9        1.0  0.28780  0.33040  0.08470  1.0000 -0.07866938
C   C10       1.0  0.71220  0.83040  0.41530  1.0000 -0.07866938
C   C11       1.0  0.71220  0.66960  0.91530  1.0000 -0.07866938
C   C12       1.0  0.28780  0.16960  0.58470  1.0000 -0.07866938
C   C13       1.0  0.12430  0.28750  0.98510  1.0000 -0.0236524371
C   C14       1.0  0.87570  0.78750  0.51490  1.0000 -0.0236524371
C   C15       1.0  0.87570  0.71250  0.01490  1.0000 -0.0236524371
C   C16       1.0  0.12430  0.21250  0.48510  1.0000 -0.0236524371
C   C17       1.0  0.11240  0.20800  0.00820  1.0000 0.6193234949
C   C18       1.0  0.88760  0.70800  0.49180  1.0000 0.6193234949
C   C19       1.0  0.88760  0.79200  0.99180  1.0000 0.6193234949
C   C20       1.0  0.11240  0.29200  0.50820  1.0000 0.6193234949
C   C21       1.0  0.97800  0.32130  0.86750  1.0000 -0.07866938
C   C22       1.0  0.02200  0.82130  0.63250  1.0000 -0.07866938
C   C23       1.0  0.02200  0.67870  0.13250  1.0000 -0.07866938
C   C24       1.0  0.97800  0.17870  0.36750  1.0000 -0.07866938
C   C25       1.0  0.15700  0.43790  0.95010  1.0000 -0.07866938
C   C26       1.0  0.84300  0.93790  0.54990  1.0000 -0.07866938
C   C27       1.0  0.84300  0.56210  0.04990  1.0000 -0.07866938
C   C28       1.0  0.15700  0.06210  0.45010  1.0000 -0.07866938
C   C29       1.0  0.48950  0.44690  0.18000  1.0000 0.6102025538
C   C30       1.0  0.51050  0.94690  0.32000  1.0000 0.6102025538
C   C31       1.0  0.51050  0.55310  0.82000  1.0000 0.6102025538
C   C32       1.0  0.48950  0.05310  0.68000  1.0000 0.6102025538
S   S1        1.0  0.82103  0.43513  0.69243  1.0000 1.180565837
S   S2        1.0  0.17897  0.93513  0.80757  1.0000 1.180565837
S   S3        1.0  0.17897  0.56487  0.30757  1.0000 1.180565837
S   S4        1.0  0.82103  0.06487  0.19243  1.0000 1.180565837
O   O1        1.0  0.97410  0.16780  0.91590  1.0000 -0.5119444401
O   O2        1.0  0.02590  0.66780  0.58410  1.0000 -0.5119444401
O   O3        1.0  0.02590  0.83220  0.08410  1.0000 -0.5119444401
O   O4        1.0  0.97410  0.33220  0.41590  1.0000 -0.5119444401
O   O5        1.0  0.18950  0.03400  0.05770  1.0000 -0.9053301484
O   O6        1.0  0.81050  0.53400  0.44230  1.0000 -0.9053301484
O   O7        1.0  0.81050  0.96600  0.94230  1.0000 -0.9053301484
O   O8        1.0  0.18950  0.46600  0.55770  1.0000 -0.9053301484
O   O9        1.0  0.50920  0.51370  0.16320  1.0000 -0.5464597465
O   O10       1.0  0.49080  0.01370  0.33680  1.0000 -0.5464597465
O   O11       1.0  0.49080  0.48630  0.83680  1.0000 -0.5464597465
O   O12       1.0  0.50920  0.98630  0.66320  1.0000 -0.5464597465
O   O13       1.0  0.25110  0.18620  0.12350  1.0000 -0.5402093203
O   O14       1.0  0.74890  0.68620  0.37650  1.0000 -0.5402093203
O   O15       1.0  0.74890  0.81380  0.87650  1.0000 -0.5402093203
O   O16       1.0  0.25110  0.31380  0.62350  1.0000 -0.5402093203
O   O17       1.0  0.85330  0.51300  0.70280  1.0000 -0.5268790246
O   O18       1.0  0.14670  0.01300  0.79720  1.0000 -0.5268790246
O   O19       1.0  0.14670  0.48700  0.29720  1.0000 -0.5268790246
O   O20       1.0  0.85330  0.98700  0.20280  1.0000 -0.5268790246
O   O21       1.0  0.61060  0.41040  0.28220  1.0000 -0.5010724933
O   O22       1.0  0.38940  0.91040  0.21780  1.0000 -0.5010724933
O   O23       1.0  0.38940  0.58960  0.71780  1.0000 -0.5010724933
O   O24       1.0  0.61060  0.08960  0.78220  1.0000 -0.5010724933
O   O25       1.0  0.89030  0.40090  0.61380  1.0000 -0.6306512178
O   O26       1.0  0.10970  0.90090  0.88620  1.0000 -0.6306512178
O   O27       1.0  0.10970  0.59910  0.38620  1.0000 -0.6306512178
O   O28       1.0  0.89030  0.09910  0.11380  1.0000 -0.6306512178
O   O29       1.0  0.60600  0.41080  0.64980  1.0000 -0.5464597465
O   O30       1.0  0.39400  0.91080  0.85020  1.0000 -0.5464597465
O   O31       1.0  0.39400  0.58920  0.35020  1.0000 -0.5464597465
O   O32       1.0  0.60600  0.08920  0.14980  1.0000 -0.5464597465
