# DDEC6 charges by PACMAN v1.1 (https://github.com/mtap-research/PACMAN-charge/)
data_2010[Zn][neb]3[ASR]1
_chemical_formula_sum              "Zn8 H96 C132 O48"
_cell_length_a       17.2089
_cell_length_b       17.2089
_cell_length_c       30.972
_cell_angle_alpha    65.0554
_cell_angle_beta     114.945
_cell_angle_gamma    137.558

_symmetry_space_group_name_H-M    "P 1"
_symmetry_Int_Tables_number       1

loop_
  _symmetry_equiv_pos_as_xyz
  'x, y, z'

loop_
  _atom_site_type_symbol
  _atom_site_label
  _atom_site_symmetry_multiplicity
  _atom_site_fract_x
  _atom_site_fract_y
  _atom_site_fract_z
  _atom_site_occupancy
  _atom_site_charge
Zn  Zn1       1.0  0.58755  0.27945  0.67179  1.0000 0.9398815361
Zn  Zn2       1.0  0.72055  0.41245  0.17179  1.0000 0.9398815361
Zn  Zn3       1.0  0.51666  0.20372  0.24378  1.0000 0.9547681687
Zn  Zn4       1.0  0.79628  0.48334  0.74378  1.0000 0.9559165317
Zn  Zn5       1.0  0.27945  0.58755  0.82821  1.0000 0.9398815361
Zn  Zn6       1.0  0.41245  0.72055  0.32821  1.0000 0.9398815361
Zn  Zn7       1.0  0.20372  0.51666  0.25622  1.0000 0.9559165317
Zn  Zn8       1.0  0.48334  0.79628  0.75622  1.0000 0.9559165317
H   H1        1.0  0.31080  0.11860  0.73950  1.0000 0.1101877831
H   H2        1.0  0.88140  0.68920  0.23950  1.0000 0.1101877831
H   H3        1.0  0.18060  0.05900  0.77950  1.0000 0.1212590266
H   H4        1.0  0.94100  0.81940  0.27950  1.0000 0.1212590266
H   H5        1.0  0.44260  0.35880  0.83540  1.0000 0.1384715465
H   H6        1.0  0.64120  0.55740  0.33540  1.0000 0.1384715465
H   H7        1.0  0.57060  0.41560  0.79490  1.0000 0.1212590266
H   H8        1.0  0.58440  0.42940  0.29490  1.0000 0.1212590266
H   H9        1.0  0.06680  0.04280  0.81490  1.0000 0.1101877831
H   H10       1.0  0.95720  0.93320  0.31490  1.0000 0.1101877831
H   H11       1.0  0.13150  0.00130  0.85610  1.0000 0.1000094988
H   H12       1.0  0.99870  0.86850  0.35610  1.0000 0.1000094988
H   H13       1.0  0.97230  0.36530  0.81280  1.0000 0.1313543675
H   H14       1.0  0.63470  0.02770  0.31280  1.0000 0.1313543675
H   H15       1.0  0.05280  0.28440  0.84700  1.0000 0.1313543675
H   H16       1.0  0.71560  0.94720  0.34700  1.0000 0.1313543675
H   H17       1.0  0.78710  0.02830  0.76600  1.0000 0.1313543675
H   H18       1.0  0.97170  0.21290  0.26600  1.0000 0.1313543675
H   H19       1.0  0.70780  0.11180  0.73180  1.0000 0.1212590266
H   H20       1.0  0.88820  0.29220  0.23180  1.0000 0.1212590266
H   H21       1.0  0.98200  0.63660  0.07020  1.0000 0.1212590266
H   H22       1.0  0.36340  0.01800  0.57020  1.0000 0.1212590266
H   H23       1.0  0.06600  0.76620  0.99990  1.0000 0.1313543675
H   H24       1.0  0.23380  0.93400  0.49990  1.0000 0.1313543675
H   H25       1.0  0.81340  0.77320  0.94940  1.0000 0.1212590266
H   H26       1.0  0.22680  0.18660  0.44940  1.0000 0.1212590266
H   H27       1.0  0.73680  0.65160  0.01910  1.0000 0.1212590266
H   H28       1.0  0.34840  0.26320  0.51910  1.0000 0.1212590266
H   H29       1.0  0.49750  0.28010  0.05810  1.0000 0.1313543675
H   H30       1.0  0.71990  0.50250  0.55810  1.0000 0.1313543675
H   H31       1.0  0.37430  0.21850  0.98520  1.0000 0.1212590266
H   H32       1.0  0.78150  0.62570  0.48520  1.0000 0.1212590266
H   H33       1.0  0.09380  0.98620  0.05060  1.0000 0.1384715465
H   H34       1.0  0.01380  0.90620  0.55060  1.0000 0.1384715465
H   H35       1.0  0.21750  0.04570  0.12390  1.0000 0.1101877831
H   H36       1.0  0.95430  0.78250  0.62390  1.0000 0.1101877831
H   H37       1.0  0.25180  0.18100  0.92050  1.0000 0.1000094988
H   H38       1.0  0.81900  0.74820  0.42050  1.0000 0.1000094988
H   H39       1.0  0.21640  0.05800  0.93500  1.0000 0.1000094988
H   H40       1.0  0.94200  0.78360  0.43500  1.0000 0.1000094988
H   H41       1.0  0.91730  0.89590  0.86800  1.0000 0.1101877831
H   H42       1.0  0.10410  0.08270  0.36800  1.0000 0.1000094988
H   H43       1.0  0.93730  0.92770  0.91570  1.0000 0.1000094988
H   H44       1.0  0.07230  0.06270  0.41570  1.0000 0.1000094988
H   H45       1.0  0.13670  0.21590  0.85470  1.0000 0.1101877831
H   H46       1.0  0.78410  0.86330  0.35470  1.0000 0.1101877831
H   H47       1.0  0.05290  0.13890  0.89350  1.0000 0.1000094988
H   H48       1.0  0.86110  0.94710  0.39350  1.0000 0.1101877831
H   H49       1.0  0.11860  0.31080  0.76050  1.0000 0.1101877831
H   H50       1.0  0.68920  0.88140  0.26050  1.0000 0.1101877831
H   H51       1.0  0.05900  0.18060  0.72050  1.0000 0.1212590266
H   H52       1.0  0.81940  0.94100  0.22050  1.0000 0.1212590266
H   H53       1.0  0.35880  0.44260  0.66460  1.0000 0.1384715465
H   H54       1.0  0.55740  0.64120  0.16460  1.0000 0.1384715465
H   H55       1.0  0.41560  0.57060  0.70510  1.0000 0.1212590266
H   H56       1.0  0.42940  0.58440  0.20510  1.0000 0.1212590266
H   H57       1.0  0.04280  0.06680  0.68510  1.0000 0.1101877831
H   H58       1.0  0.93320  0.95720  0.18510  1.0000 0.1101877831
H   H59       1.0  0.00130  0.13150  0.64390  1.0000 0.1000094988
H   H60       1.0  0.86850  0.99870  0.14390  1.0000 0.1000094988
H   H61       1.0  0.36530  0.97230  0.68720  1.0000 0.1313543675
H   H62       1.0  0.02770  0.63470  0.18720  1.0000 0.1313543675
H   H63       1.0  0.28440  0.05280  0.65300  1.0000 0.1313543675
H   H64       1.0  0.94720  0.71560  0.15300  1.0000 0.1313543675
H   H65       1.0  0.02830  0.78710  0.73400  1.0000 0.1313543675
H   H66       1.0  0.21290  0.97170  0.23400  1.0000 0.1313543675
H   H67       1.0  0.11180  0.70780  0.76820  1.0000 0.1212590266
H   H68       1.0  0.29220  0.88820  0.26820  1.0000 0.1212590266
H   H69       1.0  0.63660  0.98200  0.42980  1.0000 0.1212590266
H   H70       1.0  0.01800  0.36340  0.92980  1.0000 0.1212590266
H   H71       1.0  0.76620  0.06600  0.50010  1.0000 0.1313543675
H   H72       1.0  0.93400  0.23380  0.00010  1.0000 0.1313543675
H   H73       1.0  0.77320  0.81340  0.55060  1.0000 0.1212590266
H   H74       1.0  0.18660  0.22680  0.05060  1.0000 0.1212590266
H   H75       1.0  0.65160  0.73680  0.48090  1.0000 0.1212590266
H   H76       1.0  0.26320  0.34840  0.98090  1.0000 0.1212590266
H   H77       1.0  0.28010  0.49750  0.44190  1.0000 0.1313543675
H   H78       1.0  0.50250  0.71990  0.94190  1.0000 0.1313543675
H   H79       1.0  0.21850  0.37430  0.51480  1.0000 0.1212590266
H   H80       1.0  0.62570  0.78150  0.01480  1.0000 0.1212590266
H   H81       1.0  0.98620  0.09380  0.44940  1.0000 0.1384715465
H   H82       1.0  0.90620  0.01380  0.94940  1.0000 0.1384715465
H   H83       1.0  0.04570  0.21750  0.37610  1.0000 0.1101877831
H   H84       1.0  0.78250  0.95430  0.87610  1.0000 0.1101877831
H   H85       1.0  0.18100  0.25180  0.57950  1.0000 0.1000094988
H   H86       1.0  0.74820  0.81900  0.07950  1.0000 0.1000094988
H   H87       1.0  0.05800  0.21640  0.56500  1.0000 0.1000094988
H   H88       1.0  0.78360  0.94200  0.06500  1.0000 0.1000094988
H   H89       1.0  0.89590  0.91730  0.63200  1.0000 0.1101877831
H   H90       1.0  0.08270  0.10410  0.13200  1.0000 0.1000094988
H   H91       1.0  0.92770  0.93730  0.58430  1.0000 0.1000094988
H   H92       1.0  0.06270  0.07230  0.08430  1.0000 0.1000094988
H   H93       1.0  0.21590  0.13670  0.64530  1.0000 0.1101877831
H   H94       1.0  0.86330  0.78410  0.14530  1.0000 0.1101877831
H   H95       1.0  0.13890  0.05290  0.60650  1.0000 0.1000094988
H   H96       1.0  0.94710  0.86110  0.10650  1.0000 0.1000094988
C   C1        1.0  0.53772  0.31108  0.73868  1.0000 0.6090403728
C   C2        1.0  0.68892  0.46228  0.23868  1.0000 0.6090403728
C   C3        1.0  0.45289  0.27331  0.76308  1.0000 -0.0593259859
C   C4        1.0  0.72669  0.54711  0.26308  1.0000 -0.0593259859
C   C5        1.0  0.33740  0.16720  0.75899  1.0000 -0.0713526681
C   C6        1.0  0.83280  0.66260  0.25899  1.0000 -0.0713526681
C   C7        1.0  0.25995  0.13085  0.78298  1.0000 -0.2395228929
C   C8        1.0  0.86915  0.74005  0.28298  1.0000 -0.2395228929
C   C9        1.0  0.30120  0.20200  0.81214  1.0000 0.2513079521
C   C10       1.0  0.79800  0.69880  0.31214  1.0000 0.2513079521
C   C11       1.0  0.41611  0.30949  0.81626  1.0000 -0.2270223533
C   C12       1.0  0.69051  0.58389  0.31626  1.0000 -0.2270223533
C   C13       1.0  0.49149  0.34331  0.79181  1.0000 -0.0805779008
C   C14       1.0  0.65669  0.50851  0.29181  1.0000 -0.0805779008
C   C15       1.0  0.12461  0.05919  0.84539  1.0000 -0.0898086085
C   C16       1.0  0.94081  0.87539  0.34539  1.0000 -0.0898086085
C   C17       1.0  0.08736  0.05364  0.88446  1.0000 0.0852534426
C   C18       1.0  0.94636  0.91264  0.38446  1.0000 0.0848739771
C   C19       1.0  0.77598  0.29482  0.74839  1.0000 0.6090403728
C   C20       1.0  0.70518  0.22402  0.24839  1.0000 0.6090403728
C   C21       1.0  0.83030  0.24570  0.76947  1.0000 -0.0593259859
C   C22       1.0  0.75430  0.16970  0.26947  1.0000 -0.0593259859
C   C23       1.0  0.93426  0.29634  0.80346  1.0000 -0.0593259859
C   C24       1.0  0.70366  0.06574  0.30346  1.0000 -0.0593259859
C   C25       1.0  0.98254  0.24886  0.82368  1.0000 -0.2270223533
C   C26       1.0  0.75114  0.01746  0.32368  1.0000 -0.2270223533
C   C27       1.0  0.92908  0.14972  0.81013  1.0000 0.2513079521
C   C28       1.0  0.85028  0.07092  0.31013  1.0000 0.2513079521
C   C29       1.0  0.82458  0.09682  0.77547  1.0000 -0.2209485643
C   C30       1.0  0.90318  0.17542  0.27547  1.0000 -0.2209485643
C   C31       1.0  0.77736  0.14624  0.75547  1.0000 -0.0713526681
C   C32       1.0  0.85376  0.22264  0.25547  1.0000 -0.0713526681
C   C33       1.0  0.79721  0.55059  0.09703  1.0000 0.5371149359
C   C34       1.0  0.44941  0.20279  0.59703  1.0000 0.5371149359
C   C35       1.0  0.85259  0.63341  0.05145  1.0000 -0.0335677015
C   C36       1.0  0.36659  0.14741  0.55145  1.0000 -0.0335677015
C   C37       1.0  0.94847  0.66593  0.04559  1.0000 -0.0898086085
C   C38       1.0  0.33407  0.05153  0.54559  1.0000 -0.0898086085
C   C39       1.0  0.99847  0.74253  0.00358  1.0000 -0.2209485643
C   C40       1.0  0.25747  0.00153  0.50358  1.0000 -0.2209485643
C   C41       1.0  0.94685  0.78175  0.96816  1.0000 0.2402950516
C   C42       1.0  0.21825  0.05315  0.46816  1.0000 0.2402950516
C   C43       1.0  0.84938  0.74662  0.97423  1.0000 -0.2270223533
C   C44       1.0  0.25338  0.15062  0.47423  1.0000 -0.2270223533
C   C45       1.0  0.80369  0.67411  0.01545  1.0000 -0.0898086085
C   C46       1.0  0.32589  0.19631  0.51545  1.0000 -0.0898086085
C   C47       1.0  0.45070  0.20670  0.14521  1.0000 0.6090403728
C   C48       1.0  0.79330  0.54930  0.64521  1.0000 0.6090403728
C   C49       1.0  0.41520  0.22000  0.05666  1.0000 -0.0593259859
C   C50       1.0  0.78000  0.58480  0.55666  1.0000 -0.0593259859
C   C51       1.0  0.34223  0.18437  0.01327  1.0000 -0.2395228929
C   C52       1.0  0.81563  0.65777  0.51327  1.0000 -0.2395228929
C   C53       1.0  0.22185  0.09855  0.01062  1.0000 0.2590046105
C   C54       1.0  0.90145  0.77815  0.51062  1.0000 0.2590046105
C   C55       1.0  0.17617  0.04643  0.05211  1.0000 -0.2209485643
C   C56       1.0  0.95357  0.82383  0.55211  1.0000 -0.2209485643
C   C57       1.0  0.24972  0.08168  0.09567  1.0000 -0.0898086085
C   C58       1.0  0.91832  0.75028  0.59567  1.0000 -0.0898086085
C   C59       1.0  0.18663  0.09497  0.92768  1.0000 -0.100112957
C   C60       1.0  0.90503  0.81337  0.42768  1.0000 -0.100112957
C   C61       1.0  0.97344  0.92796  0.89775  1.0000 -0.0898086085
C   C62       1.0  0.07204  0.02656  0.39775  1.0000 -0.0805779008
C   C63       1.0  0.06684  0.13576  0.86663  1.0000 -0.0898086085
C   C64       1.0  0.86424  0.93316  0.36663  1.0000 -0.0898086085
C   C65       1.0  0.36956  0.16864  0.09860  1.0000 -0.0518058567
C   C66       1.0  0.83136  0.63044  0.59860  1.0000 -0.0518058567
C   C67       1.0  0.31108  0.53772  0.76132  1.0000 0.6090403728
C   C68       1.0  0.46228  0.68892  0.26132  1.0000 0.6090403728
C   C69       1.0  0.27331  0.45289  0.73692  1.0000 -0.0593259859
C   C70       1.0  0.54711  0.72669  0.23692  1.0000 -0.0593259859
C   C71       1.0  0.16720  0.33740  0.74101  1.0000 -0.0713526681
C   C72       1.0  0.66260  0.83280  0.24101  1.0000 -0.0713526681
C   C73       1.0  0.13085  0.25995  0.71702  1.0000 -0.2395228929
C   C74       1.0  0.74005  0.86915  0.21702  1.0000 -0.2451978298
C   C75       1.0  0.20200  0.30120  0.68786  1.0000 0.2513079521
C   C76       1.0  0.69880  0.79800  0.18786  1.0000 0.2513079521
C   C77       1.0  0.30949  0.41611  0.68374  1.0000 -0.2270223533
C   C78       1.0  0.58389  0.69051  0.18374  1.0000 -0.2270223533
C   C79       1.0  0.34331  0.49149  0.70819  1.0000 -0.0805779008
C   C80       1.0  0.50851  0.65669  0.20819  1.0000 -0.0805779008
C   C81       1.0  0.05919  0.12461  0.65461  1.0000 -0.0898086085
C   C82       1.0  0.87539  0.94081  0.15461  1.0000 -0.0898086085
C   C83       1.0  0.05364  0.08736  0.61554  1.0000 0.0852534426
C   C84       1.0  0.91264  0.94636  0.11554  1.0000 0.0848739771
C   C85       1.0  0.29482  0.77598  0.75161  1.0000 0.6090403728
C   C86       1.0  0.22402  0.70518  0.25161  1.0000 0.6090403728
C   C87       1.0  0.24570  0.83030  0.73053  1.0000 -0.0593259859
C   C88       1.0  0.16970  0.75430  0.23053  1.0000 -0.0593259859
C   C89       1.0  0.29634  0.93426  0.69654  1.0000 -0.0593259859
C   C90       1.0  0.06574  0.70366  0.19654  1.0000 -0.0593259859
C   C91       1.0  0.24886  0.98254  0.67632  1.0000 -0.2270223533
C   C92       1.0  0.01746  0.75114  0.17632  1.0000 -0.2270223533
C   C93       1.0  0.14972  0.92908  0.68987  1.0000 0.2513079521
C   C94       1.0  0.07092  0.85028  0.18987  1.0000 0.2513079521
C   C95       1.0  0.09682  0.82458  0.72453  1.0000 -0.2209485643
C   C96       1.0  0.17542  0.90318  0.22453  1.0000 -0.2209485643
C   C97       1.0  0.14624  0.77736  0.74453  1.0000 -0.0713526681
C   C98       1.0  0.22264  0.85376  0.24453  1.0000 -0.0713526681
C   C99       1.0  0.55059  0.79721  0.40297  1.0000 0.5371149359
C   C100      1.0  0.20279  0.44941  0.90297  1.0000 0.5371149359
C   C101      1.0  0.63341  0.85259  0.44855  1.0000 -0.0335677015
C   C102      1.0  0.14741  0.36659  0.94855  1.0000 -0.0335677015
C   C103      1.0  0.66593  0.94847  0.45441  1.0000 -0.0898086085
C   C104      1.0  0.05153  0.33407  0.95441  1.0000 -0.0898086085
C   C105      1.0  0.74253  0.99847  0.49642  1.0000 -0.2209485643
C   C106      1.0  0.00153  0.25747  0.99642  1.0000 -0.2209485643
C   C107      1.0  0.78175  0.94685  0.53184  1.0000 0.2402950516
C   C108      1.0  0.05315  0.21825  0.03184  1.0000 0.2402950516
C   C109      1.0  0.74662  0.84938  0.52577  1.0000 -0.2270223533
C   C110      1.0  0.15062  0.25338  0.02577  1.0000 -0.2270223533
C   C111      1.0  0.67411  0.80369  0.48455  1.0000 -0.0898086085
C   C112      1.0  0.19631  0.32589  0.98455  1.0000 -0.0898086085
C   C113      1.0  0.20670  0.45070  0.35479  1.0000 0.6090403728
C   C114      1.0  0.54930  0.79330  0.85479  1.0000 0.6049825428
C   C115      1.0  0.22000  0.41520  0.44334  1.0000 -0.0593259859
C   C116      1.0  0.58480  0.78000  0.94334  1.0000 -0.0593259859
C   C117      1.0  0.18437  0.34223  0.48673  1.0000 -0.2395228929
C   C118      1.0  0.65777  0.81563  0.98673  1.0000 -0.2395228929
C   C119      1.0  0.09855  0.22185  0.48938  1.0000 0.2590046105
C   C120      1.0  0.77815  0.90145  0.98938  1.0000 0.2590046105
C   C121      1.0  0.04643  0.17617  0.44789  1.0000 -0.2209485643
C   C122      1.0  0.82383  0.95357  0.94789  1.0000 -0.2209485643
C   C123      1.0  0.08168  0.24972  0.40433  1.0000 -0.0898086085
C   C124      1.0  0.75028  0.91832  0.90433  1.0000 -0.0898086085
C   C125      1.0  0.09497  0.18663  0.57232  1.0000 -0.100112957
C   C126      1.0  0.81337  0.90503  0.07232  1.0000 -0.100112957
C   C127      1.0  0.92796  0.97344  0.60225  1.0000 -0.0805779008
C   C128      1.0  0.02656  0.07204  0.10225  1.0000 -0.0805779008
C   C129      1.0  0.13576  0.06684  0.63337  1.0000 -0.0898086085
C   C130      1.0  0.93316  0.86424  0.13337  1.0000 -0.0898086085
C   C131      1.0  0.16864  0.36956  0.40140  1.0000 -0.0518058567
C   C132      1.0  0.63044  0.83136  0.90140  1.0000 -0.0518058567
O   O1        1.0  0.68028  0.24092  0.71960  1.0000 -0.5486423569
O   O2        1.0  0.75908  0.31972  0.21960  1.0000 -0.5486423569
O   O3        1.0  0.50049  0.24759  0.71147  1.0000 -0.5486423569
O   O4        1.0  0.75241  0.49951  0.21147  1.0000 -0.5486423569
O   O5        1.0  0.96716  0.09266  0.82835  1.0000 -0.1879722002
O   O6        1.0  0.90734  0.03284  0.32835  1.0000 -0.1879722002
O   O7        1.0  0.55873  0.28153  0.14505  1.0000 -0.5680104169
O   O8        1.0  0.71847  0.44127  0.64505  1.0000 -0.5680104169
O   O9        1.0  0.40791  0.16071  0.18237  1.0000 -0.5425439151
O   O10       1.0  0.83929  0.59209  0.68237  1.0000 -0.5425439151
O   O11       1.0  0.99978  0.85662  0.92738  1.0000 -0.1879722002
O   O12       1.0  0.14338  0.00022  0.42738  1.0000 -0.1879722002
O   O13       1.0  0.71916  0.53544  0.10242  1.0000 -0.5425439151
O   O14       1.0  0.46456  0.28084  0.60242  1.0000 -0.5425439151
O   O15       1.0  0.14268  0.06288  0.96878  1.0000 -0.1879722002
O   O16       1.0  0.93712  0.85732  0.46878  1.0000 -0.1879722002
O   O17       1.0  0.64230  0.40610  0.74682  1.0000 -0.5828739228
O   O18       1.0  0.59390  0.35770  0.24682  1.0000 -0.5828739228
O   O19       1.0  0.83237  0.50203  0.12662  1.0000 -0.506868613
O   O20       1.0  0.49797  0.16763  0.62662  1.0000 -0.506868613
O   O21       1.0  0.82950  0.38770  0.76193  1.0000 -0.5877817842
O   O22       1.0  0.61230  0.17050  0.26193  1.0000 -0.5877817842
O   O23       1.0  0.23563  0.17563  0.83858  1.0000 -0.1824783357
O   O24       1.0  0.82437  0.76437  0.33858  1.0000 -0.1824783357
O   O25       1.0  0.24092  0.68028  0.78040  1.0000 -0.5486423569
O   O26       1.0  0.31972  0.75908  0.28040  1.0000 -0.5486423569
O   O27       1.0  0.24759  0.50049  0.78853  1.0000 -0.5486423569
O   O28       1.0  0.49951  0.75241  0.28853  1.0000 -0.5486423569
O   O29       1.0  0.09266  0.96716  0.67165  1.0000 -0.1879722002
O   O30       1.0  0.03284  0.90734  0.17165  1.0000 -0.1879722002
O   O31       1.0  0.28153  0.55873  0.35495  1.0000 -0.5680104169
O   O32       1.0  0.44127  0.71847  0.85495  1.0000 -0.5680104169
O   O33       1.0  0.16071  0.40791  0.31763  1.0000 -0.5425439151
O   O34       1.0  0.59209  0.83929  0.81763  1.0000 -0.5425439151
O   O35       1.0  0.85662  0.99978  0.57262  1.0000 -0.1879722002
O   O36       1.0  0.00022  0.14338  0.07262  1.0000 -0.1879722002
O   O37       1.0  0.53544  0.71916  0.39758  1.0000 -0.5425439151
O   O38       1.0  0.28084  0.46456  0.89758  1.0000 -0.5425439151
O   O39       1.0  0.06288  0.14268  0.53122  1.0000 -0.1879722002
O   O40       1.0  0.85732  0.93712  0.03122  1.0000 -0.1879722002
O   O41       1.0  0.40610  0.64230  0.75318  1.0000 -0.5828739228
O   O42       1.0  0.35770  0.59390  0.25318  1.0000 -0.5828739228
O   O43       1.0  0.50203  0.83237  0.37338  1.0000 -0.506868613
O   O44       1.0  0.16763  0.49797  0.87338  1.0000 -0.506868613
O   O45       1.0  0.38770  0.82950  0.73807  1.0000 -0.5877817842
O   O46       1.0  0.17050  0.61230  0.23807  1.0000 -0.5877817842
O   O47       1.0  0.17563  0.23563  0.66142  1.0000 -0.1824783357
O   O48       1.0  0.76437  0.82437  0.16142  1.0000 -0.1824783357
