# DDEC6 charges by PACMAN v1.1 (https://github.com/mtap-research/PACMAN-charge/)
data_2010[Cu][nan]3[ASR]21
_chemical_formula_sum              "Cu8 H12 C32 S4 O32"
_cell_length_a       7.315
_cell_length_b       18.168
_cell_length_c       12.1278
_cell_angle_alpha    90
_cell_angle_beta     122.819
_cell_angle_gamma    90

_symmetry_space_group_name_H-M    "P 1"
_symmetry_Int_Tables_number       1

loop_
  _symmetry_equiv_pos_as_xyz
  'x, y, z'

loop_
  _atom_site_type_symbol
  _atom_site_label
  _atom_site_symmetry_multiplicity
  _atom_site_fract_x
  _atom_site_fract_y
  _atom_site_fract_z
  _atom_site_occupancy
  _atom_site_charge
Cu  Cu1       1.0  0.35104  0.09467  0.21556  1.0000 1.0469614338
Cu  Cu2       1.0  0.64896  0.59467  0.28444  1.0000 1.0469614338
Cu  Cu3       1.0  0.64896  0.90533  0.78444  1.0000 1.0469614338
Cu  Cu4       1.0  0.35104  0.40533  0.71556  1.0000 1.0469614338
Cu  Cu5       1.0  0.89105  0.06843  0.92958  1.0000 1.1455742788
Cu  Cu6       1.0  0.10895  0.56843  0.57042  1.0000 1.1455742788
Cu  Cu7       1.0  0.10895  0.93157  0.07042  1.0000 1.1444838714
Cu  Cu8       1.0  0.89105  0.43157  0.42958  1.0000 1.1444838714
H   H1        1.0  0.38310  0.30850  0.16500  1.0000 0.1491303863
H   H2        1.0  0.61690  0.80850  0.33500  1.0000 0.1491303863
H   H3        1.0  0.61690  0.69150  0.83500  1.0000 0.1491303863
H   H4        1.0  0.38310  0.19150  0.66500  1.0000 0.1491303863
H   H5        1.0  0.86360  0.29340  0.79760  1.0000 0.1491303863
H   H6        1.0  0.13640  0.79340  0.70240  1.0000 0.1491303863
H   H7        1.0  0.13640  0.70660  0.20240  1.0000 0.1491303863
H   H8        1.0  0.86360  0.20660  0.29760  1.0000 0.1491303863
H   H9        1.0  0.16540  0.48920  0.93730  1.0000 0.1491303863
H   H10       1.0  0.83460  0.98920  0.56270  1.0000 0.1491303863
H   H11       1.0  0.83460  0.51080  0.06270  1.0000 0.1491303863
H   H12       1.0  0.16540  0.01080  0.43730  1.0000 0.1491303863
C   C1        1.0  0.99310  0.39570  0.84970  1.0000 -0.0483127929
C   C2        1.0  0.00690  0.89570  0.65030  1.0000 -0.0483127929
C   C3        1.0  0.00690  0.60430  0.15030  1.0000 -0.0483127929
C   C4        1.0  0.99310  0.10430  0.34970  1.0000 -0.0483127929
C   C5        1.0  0.30080  0.40480  0.06760  1.0000 -0.0009907105
C   C6        1.0  0.69920  0.90480  0.43240  1.0000 -0.0009907105
C   C7        1.0  0.69920  0.59520  0.93240  1.0000 -0.0009907105
C   C8        1.0  0.30080  0.09520  0.56760  1.0000 -0.0009907105
C   C9        1.0  0.28370  0.33030  0.08470  1.0000 -0.0832351617
C   C10       1.0  0.71630  0.83030  0.41530  1.0000 -0.0832351617
C   C11       1.0  0.71630  0.66970  0.91530  1.0000 -0.0832351617
C   C12       1.0  0.28370  0.16970  0.58470  1.0000 -0.0832351617
C   C13       1.0  0.12150  0.28760  0.98450  1.0000 -0.0082256173
C   C14       1.0  0.87850  0.78760  0.51550  1.0000 -0.0082256173
C   C15       1.0  0.87850  0.71240  0.01550  1.0000 -0.0082256173
C   C16       1.0  0.12150  0.21240  0.48450  1.0000 -0.0082256173
C   C17       1.0  0.10930  0.20750  0.00810  1.0000 0.6199941334
C   C18       1.0  0.89070  0.70750  0.49190  1.0000 0.6199941334
C   C19       1.0  0.89070  0.79250  0.99190  1.0000 0.6199941334
C   C20       1.0  0.10930  0.29250  0.50810  1.0000 0.6199941334
C   C21       1.0  0.97440  0.32090  0.86600  1.0000 -0.0832351617
C   C22       1.0  0.02560  0.82090  0.63400  1.0000 -0.0832351617
C   C23       1.0  0.02560  0.67910  0.13400  1.0000 -0.0832351617
C   C24       1.0  0.97440  0.17910  0.36600  1.0000 -0.0832351617
C   C25       1.0  0.15530  0.43920  0.94950  1.0000 -0.0922586828
C   C26       1.0  0.84470  0.93920  0.55050  1.0000 -0.0922586828
C   C27       1.0  0.84470  0.56080  0.05050  1.0000 -0.0922586828
C   C28       1.0  0.15530  0.06080  0.44950  1.0000 -0.0922586828
C   C29       1.0  0.48570  0.44750  0.17840  1.0000 0.6199941334
C   C30       1.0  0.51430  0.94750  0.32160  1.0000 0.6199941334
C   C31       1.0  0.51430  0.55250  0.82160  1.0000 0.6199941334
C   C32       1.0  0.48570  0.05250  0.67840  1.0000 0.6199941334
S   S1        1.0  0.81483  0.43513  0.69063  1.0000 1.182491101
S   S2        1.0  0.18517  0.93513  0.80937  1.0000 1.182491101
S   S3        1.0  0.18517  0.56487  0.30937  1.0000 1.182491101
S   S4        1.0  0.81483  0.06487  0.19063  1.0000 1.182491101
O   O1        1.0  0.97250  0.16760  0.91480  1.0000 -0.508793943
O   O2        1.0  0.02750  0.66760  0.58520  1.0000 -0.508793943
O   O3        1.0  0.02750  0.83240  0.08520  1.0000 -0.508793943
O   O4        1.0  0.97250  0.33240  0.41480  1.0000 -0.508793943
O   O5        1.0  0.19000  0.03450  0.05810  1.0000 -0.9025819976
O   O6        1.0  0.81000  0.53450  0.44190  1.0000 -0.9025819976
O   O7        1.0  0.81000  0.96550  0.94190  1.0000 -0.9025819976
O   O8        1.0  0.19000  0.46550  0.55810  1.0000 -0.9025819976
O   O9        1.0  0.50510  0.51410  0.16260  1.0000 -0.5466601181
O   O10       1.0  0.49490  0.01410  0.33740  1.0000 -0.5466601181
O   O11       1.0  0.49490  0.48590  0.83740  1.0000 -0.5466601181
O   O12       1.0  0.50510  0.98590  0.66260  1.0000 -0.5466601181
O   O13       1.0  0.24740  0.18630  0.12410  1.0000 -0.5394979048
O   O14       1.0  0.75260  0.68630  0.37590  1.0000 -0.5394979048
O   O15       1.0  0.75260  0.81370  0.87590  1.0000 -0.5394979048
O   O16       1.0  0.24740  0.31370  0.62410  1.0000 -0.5394979048
O   O17       1.0  0.84280  0.51320  0.69970  1.0000 -0.5265784789
O   O18       1.0  0.15720  0.01320  0.80030  1.0000 -0.5265784789
O   O19       1.0  0.15720  0.48680  0.30030  1.0000 -0.5265784789
O   O20       1.0  0.84280  0.98680  0.19970  1.0000 -0.5245112706
O   O21       1.0  0.60670  0.41060  0.28170  1.0000 -0.5019567389
O   O22       1.0  0.39330  0.91060  0.21830  1.0000 -0.5019567389
O   O23       1.0  0.39330  0.58940  0.71830  1.0000 -0.5019567389
O   O24       1.0  0.60670  0.08940  0.78170  1.0000 -0.5019567389
O   O25       1.0  0.88520  0.40090  0.61100  1.0000 -0.6471591223
O   O26       1.0  0.11480  0.90090  0.88900  1.0000 -0.6471591223
O   O27       1.0  0.11480  0.59910  0.38900  1.0000 -0.6471591223
O   O28       1.0  0.88520  0.09910  0.11100  1.0000 -0.6471591223
O   O29       1.0  0.59510  0.40920  0.64640  1.0000 -0.572891407
O   O30       1.0  0.40490  0.90920  0.85360  1.0000 -0.572891407
O   O31       1.0  0.40490  0.59080  0.35360  1.0000 -0.572891407
O   O32       1.0  0.59510  0.09080  0.14640  1.0000 -0.572891407
