# DDEC6 charges by PACMAN v1.1 (https://github.com/mtap-research/PACMAN-charge/)
data_2010[CoCd][nan]3[ASR]1
_chemical_formula_sum              "Cd4 Co4 H32 C64 N20 O20"
_cell_length_a       11.152
_cell_length_b       6.958
_cell_length_c       26.118
_cell_angle_alpha    90
_cell_angle_beta     97.896
_cell_angle_gamma    90

_symmetry_space_group_name_H-M    "P 1"
_symmetry_Int_Tables_number       1

loop_
  _symmetry_equiv_pos_as_xyz
  'x, y, z'

loop_
  _atom_site_type_symbol
  _atom_site_label
  _atom_site_symmetry_multiplicity
  _atom_site_fract_x
  _atom_site_fract_y
  _atom_site_fract_z
  _atom_site_occupancy
  _atom_site_charge
Cd  Cd1       1.0  0.62995  0.83239  0.87361  1.0000 0.9236724185
Cd  Cd2       1.0  0.37005  0.33239  0.62639  1.0000 0.9236724185
Cd  Cd3       1.0  0.37005  0.16761  0.12639  1.0000 0.9236724185
Cd  Cd4       1.0  0.62995  0.66761  0.37361  1.0000 0.9236724185
Co  Co1       1.0  0.49576  0.08231  0.75020  1.0000 0.8477957951
Co  Co2       1.0  0.50424  0.58231  0.74980  1.0000 0.8477957951
Co  Co3       1.0  0.50424  0.91769  0.24980  1.0000 0.8477957951
Co  Co4       1.0  0.49576  0.41769  0.25020  1.0000 0.8477957951
H   H1        1.0  0.53080  0.23980  0.96470  1.0000 0.1314239683
H   H2        1.0  0.46920  0.73980  0.53530  1.0000 0.1314239683
H   H3        1.0  0.46920  0.76020  0.03530  1.0000 0.1314239683
H   H4        1.0  0.53080  0.26020  0.46470  1.0000 0.1314239683
H   H5        1.0  0.05980  0.95110  0.81680  1.0000 0.1314239683
H   H6        1.0  0.94020  0.45110  0.68320  1.0000 0.1314239683
H   H7        1.0  0.94020  0.04890  0.18320  1.0000 0.1314239683
H   H8        1.0  0.05980  0.54890  0.31680  1.0000 0.1314239683
H   H9        1.0  0.77050  0.36470  0.08880  1.0000 0.1209094817
H   H10       1.0  0.22950  0.86470  0.41120  1.0000 0.1209094817
H   H11       1.0  0.22950  0.63530  0.91120  1.0000 0.1209094817
H   H12       1.0  0.77050  0.13530  0.58880  1.0000 0.1209094817
H   H13       1.0  0.31810  0.17990  0.92150  1.0000 0.1209094817
H   H14       1.0  0.68190  0.67990  0.57850  1.0000 0.1209094817
H   H15       1.0  0.68190  0.82010  0.07850  1.0000 0.1209094817
H   H16       1.0  0.31810  0.32010  0.42150  1.0000 0.1209094817
H   H17       1.0  0.85990  0.43780  0.94660  1.0000 0.1314239683
H   H18       1.0  0.14010  0.93780  0.55340  1.0000 0.1314239683
H   H19       1.0  0.14010  0.56220  0.05340  1.0000 0.1314239683
H   H20       1.0  0.85990  0.06220  0.44660  1.0000 0.1314239683
H   H21       1.0  0.91050  0.44880  0.03500  1.0000 0.1209094817
H   H22       1.0  0.08950  0.94880  0.46500  1.0000 0.1209094817
H   H23       1.0  0.08950  0.55120  0.96500  1.0000 0.1209094817
H   H24       1.0  0.91050  0.05120  0.53500  1.0000 0.1209094817
H   H25       1.0  0.18860  0.16490  0.98340  1.0000 0.1314239683
H   H26       1.0  0.81140  0.66490  0.51660  1.0000 0.1314239683
H   H27       1.0  0.81140  0.83510  0.01660  1.0000 0.1314239683
H   H28       1.0  0.18860  0.33510  0.48340  1.0000 0.1314239683
H   H29       1.0  0.99340  0.05320  0.96070  1.0000 0.1142412232
H   H30       1.0  0.00660  0.55320  0.53930  1.0000 0.1142412232
H   H31       1.0  0.00660  0.94680  0.03930  1.0000 0.1142412232
H   H32       1.0  0.99340  0.44680  0.46070  1.0000 0.1142412232
C   C1        1.0  0.65370  0.33350  0.89028  1.0000 0.2687582182
C   C2        1.0  0.34630  0.83350  0.60972  1.0000 0.2687582182
C   C3        1.0  0.34630  0.66650  0.10972  1.0000 0.2687582182
C   C4        1.0  0.65370  0.16650  0.39028  1.0000 0.2687582182
C   C5        1.0  0.60690  0.28340  0.97893  1.0000 -0.1167993589
C   C6        1.0  0.39310  0.78340  0.52107  1.0000 -0.1167993589
C   C7        1.0  0.39310  0.71660  0.02107  1.0000 -0.1167993589
C   C8        1.0  0.60690  0.21660  0.47893  1.0000 -0.1167993589
C   C9        1.0  0.00690  0.98910  0.88683  1.0000 -0.0115389076
C   C10       1.0  0.99310  0.48910  0.61317  1.0000 -0.0115389076
C   C11       1.0  0.99310  0.01090  0.11317  1.0000 -0.0115389076
C   C12       1.0  0.00690  0.51090  0.38683  1.0000 -0.0115389076
C   C13       1.0  0.08500  0.99490  0.85015  1.0000 -0.1331263674
C   C14       1.0  0.91500  0.49490  0.64985  1.0000 -0.1331263674
C   C15       1.0  0.91500  0.00510  0.14985  1.0000 -0.1331263674
C   C16       1.0  0.08500  0.50510  0.35015  1.0000 -0.1331263674
C   C17       1.0  0.63580  0.29470  0.03203  1.0000 -0.0115389076
C   C18       1.0  0.36420  0.79470  0.46797  1.0000 -0.0115389076
C   C19       1.0  0.36420  0.70530  0.96797  1.0000 -0.0115389076
C   C20       1.0  0.63580  0.20530  0.53203  1.0000 -0.0115389076
C   C21       1.0  0.69030  0.33660  0.94668  1.0000 0.0416455789
C   C22       1.0  0.30970  0.83660  0.55332  1.0000 0.0416455789
C   C23       1.0  0.30970  0.66340  0.05332  1.0000 0.0416455789
C   C24       1.0  0.69030  0.16340  0.44668  1.0000 0.0416455789
C   C25       1.0  0.54260  0.24210  0.06577  1.0000 0.5425856816
C   C26       1.0  0.45740  0.74210  0.43423  1.0000 0.5425856816
C   C27       1.0  0.45740  0.75790  0.93423  1.0000 0.5425856816
C   C28       1.0  0.54260  0.25790  0.56577  1.0000 0.5425856816
C   C29       1.0  0.75000  0.35720  0.05316  1.0000 -0.0994687117
C   C30       1.0  0.25000  0.85720  0.44684  1.0000 -0.0994687117
C   C31       1.0  0.25000  0.64280  0.94684  1.0000 -0.0994687117
C   C32       1.0  0.75000  0.14280  0.55316  1.0000 -0.0994687117
C   C33       1.0  0.24020  0.13150  0.91302  1.0000 -0.0994687117
C   C34       1.0  0.75980  0.63150  0.58698  1.0000 -0.0994687117
C   C35       1.0  0.75980  0.86850  0.08698  1.0000 -0.0994687117
C   C36       1.0  0.24020  0.36850  0.41302  1.0000 -0.0994687117
C   C37       1.0  0.20130  0.06660  0.86345  1.0000 0.0416455789
C   C38       1.0  0.79870  0.56660  0.63655  1.0000 0.0416455789
C   C39       1.0  0.79870  0.93340  0.13655  1.0000 0.0416455789
C   C40       1.0  0.20130  0.43340  0.36345  1.0000 0.0416455789
C   C41       1.0  0.80390  0.40050  0.96800  1.0000 -0.1079179539
C   C42       1.0  0.19610  0.90050  0.53200  1.0000 -0.1079179539
C   C43       1.0  0.19610  0.59950  0.03200  1.0000 -0.1079179539
C   C44       1.0  0.80390  0.09950  0.46800  1.0000 -0.1079179539
C   C45       1.0  0.83360  0.40850  0.02081  1.0000 -0.0889334722
C   C46       1.0  0.16640  0.90850  0.47919  1.0000 -0.0889334722
C   C47       1.0  0.16640  0.59150  0.97919  1.0000 -0.0889334722
C   C48       1.0  0.83360  0.09150  0.52081  1.0000 -0.0889334722
C   C49       1.0  0.28260  0.06920  0.82503  1.0000 0.3070031212
C   C50       1.0  0.71740  0.56920  0.67497  1.0000 0.3070031212
C   C51       1.0  0.71740  0.93080  0.17497  1.0000 0.3070031212
C   C52       1.0  0.28260  0.43080  0.32503  1.0000 0.3070031212
C   C53       1.0  0.88030  0.91150  0.87382  1.0000 0.5464191394
C   C54       1.0  0.11970  0.41150  0.62618  1.0000 0.5464191394
C   C55       1.0  0.11970  0.08850  0.12618  1.0000 0.5464191394
C   C56       1.0  0.88030  0.58850  0.37382  1.0000 0.5464191394
C   C57       1.0  0.16290  0.12410  0.94977  1.0000 -0.080282089
C   C58       1.0  0.83710  0.62410  0.55023  1.0000 -0.080282089
C   C59       1.0  0.83710  0.87590  0.05023  1.0000 -0.080282089
C   C60       1.0  0.16290  0.37590  0.44977  1.0000 -0.080282089
C   C61       1.0  0.04630  0.05510  0.93609  1.0000 -0.0994687117
C   C62       1.0  0.95370  0.55510  0.56391  1.0000 -0.0994687117
C   C63       1.0  0.95370  0.94490  0.06391  1.0000 -0.0994687117
C   C64       1.0  0.04630  0.44490  0.43609  1.0000 -0.0994687117
N   N1        1.0  0.64390  0.49010  0.86052  1.0000 -0.2365627984
N   N2        1.0  0.35610  0.99010  0.63948  1.0000 -0.2365627984
N   N3        1.0  0.35610  0.50990  0.13948  1.0000 -0.2365627984
N   N4        1.0  0.64390  0.00990  0.36052  1.0000 -0.2365627984
N   N5        1.0  0.58960  0.23920  0.81401  1.0000 -0.0115389076
N   N6        1.0  0.41040  0.73920  0.68599  1.0000 -0.0115389076
N   N7        1.0  0.41040  0.76080  0.18599  1.0000 -0.0115389076
N   N8        1.0  0.58960  0.26080  0.31401  1.0000 -0.0115389076
N   N9        1.0  0.62060  0.17580  0.86236  1.0000 -0.2365627984
N   N10       1.0  0.37940  0.67580  0.63764  1.0000 -0.2365627984
N   N11       1.0  0.37940  0.82420  0.13764  1.0000 -0.2365627984
N   N12       1.0  0.62060  0.32420  0.36236  1.0000 -0.2365627984
N   N13       1.0  0.60240  0.42490  0.81274  1.0000 -0.0115389076
N   N14       1.0  0.39760  0.92490  0.68726  1.0000 -0.0115389076
N   N15       1.0  0.39760  0.57510  0.18726  1.0000 -0.0115389076
N   N16       1.0  0.60240  0.07510  0.31274  1.0000 -0.0115389076
N   N17       1.0  0.34730  0.06960  0.79484  1.0000 -0.3294417826
N   N18       1.0  0.65270  0.56960  0.70516  1.0000 -0.3294417826
N   N19       1.0  0.65270  0.93040  0.20516  1.0000 -0.3294417826
N   N20       1.0  0.34730  0.43040  0.29484  1.0000 -0.3294417826
O   O1        1.0  0.57130  0.24240  0.11430  1.0000 -0.5136264755
O   O2        1.0  0.42870  0.74240  0.38570  1.0000 -0.5136264755
O   O3        1.0  0.42870  0.75760  0.88570  1.0000 -0.5136264755
O   O4        1.0  0.57130  0.25760  0.61430  1.0000 -0.5136264755
O   O5        1.0  0.43810  0.19790  0.04587  1.0000 -0.5219418003
O   O6        1.0  0.56190  0.69790  0.45413  1.0000 -0.5219418003
O   O7        1.0  0.56190  0.80210  0.95413  1.0000 -0.5219418003
O   O8        1.0  0.43810  0.30210  0.54587  1.0000 -0.5219418003
O   O9        1.0  0.83830  0.88620  0.82703  1.0000 -0.4879162429
O   O10       1.0  0.16170  0.38620  0.67297  1.0000 -0.4879162429
O   O11       1.0  0.16170  0.11380  0.17297  1.0000 -0.4879162429
O   O12       1.0  0.83830  0.61380  0.32703  1.0000 -0.4879162429
O   O13       1.0  0.82160  0.87850  0.91049  1.0000 -0.5496574385
O   O14       1.0  0.17840  0.37850  0.58951  1.0000 -0.5496574385
O   O15       1.0  0.17840  0.12150  0.08951  1.0000 -0.5496574385
O   O16       1.0  0.82160  0.62150  0.41049  1.0000 -0.5496574385
O   O17       1.0  0.57413  0.83410  0.78440  1.0000 -0.7750601365
O   O18       1.0  0.42587  0.33410  0.71560  1.0000 -0.7750601365
O   O19       1.0  0.42587  0.16590  0.21560  1.0000 -0.7750601365
O   O20       1.0  0.57413  0.66590  0.28440  1.0000 -0.7742625071
