# DDEC6 charges by PACMAN v1.1 (https://github.com/mtap-research/PACMAN-charge/)
data_2010[Cu][nan]3[ASR]26
_chemical_formula_sum              "Cu8 H12 C32 S4 O32"
_cell_length_a       7.302
_cell_length_b       18.15
_cell_length_c       12.1756
_cell_angle_alpha    90
_cell_angle_beta     122.735
_cell_angle_gamma    90

_symmetry_space_group_name_H-M    "P 1"
_symmetry_Int_Tables_number       1

loop_
  _symmetry_equiv_pos_as_xyz
  'x, y, z'

loop_
  _atom_site_type_symbol
  _atom_site_label
  _atom_site_symmetry_multiplicity
  _atom_site_fract_x
  _atom_site_fract_y
  _atom_site_fract_z
  _atom_site_occupancy
  _atom_site_charge
Cu  Cu1       1.0  0.35090  0.09474  0.21500  1.0000 1.0510343348
Cu  Cu2       1.0  0.64910  0.59474  0.28500  1.0000 1.0510343348
Cu  Cu3       1.0  0.64910  0.90526  0.78500  1.0000 1.0510343348
Cu  Cu4       1.0  0.35090  0.40526  0.71500  1.0000 1.0510343348
Cu  Cu5       1.0  0.89170  0.06834  0.92920  1.0000 1.0971632933
Cu  Cu6       1.0  0.10830  0.56834  0.57080  1.0000 1.0971632933
Cu  Cu7       1.0  0.10830  0.93166  0.07080  1.0000 1.0971632933
Cu  Cu8       1.0  0.89170  0.43166  0.42920  1.0000 1.0971632933
H   H1        1.0  0.38720  0.30960  0.16800  1.0000 0.1487542351
H   H2        1.0  0.61280  0.80960  0.33200  1.0000 0.1487542351
H   H3        1.0  0.61280  0.69040  0.83200  1.0000 0.1487542351
H   H4        1.0  0.38720  0.19040  0.66800  1.0000 0.1487542351
H   H5        1.0  0.86250  0.29340  0.80270  1.0000 0.1487542351
H   H6        1.0  0.13750  0.79340  0.69730  1.0000 0.1487542351
H   H7        1.0  0.13750  0.70660  0.19730  1.0000 0.1487542351
H   H8        1.0  0.86250  0.20660  0.30270  1.0000 0.1487542351
H   H9        1.0  0.16930  0.48930  0.94630  1.0000 0.1487542351
H   H10       1.0  0.83070  0.98930  0.55370  1.0000 0.1487542351
H   H11       1.0  0.83070  0.51070  0.05370  1.0000 0.1487542351
H   H12       1.0  0.16930  0.01070  0.44630  1.0000 0.1487542351
C   C1        1.0  0.99640  0.39640  0.85140  1.0000 -0.039932918
C   C2        1.0  0.00360  0.89640  0.64860  1.0000 -0.039932918
C   C3        1.0  0.00360  0.60360  0.14860  1.0000 -0.039932918
C   C4        1.0  0.99640  0.10360  0.35140  1.0000 -0.039932918
C   C5        1.0  0.30200  0.40550  0.06700  1.0000 0.0032654754
C   C6        1.0  0.69800  0.90550  0.43300  1.0000 0.0032654754
C   C7        1.0  0.69800  0.59450  0.93300  1.0000 0.0032654754
C   C8        1.0  0.30200  0.09450  0.56700  1.0000 0.0032654754
C   C9        1.0  0.28900  0.33100  0.08800  1.0000 -0.082572114
C   C10       1.0  0.71100  0.83100  0.41200  1.0000 -0.082572114
C   C11       1.0  0.71100  0.66900  0.91200  1.0000 -0.082572114
C   C12       1.0  0.28900  0.16900  0.58800  1.0000 -0.082572114
C   C13       1.0  0.12410  0.28850  0.98510  1.0000 0.0077447664
C   C14       1.0  0.87590  0.78850  0.51490  1.0000 0.0077447664
C   C15       1.0  0.87590  0.71150  0.01490  1.0000 0.0077447664
C   C16       1.0  0.12410  0.21150  0.48510  1.0000 0.0077447664
C   C17       1.0  0.10860  0.20700  0.00460  1.0000 0.6191682478
C   C18       1.0  0.89140  0.70700  0.49540  1.0000 0.6191682478
C   C19       1.0  0.89140  0.79300  0.99540  1.0000 0.6191682478
C   C20       1.0  0.10860  0.29300  0.50460  1.0000 0.6191682478
C   C21       1.0  0.97620  0.32080  0.86920  1.0000 -0.0958022142
C   C22       1.0  0.02380  0.82080  0.63080  1.0000 -0.0958022142
C   C23       1.0  0.02380  0.67920  0.13080  1.0000 -0.0958022142
C   C24       1.0  0.97620  0.17920  0.36920  1.0000 -0.0958022142
C   C25       1.0  0.16100  0.43880  0.95600  1.0000 -0.0894472489
C   C26       1.0  0.83900  0.93880  0.54400  1.0000 -0.0894472489
C   C27       1.0  0.83900  0.56120  0.04400  1.0000 -0.0894472489
C   C28       1.0  0.16100  0.06120  0.45600  1.0000 -0.0894472489
C   C29       1.0  0.49000  0.44670  0.18500  1.0000 0.6191682478
C   C30       1.0  0.51000  0.94670  0.31500  1.0000 0.6191682478
C   C31       1.0  0.51000  0.55330  0.81500  1.0000 0.6191682478
C   C32       1.0  0.49000  0.05330  0.68500  1.0000 0.6191682478
S   S1        1.0  0.81740  0.43500  0.69070  1.0000 1.1739784315
S   S2        1.0  0.18260  0.93500  0.80930  1.0000 1.1750178968
S   S3        1.0  0.18260  0.56500  0.30930  1.0000 1.1739784315
S   S4        1.0  0.81740  0.06500  0.19070  1.0000 1.1739784315
O   O1        1.0  0.97460  0.16820  0.91560  1.0000 -0.4823711629
O   O2        1.0  0.02540  0.66820  0.58440  1.0000 -0.4823711629
O   O3        1.0  0.02540  0.83180  0.08440  1.0000 -0.4823711629
O   O4        1.0  0.97460  0.33180  0.41560  1.0000 -0.4823711629
O   O5        1.0  0.18510  0.03430  0.05540  1.0000 -0.9010014946
O   O6        1.0  0.81490  0.53430  0.44460  1.0000 -0.9010014946
O   O7        1.0  0.81490  0.96570  0.94460  1.0000 -0.9010014946
O   O8        1.0  0.18510  0.46570  0.55540  1.0000 -0.9010014946
O   O9        1.0  0.50500  0.51450  0.16020  1.0000 -0.5644436443
O   O10       1.0  0.49500  0.01450  0.33980  1.0000 -0.5644436443
O   O11       1.0  0.49500  0.48550  0.83980  1.0000 -0.5644436443
O   O12       1.0  0.50500  0.98550  0.66020  1.0000 -0.5644436443
O   O13       1.0  0.24740  0.18660  0.12580  1.0000 -0.5644436443
O   O14       1.0  0.75260  0.68660  0.37420  1.0000 -0.5644436443
O   O15       1.0  0.75260  0.81340  0.87420  1.0000 -0.5644436443
O   O16       1.0  0.24740  0.31340  0.62580  1.0000 -0.5644436443
O   O17       1.0  0.84920  0.51280  0.70120  1.0000 -0.5376963432
O   O18       1.0  0.15080  0.01280  0.79880  1.0000 -0.5376963432
O   O19       1.0  0.15080  0.48720  0.29880  1.0000 -0.5376963432
O   O20       1.0  0.84920  0.98720  0.20120  1.0000 -0.5376963432
O   O21       1.0  0.60450  0.41040  0.27750  1.0000 -0.4246360327
O   O22       1.0  0.39550  0.91040  0.22250  1.0000 -0.4275093839
O   O23       1.0  0.39550  0.58960  0.72250  1.0000 -0.4275093839
O   O24       1.0  0.60450  0.08960  0.77750  1.0000 -0.4275093839
O   O25       1.0  0.88370  0.40100  0.60940  1.0000 -0.6508795584
O   O26       1.0  0.11630  0.90100  0.89060  1.0000 -0.6508795584
O   O27       1.0  0.11630  0.59900  0.39060  1.0000 -0.6508795584
O   O28       1.0  0.88370  0.09900  0.10940  1.0000 -0.6508795584
O   O29       1.0  0.59730  0.41000  0.64400  1.0000 -0.5826639796
O   O30       1.0  0.40270  0.91000  0.85600  1.0000 -0.5826639796
O   O31       1.0  0.40270  0.59000  0.35600  1.0000 -0.5826639796
O   O32       1.0  0.59730  0.09000  0.14400  1.0000 -0.5826639796
