# DDEC6 charges by PACMAN v1.1 (https://github.com/mtap-research/PACMAN-charge/)
data_2010[Gd][rtl]3[ASR]1
_chemical_formula_sum              "Gd4 P4 H44 C28 N4 O20"
_cell_length_a       5.534
_cell_length_b       13.436
_cell_length_c       20.891
_cell_angle_alpha    90
_cell_angle_beta     96.159
_cell_angle_gamma    90

_symmetry_space_group_name_H-M    "P 1"
_symmetry_Int_Tables_number       1

loop_
  _symmetry_equiv_pos_as_xyz
  'x, y, z'

loop_
  _atom_site_type_symbol
  _atom_site_label
  _atom_site_symmetry_multiplicity
  _atom_site_fract_x
  _atom_site_fract_y
  _atom_site_fract_z
  _atom_site_occupancy
  _atom_site_charge
Gd  Gd1       1.0  0.62624  0.13165  0.97231  1.0000 2.0736404471
Gd  Gd2       1.0  0.37376  0.63165  0.52769  1.0000 2.0736404471
Gd  Gd3       1.0  0.37376  0.86835  0.02769  1.0000 2.0736404471
Gd  Gd4       1.0  0.62624  0.36835  0.47231  1.0000 2.0736404471
P   P1        1.0  0.91360  0.02230  0.08645  1.0000 1.340906959
P   P2        1.0  0.08640  0.52230  0.41355  1.0000 1.340906959
P   P3        1.0  0.08640  0.97770  0.91355  1.0000 1.340906959
P   P4        1.0  0.91360  0.47770  0.58645  1.0000 1.340906959
H   H1        1.0  0.77070  0.97380  0.18150  1.0000 0.147048112
H   H2        1.0  0.22930  0.47380  0.31850  1.0000 0.147048112
H   H3        1.0  0.22930  0.02620  0.81850  1.0000 0.147048112
H   H4        1.0  0.77070  0.52620  0.68150  1.0000 0.147048112
H   H5        1.0  0.67910  0.08110  0.16330  1.0000 0.1315858326
H   H6        1.0  0.32090  0.58110  0.33670  1.0000 0.1315858326
H   H7        1.0  0.32090  0.91890  0.83670  1.0000 0.1315858326
H   H8        1.0  0.67910  0.41890  0.66330  1.0000 0.1315858326
H   H9        1.0  0.76630  0.09660  0.28180  1.0000 0.0935773551
H   H10       1.0  0.23370  0.59660  0.21820  1.0000 0.0935773551
H   H11       1.0  0.23370  0.90340  0.71820  1.0000 0.0935773551
H   H12       1.0  0.76630  0.40340  0.78180  1.0000 0.0935773551
H   H13       1.0  0.90590  0.99490  0.28820  1.0000 0.1027207649
H   H14       1.0  0.09410  0.49490  0.21180  1.0000 0.1027207649
H   H15       1.0  0.09410  0.00510  0.71180  1.0000 0.1027207649
H   H16       1.0  0.90590  0.50510  0.78820  1.0000 0.1027207649
H   H17       1.0  0.03630  0.09810  0.37310  1.0000 0.1167002618
H   H18       1.0  0.96370  0.59810  0.12690  1.0000 0.1167002618
H   H19       1.0  0.96370  0.90190  0.62690  1.0000 0.1167002618
H   H20       1.0  0.03630  0.40190  0.87310  1.0000 0.1167002618
H   H21       1.0  0.25150  0.07320  0.33270  1.0000 0.1027207649
H   H22       1.0  0.74850  0.57320  0.16730  1.0000 0.1027207649
H   H23       1.0  0.74850  0.92680  0.66730  1.0000 0.1027207649
H   H24       1.0  0.25150  0.42680  0.83270  1.0000 0.1027207649
H   H25       1.0  0.98680  0.25350  0.32480  1.0000 0.1131848804
H   H26       1.0  0.01320  0.75350  0.17520  1.0000 0.1131848804
H   H27       1.0  0.01320  0.74650  0.67520  1.0000 0.1131848804
H   H28       1.0  0.98680  0.24650  0.82480  1.0000 0.1131848804
H   H29       1.0  0.22690  0.30400  0.24740  1.0000 0.1027207649
H   H30       1.0  0.77310  0.80400  0.25260  1.0000 0.1027207649
H   H31       1.0  0.77310  0.69600  0.75260  1.0000 0.1027207649
H   H32       1.0  0.22690  0.19600  0.74740  1.0000 0.1027207649
H   H33       1.0  0.36840  0.20270  0.25280  1.0000 0.1027207649
H   H34       1.0  0.63160  0.70270  0.24720  1.0000 0.1027207649
H   H35       1.0  0.63160  0.79730  0.74720  1.0000 0.1027207649
H   H36       1.0  0.36840  0.29730  0.75280  1.0000 0.1027207649
H   H37       1.0  0.07900  0.19860  0.16180  1.0000 0.1167002618
H   H38       1.0  0.92100  0.69860  0.33820  1.0000 0.1167002618
H   H39       1.0  0.92100  0.80140  0.83820  1.0000 0.1167002618
H   H40       1.0  0.07900  0.30140  0.66180  1.0000 0.1167002618
H   H41       1.0  0.86950  0.22070  0.20500  1.0000 0.0935773551
H   H42       1.0  0.13050  0.72070  0.29500  1.0000 0.0935773551
H   H43       1.0  0.13050  0.77930  0.79500  1.0000 0.0935773551
H   H44       1.0  0.86950  0.27930  0.70500  1.0000 0.0935773551
C   C1        1.0  0.82100  0.03820  0.16670  1.0000 -0.4269328677
C   C2        1.0  0.17900  0.53820  0.33333  1.0000 -0.4269328677
C   C3        1.0  0.17900  0.96180  0.83330  1.0000 -0.4269328677
C   C4        1.0  0.82100  0.46180  0.66667  1.0000 -0.4269328677
C   C5        1.0  0.92400  0.06560  0.28040  1.0000 -0.11911444
C   C6        1.0  0.07600  0.56560  0.21960  1.0000 -0.11911444
C   C7        1.0  0.07600  0.93440  0.71960  1.0000 -0.11911444
C   C8        1.0  0.92400  0.43440  0.78040  1.0000 -0.11911444
C   C9        1.0  0.09800  0.10830  0.33180  1.0000 -0.2020084747
C   C10       1.0  0.90200  0.60830  0.16820  1.0000 -0.2020084747
C   C11       1.0  0.90200  0.89170  0.66820  1.0000 -0.2020084747
C   C12       1.0  0.09800  0.39170  0.83180  1.0000 -0.2020084747
C   C13       1.0  0.14200  0.21950  0.32270  1.0000 -0.1119926647
C   C14       1.0  0.85800  0.71950  0.17730  1.0000 -0.1119926647
C   C15       1.0  0.85800  0.78050  0.67730  1.0000 -0.1119926647
C   C16       1.0  0.14200  0.28050  0.82270  1.0000 -0.1119926647
C   C17       1.0  0.21100  0.23340  0.25570  1.0000 -0.2138923891
C   C18       1.0  0.78900  0.73340  0.24430  1.0000 -0.2138923891
C   C19       1.0  0.78900  0.76660  0.74430  1.0000 -0.2138923891
C   C20       1.0  0.21100  0.26660  0.75570  1.0000 -0.2138923891
C   C21       1.0  0.02600  0.18830  0.20410  1.0000 -0.1119926647
C   C22       1.0  0.97400  0.68830  0.29590  1.0000 -0.1119926647
C   C23       1.0  0.97400  0.81170  0.79590  1.0000 -0.1119926647
C   C24       1.0  0.02600  0.31170  0.70410  1.0000 -0.1119926647
C   C25       1.0  0.32200  0.26400  0.37470  1.0000 0.5635037235
C   C26       1.0  0.67800  0.76400  0.12530  1.0000 0.5635037235
C   C27       1.0  0.67800  0.73600  0.62530  1.0000 0.5635037235
C   C28       1.0  0.32200  0.23600  0.87470  1.0000 0.5635037235
N   N1        1.0  0.00210  0.07990  0.21650  1.0000 -0.0184781035
N   N2        1.0  0.99790  0.57990  0.28350  1.0000 -0.0184781035
N   N3        1.0  0.99790  0.92010  0.78350  1.0000 -0.0184781035
N   N4        1.0  0.00210  0.42010  0.71650  1.0000 -0.0184781035
O   O1        1.0  0.68210  0.98130  0.04560  1.0000 -0.9900581874
O   O2        1.0  0.31790  0.48130  0.45440  1.0000 -0.9900581874
O   O3        1.0  0.31790  0.01870  0.95440  1.0000 -0.9900581874
O   O4        1.0  0.68210  0.51870  0.54560  1.0000 -0.9900581874
O   O5        1.0  0.95920  0.12240  0.05730  1.0000 -0.8659850546
O   O6        1.0  0.04080  0.62240  0.44270  1.0000 -0.8659850546
O   O7        1.0  0.04080  0.87760  0.94270  1.0000 -0.8659850546
O   O8        1.0  0.95920  0.37760  0.55730  1.0000 -0.8659850546
O   O9        1.0  0.12730  0.95360  0.09030  1.0000 -0.8393296786
O   O10       1.0  0.87270  0.45360  0.40970  1.0000 -0.8393296786
O   O11       1.0  0.87270  0.04640  0.90970  1.0000 -0.8393296786
O   O12       1.0  0.12730  0.54640  0.59030  1.0000 -0.8393296786
O   O13       1.0  0.29760  0.24780  0.43310  1.0000 -0.6507618614
O   O14       1.0  0.70240  0.74780  0.06690  1.0000 -0.6507618614
O   O15       1.0  0.70240  0.75220  0.56690  1.0000 -0.6507618614
O   O16       1.0  0.29760  0.25220  0.93310  1.0000 -0.6507618614
O   O17       1.0  0.49810  0.31690  0.35970  1.0000 -0.6507618614
O   O18       1.0  0.50190  0.81690  0.14030  1.0000 -0.6507618614
O   O19       1.0  0.50190  0.68310  0.64030  1.0000 -0.6507618614
O   O20       1.0  0.49810  0.18310  0.85970  1.0000 -0.6507618614
