# DDEC6 charges by PACMAN v1.1 (https://github.com/mtap-research/PACMAN-charge/)
data_2010[Cd][nuc]3[ASR]7
_chemical_formula_sum              "Cd4 H144 C192 N48"
_cell_length_a       15.8548
_cell_length_b       15.8548
_cell_length_c       21.746
_cell_angle_alpha    90
_cell_angle_beta     90
_cell_angle_gamma    90

_symmetry_space_group_name_H-M    "P 1"
_symmetry_Int_Tables_number       1

loop_
  _symmetry_equiv_pos_as_xyz
  'x, y, z'

loop_
  _atom_site_type_symbol
  _atom_site_label
  _atom_site_symmetry_multiplicity
  _atom_site_fract_x
  _atom_site_fract_y
  _atom_site_fract_z
  _atom_site_occupancy
  _atom_site_charge
Cd  Cd1       1.0  0.94027  0.05973  0.75000  1.0000 0.6414934401
Cd  Cd2       1.0  0.05973  0.94027  0.25000  1.0000 0.6414934401
Cd  Cd3       1.0  0.44027  0.44027  0.50000  1.0000 0.6414934401
Cd  Cd4       1.0  0.55973  0.55973  0.00000  1.0000 0.6414934401
H   H1        1.0  0.25690  0.50460  0.42890  1.0000 0.0987851968
H   H2        1.0  0.74310  0.49540  0.92890  1.0000 0.0987851968
H   H3        1.0  0.99540  0.75690  0.17890  1.0000 0.0987851968
H   H4        1.0  0.00460  0.24310  0.67890  1.0000 0.0987851968
H   H5        1.0  0.24310  0.00460  0.32110  1.0000 0.0987851968
H   H6        1.0  0.75690  0.99540  0.82110  1.0000 0.0987851968
H   H7        1.0  0.50460  0.25690  0.57110  1.0000 0.0987851968
H   H8        1.0  0.49540  0.74310  0.07110  1.0000 0.0987851968
H   H9        1.0  0.14620  0.59650  0.44110  1.0000 0.1277423846
H   H10       1.0  0.85380  0.40350  0.94110  1.0000 0.1277423846
H   H11       1.0  0.90350  0.64620  0.19110  1.0000 0.1277423846
H   H12       1.0  0.09650  0.35380  0.69110  1.0000 0.1277423846
H   H13       1.0  0.35380  0.09650  0.30890  1.0000 0.1277423846
H   H14       1.0  0.64620  0.90350  0.80890  1.0000 0.1277423846
H   H15       1.0  0.59650  0.14620  0.55890  1.0000 0.1277423846
H   H16       1.0  0.40350  0.85380  0.05890  1.0000 0.1277423846
H   H17       1.0  0.23610  0.65450  0.60660  1.0000 0.1277423846
H   H18       1.0  0.76390  0.34550  0.10660  1.0000 0.1277423846
H   H19       1.0  0.84550  0.73610  0.35660  1.0000 0.1277423846
H   H20       1.0  0.15450  0.26390  0.85660  1.0000 0.1277423846
H   H21       1.0  0.26390  0.15450  0.14340  1.0000 0.1277423846
H   H22       1.0  0.73610  0.84550  0.64340  1.0000 0.1277423846
H   H23       1.0  0.65450  0.23610  0.39340  1.0000 0.1277423846
H   H24       1.0  0.34550  0.76390  0.89340  1.0000 0.1277423846
H   H25       1.0  0.34240  0.55970  0.59120  1.0000 0.0987851968
H   H26       1.0  0.65760  0.44030  0.09120  1.0000 0.0987851968
H   H27       1.0  0.94030  0.84240  0.34120  1.0000 0.0987851968
H   H28       1.0  0.05970  0.15760  0.84120  1.0000 0.0987851968
H   H29       1.0  0.15760  0.05970  0.15880  1.0000 0.0987851968
H   H30       1.0  0.84240  0.94030  0.65880  1.0000 0.0987851968
H   H31       1.0  0.55970  0.34240  0.40880  1.0000 0.0987851968
H   H32       1.0  0.44030  0.65760  0.90880  1.0000 0.0987851968
H   H33       1.0  0.03300  0.66360  0.46570  1.0000 0.1104521672
H   H34       1.0  0.96700  0.33640  0.96570  1.0000 0.1104521672
H   H35       1.0  0.83640  0.53300  0.21570  1.0000 0.1104521672
H   H36       1.0  0.16360  0.46700  0.71570  1.0000 0.1104521672
H   H37       1.0  0.46700  0.16360  0.28430  1.0000 0.1104521672
H   H38       1.0  0.53300  0.83640  0.78430  1.0000 0.1104521672
H   H39       1.0  0.66360  0.03300  0.53430  1.0000 0.1104521672
H   H40       1.0  0.33640  0.96700  0.03430  1.0000 0.1104521672
H   H41       1.0  0.93340  0.76580  0.47560  1.0000 0.1104521672
H   H42       1.0  0.06660  0.23420  0.97560  1.0000 0.1104521672
H   H43       1.0  0.73420  0.43340  0.22560  1.0000 0.1104521672
H   H44       1.0  0.26580  0.56660  0.72560  1.0000 0.1104521672
H   H45       1.0  0.56660  0.26580  0.27440  1.0000 0.1104521672
H   H46       1.0  0.43340  0.73420  0.77440  1.0000 0.1104521672
H   H47       1.0  0.76580  0.93340  0.52440  1.0000 0.1104521672
H   H48       1.0  0.23420  0.06660  0.02440  1.0000 0.1104521672
H   H49       1.0  0.95360  0.87930  0.54100  1.0000 0.1104521672
H   H50       1.0  0.04640  0.12070  0.04100  1.0000 0.1104521672
H   H51       1.0  0.62070  0.45360  0.29100  1.0000 0.1104521672
H   H52       1.0  0.37930  0.54640  0.79100  1.0000 0.1104521672
H   H53       1.0  0.54640  0.37930  0.20900  1.0000 0.1104521672
H   H54       1.0  0.45360  0.62070  0.70900  1.0000 0.1104521672
H   H55       1.0  0.87930  0.95360  0.45900  1.0000 0.1104521672
H   H56       1.0  0.12070  0.04640  0.95900  1.0000 0.1104521672
H   H57       1.0  0.17430  0.77670  0.59500  1.0000 0.0987851968
H   H58       1.0  0.82570  0.22330  0.09500  1.0000 0.0987851968
H   H59       1.0  0.72330  0.67430  0.34500  1.0000 0.0987851968
H   H60       1.0  0.27670  0.32570  0.84500  1.0000 0.0987851968
H   H61       1.0  0.32570  0.27670  0.15500  1.0000 0.0987851968
H   H62       1.0  0.67430  0.72330  0.65500  1.0000 0.0987851968
H   H63       1.0  0.77670  0.17430  0.40500  1.0000 0.0987851968
H   H64       1.0  0.22330  0.82570  0.90500  1.0000 0.0987851968
H   H65       1.0  0.19850  0.99810  0.79110  1.0000 0.1104521672
H   H66       1.0  0.80150  0.00190  0.29110  1.0000 0.1104521672
H   H67       1.0  0.50190  0.69850  0.54110  1.0000 0.1104521672
H   H68       1.0  0.49810  0.30150  0.04110  1.0000 0.1104521672
H   H69       1.0  0.30150  0.49810  0.95890  1.0000 0.1104521672
H   H70       1.0  0.69850  0.50190  0.45890  1.0000 0.1104521672
H   H71       1.0  0.99810  0.19850  0.20890  1.0000 0.1104521672
H   H72       1.0  0.00190  0.80150  0.70890  1.0000 0.1104521672
H   H73       1.0  0.29480  0.09010  0.83570  1.0000 0.1104521672
H   H74       1.0  0.70520  0.90990  0.33570  1.0000 0.1104521672
H   H75       1.0  0.40990  0.79480  0.58570  1.0000 0.1104521672
H   H76       1.0  0.59010  0.20520  0.08570  1.0000 0.1104521672
H   H77       1.0  0.20520  0.59010  0.91430  1.0000 0.1104521672
H   H78       1.0  0.79480  0.40990  0.41430  1.0000 0.1104521672
H   H79       1.0  0.09010  0.29480  0.16430  1.0000 0.1104521672
H   H80       1.0  0.90990  0.70520  0.66430  1.0000 0.1104521672
H   H81       1.0  0.34350  0.20520  0.78130  1.0000 0.0987851968
H   H82       1.0  0.65650  0.79480  0.28130  1.0000 0.0987851968
H   H83       1.0  0.29480  0.84350  0.53130  1.0000 0.0987851968
H   H84       1.0  0.70520  0.15650  0.03130  1.0000 0.0987851968
H   H85       1.0  0.15650  0.70520  0.96870  1.0000 0.0987851968
H   H86       1.0  0.84350  0.29480  0.46870  1.0000 0.0987851968
H   H87       1.0  0.20520  0.34350  0.21870  1.0000 0.0987851968
H   H88       1.0  0.79480  0.65650  0.71870  1.0000 0.0987851968
H   H89       1.0  0.19580  0.14070  0.63960  1.0000 0.1104521672
H   H90       1.0  0.80420  0.85930  0.13960  1.0000 0.1104521672
H   H91       1.0  0.35930  0.69580  0.38960  1.0000 0.1104521672
H   H92       1.0  0.64070  0.30420  0.88960  1.0000 0.1104521672
H   H93       1.0  0.30420  0.64070  0.11040  1.0000 0.1104521672
H   H94       1.0  0.69580  0.35930  0.61040  1.0000 0.1104521672
H   H95       1.0  0.14070  0.19580  0.36040  1.0000 0.1104521672
H   H96       1.0  0.85930  0.80420  0.86040  1.0000 0.1104521672
H   H97       1.0  0.41210  0.28580  0.71580  1.0000 0.1277423846
H   H98       1.0  0.58790  0.71420  0.21580  1.0000 0.1277423846
H   H99       1.0  0.21420  0.91210  0.46580  1.0000 0.1277423846
H   H100      1.0  0.78580  0.08790  0.96580  1.0000 0.1277423846
H   H101      1.0  0.08790  0.78580  0.03420  1.0000 0.1277423846
H   H102      1.0  0.91210  0.21420  0.53420  1.0000 0.1277423846
H   H103      1.0  0.28580  0.41210  0.28420  1.0000 0.1277423846
H   H104      1.0  0.71420  0.58790  0.78420  1.0000 0.1277423846
H   H105      1.0  0.46380  0.38560  0.64930  1.0000 0.0987851968
H   H106      1.0  0.53620  0.61440  0.14930  1.0000 0.0987851968
H   H107      1.0  0.11440  0.96380  0.39930  1.0000 0.0987851968
H   H108      1.0  0.88560  0.03620  0.89930  1.0000 0.0987851968
H   H109      1.0  0.03620  0.88560  0.10070  1.0000 0.0987851968
H   H110      1.0  0.96380  0.11440  0.60070  1.0000 0.0987851968
H   H111      1.0  0.38560  0.46380  0.35070  1.0000 0.0987851968
H   H112      1.0  0.61440  0.53620  0.85070  1.0000 0.0987851968
H   H113      1.0  0.26800  0.36030  0.54270  1.0000 0.0987851968
H   H114      1.0  0.73200  0.63970  0.04270  1.0000 0.0987851968
H   H115      1.0  0.13970  0.76800  0.29270  1.0000 0.0987851968
H   H116      1.0  0.86030  0.23200  0.79270  1.0000 0.0987851968
H   H117      1.0  0.23200  0.86030  0.20730  1.0000 0.0987851968
H   H118      1.0  0.76800  0.13970  0.70730  1.0000 0.0987851968
H   H119      1.0  0.36030  0.26800  0.45730  1.0000 0.0987851968
H   H120      1.0  0.63970  0.73200  0.95730  1.0000 0.0987851968
H   H121      1.0  0.21040  0.26350  0.60600  1.0000 0.1277423846
H   H122      1.0  0.78960  0.73650  0.10600  1.0000 0.1277423846
H   H123      1.0  0.23650  0.71040  0.35600  1.0000 0.1277423846
H   H124      1.0  0.76350  0.28960  0.85600  1.0000 0.1277423846
H   H125      1.0  0.28960  0.76350  0.14400  1.0000 0.1277423846
H   H126      1.0  0.71040  0.23650  0.64400  1.0000 0.1277423846
H   H127      1.0  0.26350  0.21040  0.39400  1.0000 0.1277423846
H   H128      1.0  0.73650  0.78960  0.89400  1.0000 0.1277423846
H   H129      1.0  0.25820  0.97350  0.61350  1.0000 0.2514642966
H   H130      1.0  0.74180  0.02650  0.11350  1.0000 0.2514642966
H   H131      1.0  0.52650  0.75820  0.36350  1.0000 0.2514642966
H   H132      1.0  0.47350  0.24180  0.86350  1.0000 0.2514642966
H   H133      1.0  0.24180  0.47350  0.13650  1.0000 0.2514642966
H   H134      1.0  0.75820  0.52650  0.63650  1.0000 0.2514642966
H   H135      1.0  0.97350  0.25820  0.38650  1.0000 0.2514642966
H   H136      1.0  0.02650  0.74180  0.88650  1.0000 0.2514642966
H   H137      1.0  0.25680  0.89410  0.64700  1.0000 0.2380075161
H   H138      1.0  0.74320  0.10590  0.14700  1.0000 0.2380075161
H   H139      1.0  0.60590  0.75680  0.39700  1.0000 0.2380075161
H   H140      1.0  0.39410  0.24320  0.89700  1.0000 0.2380075161
H   H141      1.0  0.24320  0.39410  0.10300  1.0000 0.2380075161
H   H142      1.0  0.75680  0.60590  0.60300  1.0000 0.2380075161
H   H143      1.0  0.89410  0.25680  0.35300  1.0000 0.2380075161
H   H144      1.0  0.10590  0.74320  0.85300  1.0000 0.2380075161
C   C1        1.0  0.25300  0.53550  0.46520  1.0000 0.0515546491
C   C2        1.0  0.74700  0.46450  0.96520  1.0000 0.0515546491
C   C3        1.0  0.96450  0.75300  0.21520  1.0000 0.0515546491
C   C4        1.0  0.03550  0.24700  0.71520  1.0000 0.0515546491
C   C5        1.0  0.24700  0.03550  0.28480  1.0000 0.0515546491
C   C6        1.0  0.75300  0.96450  0.78480  1.0000 0.0515546491
C   C7        1.0  0.53550  0.25300  0.53480  1.0000 0.0515546491
C   C8        1.0  0.46450  0.74700  0.03480  1.0000 0.0515546491
C   C9        1.0  0.18650  0.59190  0.47200  1.0000 -0.2021492715
C   C10       1.0  0.81350  0.40810  0.97200  1.0000 -0.2021492715
C   C11       1.0  0.90810  0.68650  0.22200  1.0000 -0.2021492715
C   C12       1.0  0.09190  0.31350  0.72200  1.0000 -0.2021492715
C   C13       1.0  0.31350  0.09190  0.27800  1.0000 -0.2021492715
C   C14       1.0  0.68650  0.90810  0.77800  1.0000 -0.2021492715
C   C15       1.0  0.59190  0.18650  0.52800  1.0000 -0.2021492715
C   C16       1.0  0.40810  0.81350  0.02800  1.0000 -0.2021492715
C   C17       1.0  0.17990  0.64050  0.52360  1.0000 0.1104521672
C   C18       1.0  0.82010  0.35950  0.02360  1.0000 0.1104521672
C   C19       1.0  0.85950  0.67990  0.27360  1.0000 0.1104521672
C   C20       1.0  0.14050  0.32010  0.77360  1.0000 0.1104521672
C   C21       1.0  0.32010  0.14050  0.22640  1.0000 0.1104521672
C   C22       1.0  0.67990  0.85950  0.72640  1.0000 0.1104521672
C   C23       1.0  0.64050  0.17990  0.47640  1.0000 0.1104521672
C   C24       1.0  0.35950  0.82010  0.97640  1.0000 0.1104521672
C   C25       1.0  0.23940  0.62550  0.56950  1.0000 -0.2021492715
C   C26       1.0  0.76060  0.37450  0.06950  1.0000 -0.2021492715
C   C27       1.0  0.87450  0.73940  0.31950  1.0000 -0.2021492715
C   C28       1.0  0.12550  0.26060  0.81950  1.0000 -0.2021492715
C   C29       1.0  0.26060  0.12550  0.18050  1.0000 -0.2021492715
C   C30       1.0  0.73940  0.87450  0.68050  1.0000 -0.2021492715
C   C31       1.0  0.62550  0.23940  0.43050  1.0000 -0.2021492715
C   C32       1.0  0.37450  0.76060  0.93050  1.0000 -0.2021492715
C   C33       1.0  0.30320  0.56800  0.55990  1.0000 0.0690843778
C   C34       1.0  0.69680  0.43200  0.05990  1.0000 0.0690843778
C   C35       1.0  0.93200  0.80320  0.30990  1.0000 0.0690843778
C   C36       1.0  0.06800  0.19680  0.80990  1.0000 0.0690843778
C   C37       1.0  0.19680  0.06800  0.19010  1.0000 0.0690843778
C   C38       1.0  0.80320  0.93200  0.69010  1.0000 0.0690843778
C   C39       1.0  0.56800  0.30320  0.44010  1.0000 0.0690843778
C   C40       1.0  0.43200  0.69680  0.94010  1.0000 0.0690843778
C   C41       1.0  0.11410  0.70700  0.52980  1.0000 0.0690843778
C   C42       1.0  0.88590  0.29300  0.02980  1.0000 0.0690843778
C   C43       1.0  0.79300  0.61410  0.27980  1.0000 0.0690843778
C   C44       1.0  0.20700  0.38590  0.77980  1.0000 0.0690843778
C   C45       1.0  0.38590  0.20700  0.22020  1.0000 0.0690843778
C   C46       1.0  0.61410  0.79300  0.72020  1.0000 0.0690843778
C   C47       1.0  0.70700  0.11410  0.47020  1.0000 0.0690843778
C   C48       1.0  0.29300  0.88590  0.97020  1.0000 0.0690843778
C   C49       1.0  0.04140  0.70690  0.49390  1.0000 -0.1626443793
C   C50       1.0  0.95860  0.29310  0.99390  1.0000 -0.1626443793
C   C51       1.0  0.79310  0.54140  0.24390  1.0000 -0.1626443793
C   C52       1.0  0.20690  0.45860  0.74390  1.0000 -0.1626443793
C   C53       1.0  0.45860  0.20690  0.25610  1.0000 -0.1626443793
C   C54       1.0  0.54140  0.79310  0.75610  1.0000 -0.1626443793
C   C55       1.0  0.70690  0.04140  0.50610  1.0000 -0.1626443793
C   C56       1.0  0.29310  0.95860  0.00610  1.0000 -0.1626443793
C   C57       1.0  0.98230  0.76890  0.49910  1.0000 -0.1095899041
C   C58       1.0  0.01770  0.23110  0.99910  1.0000 -0.1095899041
C   C59       1.0  0.73110  0.48230  0.24910  1.0000 -0.1095899041
C   C60       1.0  0.26890  0.51770  0.74910  1.0000 -0.1095899041
C   C61       1.0  0.51770  0.26890  0.25090  1.0000 -0.1095899041
C   C62       1.0  0.48230  0.73110  0.75090  1.0000 -0.1095899041
C   C63       1.0  0.76890  0.98230  0.50090  1.0000 -0.1095899041
C   C64       1.0  0.23110  0.01770  0.00090  1.0000 -0.1095899041
C   C65       1.0  0.99350  0.83640  0.53870  1.0000 -0.1626443793
C   C66       1.0  0.00650  0.16360  0.03870  1.0000 -0.1626443793
C   C67       1.0  0.66360  0.49350  0.28870  1.0000 -0.1626443793
C   C68       1.0  0.33640  0.50650  0.78870  1.0000 -0.1626443793
C   C69       1.0  0.50650  0.33640  0.21130  1.0000 -0.1626443793
C   C70       1.0  0.49350  0.66360  0.71130  1.0000 -0.1626443793
C   C71       1.0  0.83640  0.99350  0.46130  1.0000 -0.1626443793
C   C72       1.0  0.16360  0.00650  0.96130  1.0000 -0.1626443793
C   C73       1.0  0.06650  0.83860  0.57530  1.0000 0.0362348449
C   C74       1.0  0.93350  0.16140  0.07530  1.0000 0.0362348449
C   C75       1.0  0.66140  0.56650  0.32530  1.0000 0.0362348449
C   C76       1.0  0.33860  0.43350  0.82530  1.0000 0.0362348449
C   C77       1.0  0.43350  0.33860  0.17470  1.0000 0.0362348449
C   C78       1.0  0.56650  0.66140  0.67470  1.0000 0.0362348449
C   C79       1.0  0.83860  0.06650  0.42470  1.0000 0.0362348449
C   C80       1.0  0.16140  0.93350  0.92470  1.0000 0.0362348449
C   C81       1.0  0.12600  0.77470  0.57070  1.0000 -0.2021492715
C   C82       1.0  0.87400  0.22530  0.07070  1.0000 -0.2021492715
C   C83       1.0  0.72530  0.62600  0.32070  1.0000 -0.2021492715
C   C84       1.0  0.27470  0.37400  0.82070  1.0000 -0.2021492715
C   C85       1.0  0.37400  0.27470  0.17930  1.0000 -0.2021492715
C   C86       1.0  0.62600  0.72530  0.67930  1.0000 -0.2021492715
C   C87       1.0  0.77470  0.12600  0.42930  1.0000 -0.2021492715
C   C88       1.0  0.22530  0.87400  0.92930  1.0000 -0.2021492715
C   C89       1.0  0.07520  0.90890  0.61879  1.0000 0.1752374847
C   C90       1.0  0.92480  0.09110  0.11879  1.0000 0.1752374847
C   C91       1.0  0.59110  0.57520  0.36879  1.0000 0.1752374847
C   C92       1.0  0.40890  0.42480  0.86879  1.0000 0.1752374847
C   C93       1.0  0.42480  0.40890  0.13121  1.0000 0.1752374847
C   C94       1.0  0.57520  0.59110  0.63121  1.0000 0.1752374847
C   C95       1.0  0.90890  0.07520  0.38121  1.0000 0.1752374847
C   C96       1.0  0.09110  0.92480  0.88121  1.0000 0.1752374847
C   C97       1.0  0.12570  0.00450  0.68040  1.0000 0.1666247998
C   C98       1.0  0.87430  0.99550  0.18040  1.0000 0.1666247998
C   C99       1.0  0.49550  0.62570  0.43040  1.0000 0.1666247998
C   C100      1.0  0.50450  0.37430  0.93040  1.0000 0.1666247998
C   C101      1.0  0.37430  0.50450  0.06960  1.0000 0.1666247998
C   C102      1.0  0.62570  0.49550  0.56960  1.0000 0.1666247998
C   C103      1.0  0.00450  0.12570  0.31960  1.0000 0.1666247998
C   C104      1.0  0.99550  0.87430  0.81960  1.0000 0.1666247998
C   C105      1.0  0.18720  0.06140  0.71090  1.0000 0.0196101651
C   C106      1.0  0.81280  0.93860  0.21090  1.0000 0.0196101651
C   C107      1.0  0.43860  0.68720  0.46090  1.0000 0.0196101651
C   C108      1.0  0.56140  0.31280  0.96090  1.0000 0.0196101651
C   C109      1.0  0.31280  0.56140  0.03910  1.0000 0.0196101651
C   C110      1.0  0.68720  0.43860  0.53910  1.0000 0.0196101651
C   C111      1.0  0.06140  0.18720  0.28910  1.0000 0.0196101651
C   C112      1.0  0.93860  0.81280  0.78910  1.0000 0.0196101651
C   C113      1.0  0.21720  0.04520  0.76960  1.0000 -0.1671271021
C   C114      1.0  0.78280  0.95480  0.26960  1.0000 -0.1671271021
C   C115      1.0  0.45480  0.71720  0.51960  1.0000 -0.1671271021
C   C116      1.0  0.54520  0.28280  0.01960  1.0000 -0.1671271021
C   C117      1.0  0.28280  0.54520  0.98040  1.0000 -0.1671271021
C   C118      1.0  0.71720  0.45480  0.48040  1.0000 -0.1671271021
C   C119      1.0  0.04520  0.21720  0.23040  1.0000 -0.1671271021
C   C120      1.0  0.95480  0.78280  0.73040  1.0000 -0.1671271021
C   C121      1.0  0.27540  0.09990  0.79600  1.0000 -0.1095899041
C   C122      1.0  0.72460  0.90010  0.29600  1.0000 -0.1095899041
C   C123      1.0  0.40010  0.77540  0.54600  1.0000 -0.1095899041
C   C124      1.0  0.59990  0.22460  0.04600  1.0000 -0.1095899041
C   C125      1.0  0.22460  0.59990  0.95400  1.0000 -0.1095899041
C   C126      1.0  0.77540  0.40010  0.45400  1.0000 -0.1095899041
C   C127      1.0  0.09990  0.27540  0.20400  1.0000 -0.1095899041
C   C128      1.0  0.90010  0.72460  0.70400  1.0000 -0.1095899041
C   C129      1.0  0.30450  0.16900  0.76340  1.0000 -0.1671271021
C   C130      1.0  0.69550  0.83100  0.26340  1.0000 -0.1671271021
C   C131      1.0  0.33100  0.80450  0.51340  1.0000 -0.1671271021
C   C132      1.0  0.66900  0.19550  0.01340  1.0000 -0.1671271021
C   C133      1.0  0.19550  0.66900  0.98660  1.0000 -0.1671271021
C   C134      1.0  0.80450  0.33100  0.48660  1.0000 -0.1671271021
C   C135      1.0  0.16900  0.30450  0.23660  1.0000 -0.1671271021
C   C136      1.0  0.83100  0.69550  0.73660  1.0000 -0.1671271021
C   C137      1.0  0.27600  0.18470  0.70390  1.0000 0.0690843778
C   C138      1.0  0.72400  0.81530  0.20390  1.0000 0.0690843778
C   C139      1.0  0.31530  0.77600  0.45390  1.0000 0.0690843778
C   C140      1.0  0.68470  0.22400  0.95390  1.0000 0.0690843778
C   C141      1.0  0.22400  0.68470  0.04610  1.0000 0.0690843778
C   C142      1.0  0.77600  0.31530  0.54610  1.0000 0.0690843778
C   C143      1.0  0.18470  0.27600  0.29610  1.0000 0.0690843778
C   C144      1.0  0.81530  0.72400  0.79610  1.0000 0.0690843778
C   C145      1.0  0.21640  0.13030  0.67890  1.0000 -0.2073681238
C   C146      1.0  0.78360  0.86970  0.17890  1.0000 -0.2073681238
C   C147      1.0  0.36970  0.71640  0.42890  1.0000 -0.2073681238
C   C148      1.0  0.63030  0.28360  0.92890  1.0000 -0.2073681238
C   C149      1.0  0.28360  0.63030  0.07110  1.0000 -0.2073681238
C   C150      1.0  0.71640  0.36970  0.57110  1.0000 -0.2073681238
C   C151      1.0  0.13030  0.21640  0.32110  1.0000 -0.2073681238
C   C152      1.0  0.86970  0.78360  0.82110  1.0000 -0.2073681238
C   C153      1.0  0.30680  0.25720  0.66667  1.0000 0.1104521672
C   C154      1.0  0.69320  0.74280  0.16667  1.0000 0.1104521672
C   C155      1.0  0.24280  0.80680  0.41667  1.0000 0.1104521672
C   C156      1.0  0.75720  0.19320  0.91667  1.0000 0.1104521672
C   C157      1.0  0.19320  0.75720  0.08333  1.0000 0.1104521672
C   C158      1.0  0.80680  0.24280  0.58333  1.0000 0.1104521672
C   C159      1.0  0.25720  0.30680  0.33333  1.0000 0.1104521672
C   C160      1.0  0.74280  0.69320  0.83333  1.0000 0.1104521672
C   C161      1.0  0.38260  0.29860  0.68010  1.0000 -0.2073681238
C   C162      1.0  0.61740  0.70140  0.18010  1.0000 -0.2073681238
C   C163      1.0  0.20140  0.88260  0.43010  1.0000 -0.2073681238
C   C164      1.0  0.79860  0.11740  0.93010  1.0000 -0.2073681238
C   C165      1.0  0.11740  0.79860  0.06990  1.0000 -0.2073681238
C   C166      1.0  0.88260  0.20140  0.56990  1.0000 -0.2073681238
C   C167      1.0  0.29860  0.38260  0.31990  1.0000 -0.2073681238
C   C168      1.0  0.70140  0.61740  0.81990  1.0000 -0.2073681238
C   C169      1.0  0.41330  0.35870  0.63970  1.0000 0.0515546491
C   C170      1.0  0.58670  0.64130  0.13970  1.0000 0.0515546491
C   C171      1.0  0.14130  0.91330  0.38970  1.0000 0.0515546491
C   C172      1.0  0.85870  0.08670  0.88970  1.0000 0.0515546491
C   C173      1.0  0.08670  0.85870  0.11030  1.0000 0.0515546491
C   C174      1.0  0.91330  0.14130  0.61030  1.0000 0.0515546491
C   C175      1.0  0.35870  0.41330  0.36030  1.0000 0.0515546491
C   C176      1.0  0.64130  0.58670  0.86030  1.0000 0.0515546491
C   C177      1.0  0.29830  0.34400  0.57730  1.0000 0.0344911204
C   C178      1.0  0.70170  0.65600  0.07730  1.0000 0.0344911204
C   C179      1.0  0.15600  0.79830  0.32730  1.0000 0.0344911204
C   C180      1.0  0.84400  0.20170  0.82730  1.0000 0.0344911204
C   C181      1.0  0.20170  0.84400  0.17270  1.0000 0.0344911204
C   C182      1.0  0.79830  0.15600  0.67270  1.0000 0.0344911204
C   C183      1.0  0.34400  0.29830  0.42270  1.0000 0.0344911204
C   C184      1.0  0.65600  0.70170  0.92270  1.0000 0.0344911204
C   C185      1.0  0.26350  0.28520  0.61490  1.0000 -0.2073681238
C   C186      1.0  0.73650  0.71480  0.11490  1.0000 -0.2073681238
C   C187      1.0  0.21480  0.76350  0.36490  1.0000 -0.2073681238
C   C188      1.0  0.78520  0.23650  0.86490  1.0000 -0.2073681238
C   C189      1.0  0.23650  0.78520  0.13510  1.0000 -0.2073681238
C   C190      1.0  0.76350  0.21480  0.63510  1.0000 -0.2073681238
C   C191      1.0  0.28520  0.26350  0.38510  1.0000 -0.2073681238
C   C192      1.0  0.71480  0.73650  0.88510  1.0000 -0.2073681238
N   N1        1.0  0.31170  0.52370  0.50865  1.0000 -0.2395531679
N   N2        1.0  0.68830  0.47630  0.00865  1.0000 -0.2395531679
N   N3        1.0  0.97630  0.81170  0.25865  1.0000 -0.2395531679
N   N4        1.0  0.02370  0.18830  0.75865  1.0000 -0.2395531679
N   N5        1.0  0.18830  0.02370  0.24135  1.0000 -0.2395531679
N   N6        1.0  0.81170  0.97630  0.74135  1.0000 -0.2395531679
N   N7        1.0  0.52370  0.31170  0.49135  1.0000 -0.2395531679
N   N8        1.0  0.47630  0.68830  0.99135  1.0000 -0.2395531679
N   N9        1.0  0.01120  0.94600  0.64505  1.0000 -0.2755527044
N   N10       1.0  0.98880  0.05400  0.14505  1.0000 -0.2755527044
N   N11       1.0  0.55400  0.51120  0.39505  1.0000 -0.2755527044
N   N12       1.0  0.44600  0.48880  0.89505  1.0000 -0.2755527044
N   N13       1.0  0.48880  0.44600  0.10495  1.0000 -0.2755527044
N   N14       1.0  0.51120  0.55400  0.60495  1.0000 -0.2755527044
N   N15       1.0  0.94600  0.01120  0.35495  1.0000 -0.2755527044
N   N16       1.0  0.05400  0.98880  0.85495  1.0000 -0.2755527044
N   N17       1.0  0.04380  0.00670  0.68367  1.0000 -0.2278086873
N   N18       1.0  0.95620  0.99330  0.18367  1.0000 -0.2278086873
N   N19       1.0  0.49330  0.54380  0.43367  1.0000 -0.2278086873
N   N20       1.0  0.50670  0.45620  0.93367  1.0000 -0.2278086873
N   N21       1.0  0.45620  0.50670  0.06633  1.0000 -0.2278086873
N   N22       1.0  0.54380  0.49330  0.56633  1.0000 -0.2278086873
N   N23       1.0  0.00670  0.04380  0.31633  1.0000 -0.2278086873
N   N24       1.0  0.99330  0.95620  0.81633  1.0000 -0.2278086873
N   N25       1.0  0.14830  0.94360  0.63999  1.0000 0.058403662
N   N26       1.0  0.85170  0.05640  0.13999  1.0000 0.058403662
N   N27       1.0  0.55640  0.64830  0.38999  1.0000 0.058403662
N   N28       1.0  0.44360  0.35170  0.88999  1.0000 0.058403662
N   N29       1.0  0.35170  0.44360  0.11001  1.0000 0.058403662
N   N30       1.0  0.64830  0.55640  0.61001  1.0000 0.058403662
N   N31       1.0  0.94360  0.14830  0.36001  1.0000 0.058403662
N   N32       1.0  0.05640  0.85170  0.86001  1.0000 0.058403662
N   N33       1.0  0.23020  0.92540  0.61910  1.0000 -0.508738413
N   N34       1.0  0.76980  0.07460  0.11910  1.0000 -0.508738413
N   N35       1.0  0.57460  0.73020  0.36910  1.0000 -0.508738413
N   N36       1.0  0.42540  0.26980  0.86910  1.0000 -0.508738413
N   N37       1.0  0.26980  0.42540  0.13090  1.0000 -0.508738413
N   N38       1.0  0.73020  0.57460  0.63090  1.0000 -0.508738413
N   N39       1.0  0.92540  0.23020  0.38090  1.0000 -0.508738413
N   N40       1.0  0.07460  0.76980  0.88090  1.0000 -0.508738413
N   N41       1.0  0.37380  0.38010  0.58705  1.0000 -0.2395531679
N   N42       1.0  0.62620  0.61990  0.08705  1.0000 -0.2395531679
N   N43       1.0  0.11990  0.87380  0.33705  1.0000 -0.2395531679
N   N44       1.0  0.88010  0.12620  0.83705  1.0000 -0.2395531679
N   N45       1.0  0.12620  0.88010  0.16295  1.0000 -0.2395531679
N   N46       1.0  0.87380  0.11990  0.66295  1.0000 -0.2395531679
N   N47       1.0  0.38010  0.37380  0.41295  1.0000 -0.2395531679
N   N48       1.0  0.61990  0.62620  0.91295  1.0000 -0.2395531679
