# DDEC6 charges by PACMAN v1.1 (https://github.com/mtap-research/PACMAN-charge/)
data_2011[Co][nan]3[ASR]7
_chemical_formula_sum              "Co8 H80 C88 N16 O40"
_cell_length_a       11.3108
_cell_length_b       11.3108
_cell_length_c       25.238
_cell_angle_alpha    90
_cell_angle_beta     90
_cell_angle_gamma    90

_symmetry_space_group_name_H-M    "P 1"
_symmetry_Int_Tables_number       1

loop_
  _symmetry_equiv_pos_as_xyz
  'x, y, z'

loop_
  _atom_site_type_symbol
  _atom_site_label
  _atom_site_symmetry_multiplicity
  _atom_site_fract_x
  _atom_site_fract_y
  _atom_site_fract_z
  _atom_site_occupancy
  _atom_site_charge
Co  Co1       1.0  0.50000  0.70322  0.00000  1.0000 1.0599246537
Co  Co2       1.0  0.50000  0.29678  0.50000  1.0000 1.0599246537
Co  Co3       1.0  0.29678  0.50000  0.75000  1.0000 1.0599246537
Co  Co4       1.0  0.70322  0.50000  0.25000  1.0000 1.0599246537
Co  Co5       1.0  0.59629  0.59629  0.12500  1.0000 1.0395948803
Co  Co6       1.0  0.40371  0.40371  0.62500  1.0000 1.0395948803
Co  Co7       1.0  0.40371  0.59629  0.87500  1.0000 1.0395948803
Co  Co8       1.0  0.59629  0.40371  0.37500  1.0000 1.0395948803
H   H1        1.0  0.55900  0.42420  0.96130  1.0000 0.2882410651
H   H2        1.0  0.44100  0.57580  0.46130  1.0000 0.2882410651
H   H3        1.0  0.57580  0.55900  0.71130  1.0000 0.2882410651
H   H4        1.0  0.42420  0.44100  0.21130  1.0000 0.2882410651
H   H5        1.0  0.44100  0.42420  0.03870  1.0000 0.2882410651
H   H6        1.0  0.55900  0.57580  0.53870  1.0000 0.2882410651
H   H7        1.0  0.42420  0.55900  0.28870  1.0000 0.2882410651
H   H8        1.0  0.57580  0.44100  0.78870  1.0000 0.2882410651
H   H9        1.0  0.67010  0.94790  0.18080  1.0000 0.1209155684
H   H10       1.0  0.32990  0.05210  0.68080  1.0000 0.1209155684
H   H11       1.0  0.05210  0.67010  0.93080  1.0000 0.1209155684
H   H12       1.0  0.94790  0.32990  0.43080  1.0000 0.1209155684
H   H13       1.0  0.32990  0.94790  0.81920  1.0000 0.1209155684
H   H14       1.0  0.67010  0.05210  0.31920  1.0000 0.1209155684
H   H15       1.0  0.94790  0.67010  0.06920  1.0000 0.1209155684
H   H16       1.0  0.05210  0.32990  0.56920  1.0000 0.1209155684
H   H17       1.0  0.58020  0.24390  0.06170  1.0000 0.1209155684
H   H18       1.0  0.41980  0.75610  0.56170  1.0000 0.1125500879
H   H19       1.0  0.75610  0.58020  0.81170  1.0000 0.1125500879
H   H20       1.0  0.24390  0.41980  0.31170  1.0000 0.1209155684
H   H21       1.0  0.41980  0.24390  0.93830  1.0000 0.1125500879
H   H22       1.0  0.58020  0.75610  0.43830  1.0000 0.1209155684
H   H23       1.0  0.24390  0.58020  0.18830  1.0000 0.1209155684
H   H24       1.0  0.75610  0.41980  0.68830  1.0000 0.1125500879
H   H25       1.0  0.56790  0.05130  0.03710  1.0000 0.1209155684
H   H26       1.0  0.43210  0.94870  0.53710  1.0000 0.1209155684
H   H27       1.0  0.94870  0.56790  0.78710  1.0000 0.1209155684
H   H28       1.0  0.05130  0.43210  0.28710  1.0000 0.1209155684
H   H29       1.0  0.43210  0.05130  0.96290  1.0000 0.1209155684
H   H30       1.0  0.56790  0.94870  0.46290  1.0000 0.1209155684
H   H31       1.0  0.05130  0.56790  0.21290  1.0000 0.1209155684
H   H32       1.0  0.94870  0.43210  0.71290  1.0000 0.1209155684
H   H33       1.0  0.69690  0.14040  0.20450  1.0000 0.1209155684
H   H34       1.0  0.30310  0.85960  0.70450  1.0000 0.1209155684
H   H35       1.0  0.85960  0.69690  0.95450  1.0000 0.1209155684
H   H36       1.0  0.14040  0.30310  0.45450  1.0000 0.1209155684
H   H37       1.0  0.30310  0.14040  0.79550  1.0000 0.1209155684
H   H38       1.0  0.69690  0.85960  0.29550  1.0000 0.1209155684
H   H39       1.0  0.14040  0.69690  0.04550  1.0000 0.1209155684
H   H40       1.0  0.85960  0.30310  0.54550  1.0000 0.1209155684
H   H41       1.0  0.82180  0.29430  0.01730  1.0000 0.1125500879
H   H42       1.0  0.17820  0.70570  0.51730  1.0000 0.1125500879
H   H43       1.0  0.70570  0.82180  0.76730  1.0000 0.1125500879
H   H44       1.0  0.29430  0.17820  0.26730  1.0000 0.1125500879
H   H45       1.0  0.17820  0.29430  0.98270  1.0000 0.1125500879
H   H46       1.0  0.82180  0.70570  0.48270  1.0000 0.1125500879
H   H47       1.0  0.29430  0.82180  0.23270  1.0000 0.1125500879
H   H48       1.0  0.70570  0.17820  0.73270  1.0000 0.1125500879
H   H49       1.0  0.89700  0.38540  0.98370  1.0000 0.103649362
H   H50       1.0  0.10300  0.61460  0.48370  1.0000 0.103649362
H   H51       1.0  0.61460  0.89700  0.73370  1.0000 0.103649362
H   H52       1.0  0.38540  0.10300  0.23370  1.0000 0.103649362
H   H53       1.0  0.10300  0.38540  0.01630  1.0000 0.103649362
H   H54       1.0  0.89700  0.61460  0.51630  1.0000 0.103649362
H   H55       1.0  0.38540  0.89700  0.26630  1.0000 0.103649362
H   H56       1.0  0.61460  0.10300  0.76630  1.0000 0.103649362
H   H57       1.0  0.81150  0.49920  0.05380  1.0000 0.2882410651
H   H58       1.0  0.18850  0.50080  0.55380  1.0000 0.2882410651
H   H59       1.0  0.50080  0.81150  0.80380  1.0000 0.2882410651
H   H60       1.0  0.49920  0.18850  0.30380  1.0000 0.2882410651
H   H61       1.0  0.18850  0.49920  0.94620  1.0000 0.2882410651
H   H62       1.0  0.81150  0.50080  0.44620  1.0000 0.2882410651
H   H63       1.0  0.49920  0.81150  0.19620  1.0000 0.2882410651
H   H64       1.0  0.50080  0.18850  0.69620  1.0000 0.2882410651
H   H65       1.0  0.76060  0.39590  0.92130  1.0000 0.1125500879
H   H66       1.0  0.23940  0.60410  0.42130  1.0000 0.1125500879
H   H67       1.0  0.60410  0.76060  0.67130  1.0000 0.1125500879
H   H68       1.0  0.39590  0.23940  0.17130  1.0000 0.1125500879
H   H69       1.0  0.23940  0.39590  0.07870  1.0000 0.1125500879
H   H70       1.0  0.76060  0.60410  0.57870  1.0000 0.1125500879
H   H71       1.0  0.39590  0.76060  0.32870  1.0000 0.1125500879
H   H72       1.0  0.60410  0.23940  0.82870  1.0000 0.1125500879
H   H73       1.0  0.70870  0.27870  0.94620  1.0000 0.1125500879
H   H74       1.0  0.29130  0.72130  0.44620  1.0000 0.1125500879
H   H75       1.0  0.72130  0.70870  0.69620  1.0000 0.1125500879
H   H76       1.0  0.27870  0.29130  0.19620  1.0000 0.1125500879
H   H77       1.0  0.29130  0.27870  0.05380  1.0000 0.1125500879
H   H78       1.0  0.70870  0.72130  0.55380  1.0000 0.1125500879
H   H79       1.0  0.27870  0.70870  0.30380  1.0000 0.1125500879
H   H80       1.0  0.72130  0.29130  0.80380  1.0000 0.1125500879
C   C1        1.0  0.66270  0.49120  0.01550  1.0000 0.5975486179
C   C2        1.0  0.33730  0.50880  0.51550  1.0000 0.5975486179
C   C3        1.0  0.50880  0.66270  0.76550  1.0000 0.5975486179
C   C4        1.0  0.49120  0.33730  0.26550  1.0000 0.5975486179
C   C5        1.0  0.33730  0.49120  0.98450  1.0000 0.5975486179
C   C6        1.0  0.66270  0.50880  0.48450  1.0000 0.5975486179
C   C7        1.0  0.49120  0.66270  0.23450  1.0000 0.5975486179
C   C8        1.0  0.50880  0.33730  0.73450  1.0000 0.5975486179
C   C9        1.0  0.61550  0.97970  0.10560  1.0000 -0.0186858934
C   C10       1.0  0.38450  0.02030  0.60560  1.0000 -0.0186858934
C   C11       1.0  0.02030  0.61550  0.85560  1.0000 -0.0186858934
C   C12       1.0  0.97970  0.38450  0.35560  1.0000 -0.0186858934
C   C13       1.0  0.38450  0.97970  0.89440  1.0000 -0.0186858934
C   C14       1.0  0.61550  0.02030  0.39440  1.0000 -0.0186858934
C   C15       1.0  0.97970  0.61550  0.14440  1.0000 -0.0186858934
C   C16       1.0  0.02030  0.38450  0.64440  1.0000 -0.0186858934
C   C17       1.0  0.63830  0.21480  0.13650  1.0000 -0.028152491
C   C18       1.0  0.36170  0.78520  0.63650  1.0000 -0.028152491
C   C19       1.0  0.78520  0.63830  0.88650  1.0000 -0.028152491
C   C20       1.0  0.21480  0.36170  0.38650  1.0000 -0.028152491
C   C21       1.0  0.36170  0.21480  0.86350  1.0000 -0.028152491
C   C22       1.0  0.63830  0.78520  0.36350  1.0000 -0.028152491
C   C23       1.0  0.21480  0.63830  0.11350  1.0000 -0.028152491
C   C24       1.0  0.78520  0.36170  0.61350  1.0000 -0.028152491
C   C25       1.0  0.65390  0.00790  0.15660  1.0000 -0.1253232183
C   C26       1.0  0.34610  0.99210  0.65660  1.0000 -0.1253232183
C   C27       1.0  0.99210  0.65390  0.90660  1.0000 -0.1253232183
C   C28       1.0  0.00790  0.34610  0.40660  1.0000 -0.1253232183
C   C29       1.0  0.34610  0.00790  0.84340  1.0000 -0.1253232183
C   C30       1.0  0.65390  0.99210  0.34340  1.0000 -0.1253232183
C   C31       1.0  0.00790  0.65390  0.09340  1.0000 -0.1253232183
C   C32       1.0  0.99210  0.34610  0.59340  1.0000 -0.1253232183
C   C33       1.0  0.59990  0.18480  0.08580  1.0000 -0.1253232183
C   C34       1.0  0.40010  0.81520  0.58580  1.0000 -0.1253232183
C   C35       1.0  0.81520  0.59990  0.83580  1.0000 -0.1253232183
C   C36       1.0  0.18480  0.40010  0.33580  1.0000 -0.1253232183
C   C37       1.0  0.40010  0.18480  0.91420  1.0000 -0.1253232183
C   C38       1.0  0.59990  0.81520  0.41420  1.0000 -0.1253232183
C   C39       1.0  0.18480  0.59990  0.16420  1.0000 -0.1253232183
C   C40       1.0  0.81520  0.40010  0.66420  1.0000 -0.1253232183
C   C41       1.0  0.64490  0.34030  0.15370  1.0000 0.5685131466
C   C42       1.0  0.35510  0.65970  0.65370  1.0000 0.5685131466
C   C43       1.0  0.65970  0.64490  0.90370  1.0000 0.5685131466
C   C44       1.0  0.34030  0.35510  0.40370  1.0000 0.5685131466
C   C45       1.0  0.35510  0.34030  0.84630  1.0000 0.5685131466
C   C46       1.0  0.64490  0.65970  0.34630  1.0000 0.5685131466
C   C47       1.0  0.34030  0.64490  0.09630  1.0000 0.5685131466
C   C48       1.0  0.65970  0.35510  0.59630  1.0000 0.5685131466
C   C49       1.0  0.59120  0.06950  0.07140  1.0000 -0.1099445317
C   C50       1.0  0.40880  0.93050  0.57140  1.0000 -0.1099445317
C   C51       1.0  0.93050  0.59120  0.82140  1.0000 -0.1099445317
C   C52       1.0  0.06950  0.40880  0.32140  1.0000 -0.1099445317
C   C53       1.0  0.40880  0.06950  0.92860  1.0000 -0.1099445317
C   C54       1.0  0.59120  0.93050  0.42860  1.0000 -0.1099445317
C   C55       1.0  0.06950  0.59120  0.17860  1.0000 -0.1099445317
C   C56       1.0  0.93050  0.40880  0.67860  1.0000 -0.1099445317
C   C57       1.0  0.66750  0.12270  0.17100  1.0000 -0.1099445317
C   C58       1.0  0.33250  0.87730  0.67100  1.0000 -0.1099445317
C   C59       1.0  0.87730  0.66750  0.92100  1.0000 -0.1099445317
C   C60       1.0  0.12270  0.33250  0.42100  1.0000 -0.1099445317
C   C61       1.0  0.33250  0.12270  0.82900  1.0000 -0.1099445317
C   C62       1.0  0.66750  0.87730  0.32900  1.0000 -0.1099445317
C   C63       1.0  0.12270  0.66750  0.07900  1.0000 -0.1099445317
C   C64       1.0  0.87730  0.33250  0.57900  1.0000 -0.1099445317
C   C65       1.0  0.81870  0.36740  0.99720  1.0000 -0.0896567395
C   C66       1.0  0.18130  0.63260  0.49720  1.0000 -0.0896567395
C   C67       1.0  0.63260  0.81870  0.74720  1.0000 -0.0896567395
C   C68       1.0  0.36740  0.18130  0.24720  1.0000 -0.0896567395
C   C69       1.0  0.18130  0.36740  0.00280  1.0000 -0.0896567395
C   C70       1.0  0.81870  0.63260  0.50280  1.0000 -0.0896567395
C   C71       1.0  0.36740  0.81870  0.25280  1.0000 -0.0896567395
C   C72       1.0  0.63260  0.18130  0.75280  1.0000 -0.0896567395
C   C73       1.0  0.59770  0.85290  0.08950  1.0000 0.5913909738
C   C74       1.0  0.40230  0.14710  0.58950  1.0000 0.5913909738
C   C75       1.0  0.14710  0.59770  0.83950  1.0000 0.5913909738
C   C76       1.0  0.85290  0.40230  0.33950  1.0000 0.5913909738
C   C77       1.0  0.40230  0.85290  0.91050  1.0000 0.5913909738
C   C78       1.0  0.59770  0.14710  0.41050  1.0000 0.5913909738
C   C79       1.0  0.85290  0.59770  0.16050  1.0000 0.5913909738
C   C80       1.0  0.14710  0.40230  0.66050  1.0000 0.5913909738
C   C81       1.0  0.73020  0.36020  0.95350  1.0000 -0.0896567395
C   C82       1.0  0.26980  0.63980  0.45350  1.0000 -0.0896567395
C   C83       1.0  0.63980  0.73020  0.70350  1.0000 -0.0896567395
C   C84       1.0  0.36020  0.26980  0.20350  1.0000 -0.0896567395
C   C85       1.0  0.26980  0.36020  0.04650  1.0000 -0.0896567395
C   C86       1.0  0.73020  0.63980  0.54650  1.0000 -0.0896567395
C   C87       1.0  0.36020  0.73020  0.29650  1.0000 -0.0896567395
C   C88       1.0  0.63980  0.26980  0.79650  1.0000 -0.0896567395
N   N1        1.0  0.62950  0.42660  0.97410  1.0000 -0.3775455589
N   N2        1.0  0.37050  0.57340  0.47410  1.0000 -0.3775455589
N   N3        1.0  0.57340  0.62950  0.72410  1.0000 -0.3775455589
N   N4        1.0  0.42660  0.37050  0.22410  1.0000 -0.3775455589
N   N5        1.0  0.37050  0.42660  0.02590  1.0000 -0.3775455589
N   N6        1.0  0.62950  0.57340  0.52590  1.0000 -0.3775455589
N   N7        1.0  0.42660  0.62950  0.27590  1.0000 -0.3775455589
N   N8        1.0  0.57340  0.37050  0.77590  1.0000 -0.3775455589
N   N9        1.0  0.77250  0.46410  0.02910  1.0000 -0.3571260059
N   N10       1.0  0.22750  0.53590  0.52910  1.0000 -0.3571260059
N   N11       1.0  0.53590  0.77250  0.77910  1.0000 -0.3571260059
N   N12       1.0  0.46410  0.22750  0.27910  1.0000 -0.3571260059
N   N13       1.0  0.22750  0.46410  0.97090  1.0000 -0.3571260059
N   N14       1.0  0.77250  0.53590  0.47090  1.0000 -0.3571260059
N   N15       1.0  0.46410  0.77250  0.22090  1.0000 -0.3571260059
N   N16       1.0  0.53590  0.22750  0.72090  1.0000 -0.3571260059
O   O1        1.0  0.59010  0.41470  0.12510  1.0000 -0.5724801952
O   O2        1.0  0.40990  0.58530  0.62510  1.0000 -0.5724801952
O   O3        1.0  0.58530  0.59010  0.87510  1.0000 -0.5724801952
O   O4        1.0  0.41470  0.40990  0.37510  1.0000 -0.5724801952
O   O5        1.0  0.40990  0.41470  0.87490  1.0000 -0.5724801952
O   O6        1.0  0.59010  0.58530  0.37490  1.0000 -0.5724801952
O   O7        1.0  0.41470  0.59010  0.12490  1.0000 -0.5724801952
O   O8        1.0  0.58530  0.40990  0.62490  1.0000 -0.5724801952
O   O9        1.0  0.59540  0.77600  0.12530  1.0000 -0.5724801952
O   O10       1.0  0.40460  0.22400  0.62530  1.0000 -0.5724801952
O   O11       1.0  0.22400  0.59540  0.87530  1.0000 -0.5724801952
O   O12       1.0  0.77600  0.40460  0.37530  1.0000 -0.5724801952
O   O13       1.0  0.40460  0.77600  0.87470  1.0000 -0.5724801952
O   O14       1.0  0.59540  0.22400  0.37470  1.0000 -0.5724801952
O   O15       1.0  0.77600  0.59540  0.12470  1.0000 -0.5724801952
O   O16       1.0  0.22400  0.40460  0.62470  1.0000 -0.5724801952
O   O17       1.0  0.58750  0.83290  0.04030  1.0000 -0.540652358
O   O18       1.0  0.41250  0.16710  0.54030  1.0000 -0.540652358
O   O19       1.0  0.16710  0.58750  0.79030  1.0000 -0.540652358
O   O20       1.0  0.83290  0.41250  0.29030  1.0000 -0.540652358
O   O21       1.0  0.41250  0.83290  0.95970  1.0000 -0.540652358
O   O22       1.0  0.58750  0.16710  0.45970  1.0000 -0.540652358
O   O23       1.0  0.83290  0.58750  0.20970  1.0000 -0.540652358
O   O24       1.0  0.16710  0.41250  0.70970  1.0000 -0.540652358
O   O25       1.0  0.59810  0.56580  0.03910  1.0000 -0.6285540545
O   O26       1.0  0.40190  0.43420  0.53910  1.0000 -0.6285540545
O   O27       1.0  0.43420  0.59810  0.78910  1.0000 -0.6285540545
O   O28       1.0  0.56580  0.40190  0.28910  1.0000 -0.6285540545
O   O29       1.0  0.40190  0.56580  0.96090  1.0000 -0.6285540545
O   O30       1.0  0.59810  0.43420  0.46090  1.0000 -0.6285540545
O   O31       1.0  0.56580  0.59810  0.21090  1.0000 -0.6285540545
O   O32       1.0  0.43420  0.40190  0.71090  1.0000 -0.6285540545
O   O33       1.0  0.70040  0.36390  0.19520  1.0000 -0.5589480633
O   O34       1.0  0.29960  0.63610  0.69520  1.0000 -0.5589480633
O   O35       1.0  0.63610  0.70040  0.94520  1.0000 -0.5589480633
O   O36       1.0  0.36390  0.29960  0.44520  1.0000 -0.5589480633
O   O37       1.0  0.29960  0.36390  0.80480  1.0000 -0.5589480633
O   O38       1.0  0.70040  0.63610  0.30480  1.0000 -0.5589480633
O   O39       1.0  0.36390  0.70040  0.05480  1.0000 -0.5589480633
O   O40       1.0  0.63610  0.29960  0.55480  1.0000 -0.5589480633
