# DDEC6 charges by PACMAN v1.1 (https://github.com/mtap-research/PACMAN-charge/)
data_2011[Cu][lvt]3[ASR]4
_chemical_formula_sum              "Cu8 H128 C160 N32"
_cell_length_a       22.1485
_cell_length_b       22.1485
_cell_length_c       22.1485
_cell_angle_alpha    99.5877
_cell_angle_beta     99.5877
_cell_angle_gamma    131.827

_symmetry_space_group_name_H-M    "P 1"
_symmetry_Int_Tables_number       1

loop_
  _symmetry_equiv_pos_as_xyz
  'x, y, z'

loop_
  _atom_site_type_symbol
  _atom_site_label
  _atom_site_symmetry_multiplicity
  _atom_site_fract_x
  _atom_site_fract_y
  _atom_site_fract_z
  _atom_site_occupancy
  _atom_site_charge
Cu  Cu1       1.0  0.88508  0.62500  0.76008  1.0000 0.2103669733
Cu  Cu2       1.0  0.86492  0.12500  0.23992  1.0000 0.2103669733
Cu  Cu3       1.0  0.37500  0.13508  0.26008  1.0000 0.2103669733
Cu  Cu4       1.0  0.87500  0.11492  0.73992  1.0000 0.2103669733
Cu  Cu5       1.0  0.87500  0.61492  0.23992  1.0000 0.2103669733
Cu  Cu6       1.0  0.37500  0.63508  0.76008  1.0000 0.2103669733
Cu  Cu7       1.0  0.36492  0.12500  0.73992  1.0000 0.2103669733
Cu  Cu8       1.0  0.38508  0.62500  0.26008  1.0000 0.2103669733
H   H1        1.0  0.05550  0.81090  0.82200  1.0000 0.0898977771
H   H2        1.0  0.98890  0.23350  0.17800  1.0000 0.0898977771
H   H3        1.0  0.69450  0.01650  0.25540  1.0000 0.0898977771
H   H4        1.0  0.76110  0.43910  0.74460  1.0000 0.0898977771
H   H5        1.0  0.18910  0.01110  0.24460  1.0000 0.0898977771
H   H6        1.0  0.76650  0.94450  0.75540  1.0000 0.0898977771
H   H7        1.0  0.98350  0.23890  0.67800  1.0000 0.0898977771
H   H8        1.0  0.56090  0.30550  0.32200  1.0000 0.0898977771
H   H9        1.0  0.15590  0.91840  0.92450  1.0000 0.1225306256
H   H10       1.0  0.99390  0.23140  0.07550  1.0000 0.1225306256
H   H11       1.0  0.59410  0.01860  0.26250  1.0000 0.1225306256
H   H12       1.0  0.75610  0.33160  0.73750  1.0000 0.1225306256
H   H13       1.0  0.08160  0.00610  0.23750  1.0000 0.1225306256
H   H14       1.0  0.76860  0.84410  0.76250  1.0000 0.1225306256
H   H15       1.0  0.98140  0.24390  0.57550  1.0000 0.1225306256
H   H16       1.0  0.66840  0.40590  0.42450  1.0000 0.1225306256
H   H17       1.0  0.02930  0.73780  0.00410  1.0000 0.1225306256
H   H18       1.0  0.73370  0.02520  0.99590  1.0000 0.1225306256
H   H19       1.0  0.72070  0.22480  0.20850  1.0000 0.1225306256
H   H20       1.0  0.01630  0.51220  0.79150  1.0000 0.1225306256
H   H21       1.0  0.26220  0.26630  0.29150  1.0000 0.1225306256
H   H22       1.0  0.97480  0.97070  0.70850  1.0000 0.1225306256
H   H23       1.0  0.77520  0.98370  0.49590  1.0000 0.1225306256
H   H24       1.0  0.48780  0.27930  0.50410  1.0000 0.1225306256
H   H25       1.0  0.92780  0.63430  0.89870  1.0000 0.0898977771
H   H26       1.0  0.73560  0.02910  0.10130  1.0000 0.0898977771
H   H27       1.0  0.82220  0.22090  0.20650  1.0000 0.0898977771
H   H28       1.0  0.01440  0.61570  0.79350  1.0000 0.0898977771
H   H29       1.0  0.36570  0.26440  0.29350  1.0000 0.0898977771
H   H30       1.0  0.97090  0.07220  0.70650  1.0000 0.0898977771
H   H31       1.0  0.77910  0.98560  0.60130  1.0000 0.0898977771
H   H32       1.0  0.38430  0.17780  0.39870  1.0000 0.0898977771
H   H33       1.0  0.27450  0.94780  0.18690  1.0000 0.0898977771
H   H34       1.0  0.76090  0.08760  0.81310  1.0000 0.0898977771
H   H35       1.0  0.47550  0.16240  0.17330  1.0000 0.0898977771
H   H36       1.0  0.98910  0.30220  0.82670  1.0000 0.0898977771
H   H37       1.0  0.05220  0.23910  0.32670  1.0000 0.0898977771
H   H38       1.0  0.91240  0.72550  0.67330  1.0000 0.0898977771
H   H39       1.0  0.83760  0.01090  0.31310  1.0000 0.0898977771
H   H40       1.0  0.69780  0.52450  0.68690  1.0000 0.0898977771
H   H41       1.0  0.17480  0.83900  0.08500  1.0000 0.1264005726
H   H42       1.0  0.75400  0.08980  0.91500  1.0000 0.1264005726
H   H43       1.0  0.57520  0.16020  0.16420  1.0000 0.1264005726
H   H44       1.0  0.99600  0.41100  0.83580  1.0000 0.1264005726
H   H45       1.0  0.16100  0.24600  0.33580  1.0000 0.1264005726
H   H46       1.0  0.91020  0.82520  0.66420  1.0000 0.1264005726
H   H47       1.0  0.83980  0.00400  0.41500  1.0000 0.1264005726
H   H48       1.0  0.58900  0.42480  0.58500  1.0000 0.1264005726
H   H49       1.0  0.18530  0.00570  0.02620  1.0000 0.1225306256
H   H50       1.0  0.97950  0.15910  0.97380  1.0000 0.1225306256
H   H51       1.0  0.56470  0.09090  0.32040  1.0000 0.1225306256
H   H52       1.0  0.77050  0.24430  0.67960  1.0000 0.1225306256
H   H53       1.0  0.99430  0.02050  0.17960  1.0000 0.1225306256
H   H54       1.0  0.84090  0.81470  0.82040  1.0000 0.1225306256
H   H55       1.0  0.90910  0.22950  0.47380  1.0000 0.1225306256
H   H56       1.0  0.75570  0.43530  0.52620  1.0000 0.1225306256
H   H57       1.0  0.28220  0.11000  0.12960  1.0000 0.0953196414
H   H58       1.0  0.98040  0.15260  0.87040  1.0000 0.0953196414
H   H59       1.0  0.46780  0.09740  0.32780  1.0000 0.0953196414
H   H60       1.0  0.76960  0.14000  0.67220  1.0000 0.0953196414
H   H61       1.0  0.89000  0.01960  0.17220  1.0000 0.0953196414
H   H62       1.0  0.84740  0.71780  0.82780  1.0000 0.0953196414
H   H63       1.0  0.90260  0.23040  0.37040  1.0000 0.0953196414
H   H64       1.0  0.86000  0.53220  0.62960  1.0000 0.0953196414
H   H65       1.0  0.06090  0.73890  0.25540  1.0000 0.0898977771
H   H66       1.0  0.48350  0.80550  0.74460  1.0000 0.0898977771
H   H67       1.0  0.26650  0.51110  0.82200  1.0000 0.0898977771
H   H68       1.0  0.68910  0.44450  0.17800  1.0000 0.0898977771
H   H69       1.0  0.19450  0.93910  0.67800  1.0000 0.0898977771
H   H70       1.0  0.26110  0.51650  0.32200  1.0000 0.0898977771
H   H71       1.0  0.55550  0.73350  0.24460  1.0000 0.0898977771
H   H72       1.0  0.48890  0.31090  0.75540  1.0000 0.0898977771
H   H73       1.0  0.16840  0.74390  0.26250  1.0000 0.1225306256
H   H74       1.0  0.48140  0.90590  0.73750  1.0000 0.1225306256
H   H75       1.0  0.26860  0.50610  0.92450  1.0000 0.1225306256
H   H76       1.0  0.58160  0.34410  0.07550  1.0000 0.1225306256
H   H77       1.0  0.09410  0.83160  0.57550  1.0000 0.1225306256
H   H78       1.0  0.25610  0.51860  0.42450  1.0000 0.1225306256
H   H79       1.0  0.65590  0.73140  0.23750  1.0000 0.1225306256
H   H80       1.0  0.49390  0.41840  0.76250  1.0000 0.1225306256
H   H81       1.0  0.98780  0.48370  0.20850  1.0000 0.1225306256
H   H82       1.0  0.27520  0.77930  0.79150  1.0000 0.1225306256
H   H83       1.0  0.47480  0.76630  0.00410  1.0000 0.1225306256
H   H84       1.0  0.76220  0.47070  0.99590  1.0000 0.1225306256
H   H85       1.0  0.22070  0.01220  0.49590  1.0000 0.1225306256
H   H86       1.0  0.51630  0.72480  0.50410  1.0000 0.1225306256
H   H87       1.0  0.52930  0.52520  0.29150  1.0000 0.1225306256
H   H88       1.0  0.23370  0.23780  0.70850  1.0000 0.1225306256
H   H89       1.0  0.88430  0.48560  0.20650  1.0000 0.0898977771
H   H90       1.0  0.27910  0.67780  0.79350  1.0000 0.0898977771
H   H91       1.0  0.47090  0.76440  0.89870  1.0000 0.0898977771
H   H92       1.0  0.86570  0.57220  0.10130  1.0000 0.0898977771
H   H93       1.0  0.32220  0.11570  0.60130  1.0000 0.0898977771
H   H94       1.0  0.51440  0.72090  0.39870  1.0000 0.0898977771
H   H95       1.0  0.42780  0.52910  0.29350  1.0000 0.0898977771
H   H96       1.0  0.23560  0.13430  0.70650  1.0000 0.0898977771
H   H97       1.0  0.19780  0.51090  0.17330  1.0000 0.0898977771
H   H98       1.0  0.33760  0.02450  0.82670  1.0000 0.0898977771
H   H99       1.0  0.41240  0.73910  0.18690  1.0000 0.0898977771
H   H100      1.0  0.55220  0.22550  0.81310  1.0000 0.0898977771
H   H101      1.0  0.97550  0.80220  0.31310  1.0000 0.0898977771
H   H102      1.0  0.48910  0.66240  0.68690  1.0000 0.0898977771
H   H103      1.0  0.77450  0.58760  0.32670  1.0000 0.0898977771
H   H104      1.0  0.26090  0.44780  0.67330  1.0000 0.0898977771
H   H105      1.0  0.08900  0.50400  0.16420  1.0000 0.1264005726
H   H106      1.0  0.33980  0.92480  0.83580  1.0000 0.1264005726
H   H107      1.0  0.41020  0.74600  0.08500  1.0000 0.1264005726
H   H108      1.0  0.66100  0.32520  0.91500  1.0000 0.1264005726
H   H109      1.0  0.07520  0.91100  0.41500  1.0000 0.1264005726
H   H110      1.0  0.49600  0.66020  0.58500  1.0000 0.1264005726
H   H111      1.0  0.67480  0.58980  0.33580  1.0000 0.1264005726
H   H112      1.0  0.25400  0.33900  0.66420  1.0000 0.1264005726
H   H113      1.0  0.25570  0.72950  0.32040  1.0000 0.1225306256
H   H114      1.0  0.40910  0.93530  0.67960  1.0000 0.1225306256
H   H115      1.0  0.34090  0.52050  0.02620  1.0000 0.1225306256
H   H116      1.0  0.49430  0.31470  0.97380  1.0000 0.1225306256
H   H117      1.0  0.06470  0.74430  0.47380  1.0000 0.1225306256
H   H118      1.0  0.27050  0.59090  0.52620  1.0000 0.1264005726
H   H119      1.0  0.68530  0.65910  0.17960  1.0000 0.1225306256
H   H120      1.0  0.47950  0.50570  0.82040  1.0000 0.1225306256
H   H121      1.0  0.36000  0.73040  0.32780  1.0000 0.0953196414
H   H122      1.0  0.40260  0.03220  0.67220  1.0000 0.0953196414
H   H123      1.0  0.34740  0.51960  0.12960  1.0000 0.0953196414
H   H124      1.0  0.39000  0.21780  0.87040  1.0000 0.0953196414
H   H125      1.0  0.96780  0.64000  0.37040  1.0000 0.0953196414
H   H126      1.0  0.26960  0.59740  0.62960  1.0000 0.0953196414
H   H127      1.0  0.78220  0.65260  0.17220  1.0000 0.0953196414
H   H128      1.0  0.48040  0.61000  0.82780  1.0000 0.0953196414
C   C1        1.0  0.04911  0.79628  0.85899  1.0000 0.0302584336
C   C2        1.0  0.93729  0.19012  0.14101  1.0000 0.0302584336
C   C3        1.0  0.70089  0.05988  0.24717  1.0000 0.0302584336
C   C4        1.0  0.81271  0.45372  0.75283  1.0000 0.0302584336
C   C5        1.0  0.20372  0.06271  0.25283  1.0000 0.0302584336
C   C6        1.0  0.80988  0.95089  0.74717  1.0000 0.0302584336
C   C7        1.0  0.94012  0.18729  0.64101  1.0000 0.0302584336
C   C8        1.0  0.54628  0.29911  0.35899  1.0000 0.0302584336
C   C9        1.0  0.11033  0.86097  0.92050  1.0000 -0.2098127265
C   C10       1.0  0.94047  0.18983  0.07950  1.0000 -0.2098127265
C   C11       1.0  0.63967  0.06017  0.25064  1.0000 -0.1976017209
C   C12       1.0  0.80953  0.38903  0.74936  1.0000 -0.2098127265
C   C13       1.0  0.13903  0.05953  0.24936  1.0000 -0.2098127265
C   C14       1.0  0.81017  0.88967  0.75064  1.0000 -0.2098127265
C   C15       1.0  0.93983  0.19047  0.57950  1.0000 -0.2098127265
C   C16       1.0  0.61097  0.36033  0.42050  1.0000 -0.2098127265
C   C17       1.0  0.10431  0.84093  0.97584  1.0000 0.0898977771
C   C18       1.0  0.86509  0.12847  0.02416  1.0000 0.0898977771
C   C19       1.0  0.64569  0.12153  0.23662  1.0000 0.0898977771
C   C20       1.0  0.88491  0.40907  0.76338  1.0000 0.0898977771
C   C21       1.0  0.15907  0.13491  0.26338  1.0000 0.0898977771
C   C22       1.0  0.87153  0.89569  0.73662  1.0000 0.0898977771
C   C23       1.0  0.87847  0.11509  0.52416  1.0000 0.0898977771
C   C24       1.0  0.59093  0.35431  0.47584  1.0000 0.0898977771
C   C25       1.0  0.03490  0.75400  0.96770  1.0000 -0.2098127265
C   C26       1.0  0.78630  0.06720  0.03230  1.0000 -0.2098127265
C   C27       1.0  0.71510  0.18280  0.21910  1.0000 -0.2098127265
C   C28       1.0  0.96370  0.49600  0.78090  1.0000 -0.2098127265
C   C29       1.0  0.24600  0.21370  0.28090  1.0000 -0.2098127265
C   C30       1.0  0.93280  0.96510  0.71910  1.0000 -0.2098127265
C   C31       1.0  0.81720  0.03630  0.53230  1.0000 -0.2098127265
C   C32       1.0  0.50400  0.28490  0.46770  1.0000 -0.2098127265
C   C33       1.0  0.97437  0.69221  0.90418  1.0000 0.0302584336
C   C34       1.0  0.78803  0.07019  0.09582  1.0000 0.0302584336
C   C35       1.0  0.77563  0.17981  0.21784  1.0000 0.0302584336
C   C36       1.0  0.96197  0.55779  0.78216  1.0000 0.0302584336
C   C37       1.0  0.30779  0.21197  0.28216  1.0000 0.0302584336
C   C38       1.0  0.92981  0.02563  0.71784  1.0000 0.0302584336
C   C39       1.0  0.82019  0.03803  0.59582  1.0000 0.0302584336
C   C40       1.0  0.44221  0.22437  0.40418  1.0000 0.0302584336
C   C41       1.0  0.25619  0.95942  0.15401  1.0000 0.0064350015
C   C42       1.0  0.80541  0.10218  0.84599  1.0000 0.0064350015
C   C43       1.0  0.49381  0.14782  0.20323  1.0000 0.0064350015
C   C44       1.0  0.94459  0.29058  0.79677  1.0000 0.0064350015
C   C45       1.0  0.04058  0.19459  0.29677  1.0000 0.0046103412
C   C46       1.0  0.89782  0.74381  0.70323  1.0000 0.0064350015
C   C47       1.0  0.85218  0.05541  0.34599  1.0000 0.0064350015
C   C48       1.0  0.70942  0.50619  0.65401  1.0000 0.0064350015
C   C49       1.0  0.19649  0.89397  0.09286  1.0000 -0.1976017209
C   C50       1.0  0.80111  0.10363  0.90714  1.0000 -0.1976017209
C   C51       1.0  0.55351  0.14637  0.19748  1.0000 -0.1976017209
C   C52       1.0  0.94889  0.35603  0.80252  1.0000 -0.1976017209
C   C53       1.0  0.10603  0.19889  0.30252  1.0000 -0.1976017209
C   C54       1.0  0.89637  0.80351  0.69748  1.0000 -0.1976017209
C   C55       1.0  0.85363  0.05111  0.40714  1.0000 -0.1976017209
C   C56       1.0  0.64397  0.44649  0.59286  1.0000 -0.1976017209
C   C57       1.0  0.16849  0.90942  0.04311  1.0000 0.0898977771
C   C58       1.0  0.86631  0.12538  0.95689  1.0000 0.0898977771
C   C59       1.0  0.58151  0.12462  0.24093  1.0000 0.0898977771
C   C60       1.0  0.88369  0.34058  0.75907  1.0000 0.0898977771
C   C61       1.0  0.09058  0.13369  0.25907  1.0000 0.0898977771
C   C62       1.0  0.87462  0.83151  0.74093  1.0000 0.0898977771
C   C63       1.0  0.87538  0.11631  0.45689  1.0000 0.0898977771
C   C64       1.0  0.65942  0.41849  0.54311  1.0000 0.0898977771
C   C65       1.0  0.20253  0.99258  0.05831  1.0000 -0.1976017209
C   C66       1.0  0.93427  0.14422  0.94169  1.0000 -0.1976017209
C   C67       1.0  0.54747  0.10578  0.29005  1.0000 -0.1976017209
C   C68       1.0  0.81573  0.25742  0.70995  1.0000 -0.1976017209
C   C69       1.0  0.00742  0.06573  0.20995  1.0000 -0.1976017209
C   C70       1.0  0.85578  0.79747  0.79005  1.0000 -0.1976017209
C   C71       1.0  0.89422  0.18427  0.44169  1.0000 -0.1976017209
C   C72       1.0  0.74258  0.45253  0.55831  1.0000 -0.1944997519
C   C73       1.0  0.26119  0.05514  0.12033  1.0000 0.0210207902
C   C74       1.0  0.93481  0.14086  0.87967  1.0000 0.0210207902
C   C75       1.0  0.48881  0.10914  0.29395  1.0000 0.0210207902
C   C76       1.0  0.81519  0.19486  0.70605  1.0000 0.0210207902
C   C77       1.0  0.94486  0.06519  0.20605  1.0000 0.0210207902
C   C78       1.0  0.85914  0.73881  0.79395  1.0000 0.0210207902
C   C79       1.0  0.89086  0.18481  0.37967  1.0000 0.0210207902
C   C80       1.0  0.80514  0.51119  0.62033  1.0000 0.0210207902
C   C81       1.0  0.04628  0.68729  0.24717  1.0000 0.0302584336
C   C82       1.0  0.44012  0.79911  0.75283  1.0000 0.0302584336
C   C83       1.0  0.30988  0.56271  0.85899  1.0000 0.0302584336
C   C84       1.0  0.70372  0.45089  0.14101  1.0000 0.0302584336
C   C85       1.0  0.20089  0.95372  0.64101  1.0000 0.0302584336
C   C86       1.0  0.31271  0.55988  0.35899  1.0000 0.0302584336
C   C87       1.0  0.54911  0.69012  0.25283  1.0000 0.0302584336
C   C88       1.0  0.43729  0.29628  0.74717  1.0000 0.0302584336
C   C89       1.0  0.11097  0.69047  0.25064  1.0000 -0.2098127265
C   C90       1.0  0.43983  0.86033  0.74936  1.0000 -0.2098127265
C   C91       1.0  0.31017  0.55953  0.92050  1.0000 -0.2098127265
C   C92       1.0  0.63903  0.38967  0.07950  1.0000 -0.2098127265
C   C93       1.0  0.13967  0.88903  0.57950  1.0000 -0.2098127265
C   C94       1.0  0.30953  0.56017  0.42050  1.0000 -0.1976017209
C   C95       1.0  0.61033  0.68983  0.24936  1.0000 -0.2098127265
C   C96       1.0  0.44047  0.36097  0.75064  1.0000 -0.1976017209
C   C97       1.0  0.09093  0.61509  0.23662  1.0000 0.0898977771
C   C98       1.0  0.37847  0.85431  0.76338  1.0000 0.0898977771
C   C99       1.0  0.37153  0.63491  0.97584  1.0000 0.0898977771
C   C100      1.0  0.65907  0.39569  0.02416  1.0000 0.0898977771
C   C101      1.0  0.14569  0.90907  0.52416  1.0000 0.0898977771
C   C102      1.0  0.38491  0.62153  0.47584  1.0000 0.0898977771
C   C103      1.0  0.60431  0.62847  0.26338  1.0000 0.0898977771
C   C104      1.0  0.36509  0.34093  0.73662  1.0000 0.0898977771
C   C105      1.0  0.00400  0.53630  0.21910  1.0000 -0.2098127265
C   C106      1.0  0.31720  0.78490  0.78090  1.0000 -0.2098127265
C   C107      1.0  0.43280  0.71370  0.96770  1.0000 -0.2098127265
C   C108      1.0  0.74600  0.46510  0.03230  1.0000 -0.2098127265
C   C109      1.0  0.21510  0.99600  0.53230  1.0000 -0.2098127265
C   C110      1.0  0.46370  0.68280  0.46770  1.0000 -0.2098127265
C   C111      1.0  0.53490  0.56720  0.28090  1.0000 -0.2098127265
C   C112      1.0  0.28630  0.25400  0.71910  1.0000 -0.2098127265
C   C113      1.0  0.94221  0.53803  0.21784  1.0000 0.0302584336
C   C114      1.0  0.32019  0.72437  0.78216  1.0000 0.0302584336
C   C115      1.0  0.42981  0.71197  0.90418  1.0000 0.0302584336
C   C116      1.0  0.80779  0.52563  0.09582  1.0000 0.0302584336
C   C117      1.0  0.27563  0.05779  0.59582  1.0000 0.0302584336
C   C118      1.0  0.46197  0.67981  0.40418  1.0000 0.0302584336
C   C119      1.0  0.47437  0.57019  0.28216  1.0000 0.0302584336
C   C120      1.0  0.28803  0.19221  0.71784  1.0000 0.0302584336
C   C121      1.0  0.20942  0.55541  0.20323  1.0000 0.0046103412
C   C122      1.0  0.35218  0.00619  0.79677  1.0000 0.0064350015
C   C123      1.0  0.39782  0.69459  0.15401  1.0000 0.0064350015
C   C124      1.0  0.54058  0.24381  0.84599  1.0000 0.0064350015
C   C125      1.0  0.99381  0.79058  0.34599  1.0000 0.0064350015
C   C126      1.0  0.44459  0.64782  0.65401  1.0000 0.0064350015
C   C127      1.0  0.75619  0.60218  0.29677  1.0000 0.0064350015
C   C128      1.0  0.30541  0.45942  0.70323  1.0000 0.0064350015
C   C129      1.0  0.14397  0.55111  0.19748  1.0000 -0.1976017209
C   C130      1.0  0.35363  0.94649  0.80252  1.0000 -0.1976017209
C   C131      1.0  0.39637  0.69889  0.09286  1.0000 -0.1976017209
C   C132      1.0  0.60603  0.30351  0.90714  1.0000 -0.1976017209
C   C133      1.0  0.05351  0.85603  0.40714  1.0000 -0.1976017209
C   C134      1.0  0.44889  0.64637  0.59286  1.0000 -0.1976017209
C   C135      1.0  0.69649  0.60363  0.30252  1.0000 -0.1976017209
C   C136      1.0  0.30111  0.39397  0.69748  1.0000 -0.1976017209
C   C137      1.0  0.15942  0.61631  0.24093  1.0000 0.0898977771
C   C138      1.0  0.37538  0.91849  0.75907  1.0000 0.0898977771
C   C139      1.0  0.37462  0.63369  0.04311  1.0000 0.0898977771
C   C140      1.0  0.59058  0.33151  0.95689  1.0000 0.0898977771
C   C141      1.0  0.08151  0.84058  0.45689  1.0000 0.0898977771
C   C142      1.0  0.38369  0.62462  0.54311  1.0000 0.0898977771
C   C143      1.0  0.66849  0.62538  0.25907  1.0000 0.0898977771
C   C144      1.0  0.36631  0.40942  0.74093  1.0000 0.0898977771
C   C145      1.0  0.24258  0.68427  0.29005  1.0000 -0.1976017209
C   C146      1.0  0.39422  0.95253  0.70995  1.0000 -0.1976017209
C   C147      1.0  0.35578  0.56573  0.05831  1.0000 -0.1976017209
C   C148      1.0  0.50742  0.29747  0.94169  1.0000 -0.1976017209
C   C149      1.0  0.04747  0.75742  0.44169  1.0000 -0.1976017209
C   C150      1.0  0.31573  0.60578  0.55831  1.0000 -0.1976017209
C   C151      1.0  0.70253  0.64422  0.20995  1.0000 -0.1976017209
C   C152      1.0  0.43427  0.49258  0.79005  1.0000 -0.1976017209
C   C153      1.0  0.30514  0.68481  0.29395  1.0000 0.0210207902
C   C154      1.0  0.39086  0.01119  0.70605  1.0000 0.0210207902
C   C155      1.0  0.35914  0.56519  0.12033  1.0000 0.0210207902
C   C156      1.0  0.44486  0.23881  0.87967  1.0000 0.0210207902
C   C157      1.0  0.98881  0.69486  0.37967  1.0000 0.0210207902
C   C158      1.0  0.31519  0.60914  0.62033  1.0000 0.0210207902
C   C159      1.0  0.76119  0.64086  0.20605  1.0000 0.0210207902
C   C160      1.0  0.43481  0.55514  0.79395  1.0000 0.0210207902
N   N1        1.0  0.98076  0.71312  0.85048  1.0000 -0.2098127265
N   N2        1.0  0.86264  0.13028  0.14952  1.0000 -0.2098127265
N   N3        1.0  0.76924  0.11972  0.23236  1.0000 -0.2098127265
N   N4        1.0  0.88736  0.53688  0.76764  1.0000 -0.2098127265
N   N5        1.0  0.28688  0.13736  0.26764  1.0000 -0.2098127265
N   N6        1.0  0.86972  0.01924  0.73236  1.0000 -0.2098127265
N   N7        1.0  0.88028  0.11264  0.64952  1.0000 -0.2098127265
N   N8        1.0  0.46312  0.23076  0.35048  1.0000 -0.2098127265
N   N9        1.0  0.28960  0.04037  0.16837  1.0000 -0.2098127265
N   N10       1.0  0.87200  0.12123  0.83163  1.0000 -0.2098127265
N   N11       1.0  0.46040  0.12877  0.25077  1.0000 -0.2098127265
N   N12       1.0  0.87800  0.20963  0.74923  1.0000 -0.2098127265
N   N13       1.0  0.95963  0.12800  0.24923  1.0000 -0.2098127265
N   N14       1.0  0.87877  0.71040  0.75077  1.0000 -0.2098127265
N   N15       1.0  0.87123  0.12200  0.33163  1.0000 -0.2098127265
N   N16       1.0  0.79037  0.53960  0.66837  1.0000 -0.2098127265
N   N17       1.0  0.96312  0.61264  0.23236  1.0000 -0.2098127265
N   N18       1.0  0.38028  0.73076  0.76764  1.0000 -0.2098127265
N   N19       1.0  0.36972  0.63736  0.85048  1.0000 -0.2098127265
N   N20       1.0  0.78688  0.51924  0.14952  1.0000 -0.2098127265
N   N21       1.0  0.26924  0.03688  0.64952  1.0000 -0.2098127265
N   N22       1.0  0.38736  0.61972  0.35048  1.0000 -0.2098127265
N   N23       1.0  0.48076  0.63028  0.26764  1.0000 -0.2098127265
N   N24       1.0  0.36264  0.21312  0.73236  1.0000 -0.2098127265
N   N25       1.0  0.29037  0.62200  0.25077  1.0000 -0.2098127265
N   N26       1.0  0.37123  0.03960  0.74923  1.0000 -0.2098127265
N   N27       1.0  0.37877  0.62800  0.16837  1.0000 -0.2098127265
N   N28       1.0  0.45963  0.21040  0.83163  1.0000 -0.2098127265
N   N29       1.0  0.96040  0.70963  0.33163  1.0000 -0.2098127265
N   N30       1.0  0.37800  0.62877  0.66837  1.0000 -0.2098127265
N   N31       1.0  0.78960  0.62123  0.24923  1.0000 -0.2098127265
N   N32       1.0  0.37200  0.54037  0.75077  1.0000 -0.2098127265
