# DDEC6 charges by PACMAN v1.1 (https://github.com/mtap-research/PACMAN-charge/)
data_2011[Zn][uni]3[ASR]2
_chemical_formula_sum              "Zn6 H90 C66 Br6 N12 O12"
_cell_length_a       17.768
_cell_length_b       17.768
_cell_length_c       10.4796
_cell_angle_alpha    90
_cell_angle_beta     90
_cell_angle_gamma    120

_symmetry_space_group_name_H-M    "P 1"
_symmetry_Int_Tables_number       1

loop_
  _symmetry_equiv_pos_as_xyz
  'x, y, z'

loop_
  _atom_site_type_symbol
  _atom_site_label
  _atom_site_symmetry_multiplicity
  _atom_site_fract_x
  _atom_site_fract_y
  _atom_site_fract_z
  _atom_site_occupancy
  _atom_site_charge
Zn  Zn1       1.0  0.52779  0.07072  0.26285  1.0000 0.6651762379
Zn  Zn2       1.0  0.45707  0.52779  0.42952  1.0000 0.6651762379
Zn  Zn3       1.0  0.92928  0.45707  0.59618  1.0000 0.6651762379
Zn  Zn4       1.0  0.47221  0.92928  0.76285  1.0000 0.6651762379
Zn  Zn5       1.0  0.54293  0.47221  0.92952  1.0000 0.6651762379
Zn  Zn6       1.0  0.07072  0.54293  0.09618  1.0000 0.6651762379
H   H1        1.0  0.44510  0.92040  0.17080  1.0000 0.2553569727
H   H2        1.0  0.52470  0.44510  0.33747  1.0000 0.2553569727
H   H3        1.0  0.07960  0.52470  0.50413  1.0000 0.2553569727
H   H4        1.0  0.55490  0.07960  0.67080  1.0000 0.2553569727
H   H5        1.0  0.47530  0.55490  0.83747  1.0000 0.2553569727
H   H6        1.0  0.92040  0.47530  0.00413  1.0000 0.2553569727
H   H7        1.0  0.37520  0.84610  0.37670  1.0000 0.108262497
H   H8        1.0  0.52910  0.37520  0.54337  1.0000 0.108262497
H   H9        1.0  0.15390  0.52910  0.71003  1.0000 0.108262497
H   H10       1.0  0.62480  0.15390  0.87670  1.0000 0.108262497
H   H11       1.0  0.47090  0.62480  0.04337  1.0000 0.108262497
H   H12       1.0  0.84610  0.47090  0.21003  1.0000 0.108262497
H   H13       1.0  0.47920  0.80420  0.40180  1.0000 0.0861629301
H   H14       1.0  0.67500  0.47920  0.56847  1.0000 0.0861629301
H   H15       1.0  0.19580  0.67500  0.73513  1.0000 0.0861629301
H   H16       1.0  0.52080  0.19580  0.90180  1.0000 0.0861629301
H   H17       1.0  0.32500  0.52080  0.06847  1.0000 0.0861629301
H   H18       1.0  0.80420  0.32500  0.23513  1.0000 0.0861629301
H   H19       1.0  0.59150  0.85200  0.24280  1.0000 0.1306930684
H   H20       1.0  0.73950  0.59150  0.40947  1.0000 0.1306930684
H   H21       1.0  0.14800  0.73950  0.57613  1.0000 0.1306930684
H   H22       1.0  0.40850  0.14800  0.74280  1.0000 0.1306930684
H   H23       1.0  0.26050  0.40850  0.90947  1.0000 0.1306930684
H   H24       1.0  0.85200  0.26050  0.07613  1.0000 0.1306930684
H   H25       1.0  0.60670  0.91830  0.35240  1.0000 0.1389155629
H   H26       1.0  0.68840  0.60670  0.51907  1.0000 0.1389155629
H   H27       1.0  0.08170  0.68840  0.68573  1.0000 0.1389155629
H   H28       1.0  0.39330  0.08170  0.85240  1.0000 0.1389155629
H   H29       1.0  0.31160  0.39330  0.01907  1.0000 0.1389155629
H   H30       1.0  0.91830  0.31160  0.18573  1.0000 0.1389155629
H   H31       1.0  0.57500  0.92960  0.21790  1.0000 0.108262497
H   H32       1.0  0.64540  0.57500  0.38457  1.0000 0.108262497
H   H33       1.0  0.07040  0.64540  0.55123  1.0000 0.108262497
H   H34       1.0  0.42500  0.07040  0.71790  1.0000 0.108262497
H   H35       1.0  0.35460  0.42500  0.88457  1.0000 0.108262497
H   H36       1.0  0.92960  0.35460  0.05123  1.0000 0.108262497
H   H37       1.0  0.43180  0.78330  0.14210  1.0000 0.1199154442
H   H38       1.0  0.64850  0.43180  0.30877  1.0000 0.1199154442
H   H39       1.0  0.21670  0.64850  0.47543  1.0000 0.1199154442
H   H40       1.0  0.56820  0.21670  0.64210  1.0000 0.1199154442
H   H41       1.0  0.35150  0.56820  0.80877  1.0000 0.1199154442
H   H42       1.0  0.78330  0.35150  0.97543  1.0000 0.1199154442
H   H43       1.0  0.36430  0.73070  0.24950  1.0000 0.1199154442
H   H44       1.0  0.63360  0.36430  0.41617  1.0000 0.1199154442
H   H45       1.0  0.26930  0.63360  0.58283  1.0000 0.1199154442
H   H46       1.0  0.63570  0.26930  0.74950  1.0000 0.1199154442
H   H47       1.0  0.36640  0.63570  0.91617  1.0000 0.1199154442
H   H48       1.0  0.73070  0.36640  0.08283  1.0000 0.1199154442
H   H49       1.0  0.44440  0.71780  0.22700  1.0000 0.1389155629
H   H50       1.0  0.72660  0.44440  0.39367  1.0000 0.1389155629
H   H51       1.0  0.28220  0.72660  0.56033  1.0000 0.1389155629
H   H52       1.0  0.55560  0.28220  0.72700  1.0000 0.1389155629
H   H53       1.0  0.27340  0.55560  0.89367  1.0000 0.1389155629
H   H54       1.0  0.71780  0.27340  0.06033  1.0000 0.1389155629
H   H55       1.0  0.10270  0.67590  0.29820  1.0000 0.1199154442
H   H56       1.0  0.42680  0.10270  0.46487  1.0000 0.1199154442
H   H57       1.0  0.32410  0.42680  0.63153  1.0000 0.1199154442
H   H58       1.0  0.89730  0.32410  0.79820  1.0000 0.1199154442
H   H59       1.0  0.57320  0.89730  0.96487  1.0000 0.1199154442
H   H60       1.0  0.67590  0.57320  0.13153  1.0000 0.1199154442
H   H61       1.0  0.22320  0.69560  0.97830  1.0000 0.1199154442
H   H62       1.0  0.52760  0.22320  0.14497  1.0000 0.1199154442
H   H63       1.0  0.30440  0.52760  0.31163  1.0000 0.1199154442
H   H64       1.0  0.77680  0.30440  0.47830  1.0000 0.1199154442
H   H65       1.0  0.47240  0.77680  0.64497  1.0000 0.1199154442
H   H66       1.0  0.69560  0.47240  0.81163  1.0000 0.1199154442
H   H67       1.0  0.20620  0.81830  0.35420  1.0000 0.1389155629
H   H68       1.0  0.38790  0.20620  0.52087  1.0000 0.1389155629
H   H69       1.0  0.18170  0.38790  0.68753  1.0000 0.1389155629
H   H70       1.0  0.79380  0.18170  0.85420  1.0000 0.1389155629
H   H71       1.0  0.61210  0.79380  0.02087  1.0000 0.1389155629
H   H72       1.0  0.81830  0.61210  0.18753  1.0000 0.1389155629
H   H73       1.0  0.32220  0.83850  0.01890  1.0000 0.1456655913
H   H74       1.0  0.48370  0.32220  0.18557  1.0000 0.1456655913
H   H75       1.0  0.16150  0.48370  0.35223  1.0000 0.1456655913
H   H76       1.0  0.67780  0.16150  0.51890  1.0000 0.1456655913
H   H77       1.0  0.51630  0.67780  0.68557  1.0000 0.1456655913
H   H78       1.0  0.83850  0.51630  0.85223  1.0000 0.1456655913
H   H79       1.0  0.33060  0.95080  0.30510  1.0000 0.1199154442
H   H80       1.0  0.37980  0.33060  0.47177  1.0000 0.1199154442
H   H81       1.0  0.04920  0.37980  0.63843  1.0000 0.1199154442
H   H82       1.0  0.66940  0.04920  0.80510  1.0000 0.1199154442
H   H83       1.0  0.62020  0.66940  0.97177  1.0000 0.1199154442
H   H84       1.0  0.95080  0.62020  0.13843  1.0000 0.1199154442
H   H85       1.0  0.35030  0.97270  0.15990  1.0000 0.1389155629
H   H86       1.0  0.37760  0.35030  0.32657  1.0000 0.1389155629
H   H87       1.0  0.02730  0.37760  0.49323  1.0000 0.1389155629
H   H88       1.0  0.64970  0.02730  0.65990  1.0000 0.1389155629
H   H89       1.0  0.62240  0.64970  0.82657  1.0000 0.1389155629
H   H90       1.0  0.97270  0.62240  0.99323  1.0000 0.1389155629
C   C1        1.0  0.47900  0.94680  0.46900  1.0000 0.5673748705
C   C2        1.0  0.53220  0.47900  0.63567  1.0000 0.5673748705
C   C3        1.0  0.05320  0.53220  0.80233  1.0000 0.5673748705
C   C4        1.0  0.52100  0.05320  0.96900  1.0000 0.5673748705
C   C5        1.0  0.46780  0.52100  0.13567  1.0000 0.5673748705
C   C6        1.0  0.94680  0.46780  0.30233  1.0000 0.5673748705
C   C7        1.0  0.43560  0.88670  0.35290  1.0000 -0.0960380829
C   C8        1.0  0.54890  0.43560  0.51957  1.0000 -0.0960380829
C   C9        1.0  0.11330  0.54890  0.68623  1.0000 -0.0960380829
C   C10       1.0  0.56440  0.11330  0.85290  1.0000 -0.0960380829
C   C11       1.0  0.45110  0.56440  0.01957  1.0000 -0.0960380829
C   C12       1.0  0.88670  0.45110  0.18623  1.0000 -0.0960380829
C   C13       1.0  0.47800  0.83240  0.32200  1.0000 0.108262497
C   C14       1.0  0.64560  0.47800  0.48867  1.0000 0.108262497
C   C15       1.0  0.16760  0.64560  0.65533  1.0000 0.108262497
C   C16       1.0  0.52200  0.16760  0.82200  1.0000 0.108262497
C   C17       1.0  0.35440  0.52200  0.98867  1.0000 0.108262497
C   C18       1.0  0.83240  0.35440  0.15533  1.0000 0.108262497
C   C19       1.0  0.57130  0.88810  0.28000  1.0000 -0.4281985409
C   C20       1.0  0.68320  0.57130  0.44667  1.0000 -0.4281985409
C   C21       1.0  0.11190  0.68320  0.61333  1.0000 -0.4281985409
C   C22       1.0  0.42870  0.11190  0.78000  1.0000 -0.4281985409
C   C23       1.0  0.31680  0.42870  0.94667  1.0000 -0.4281985409
C   C24       1.0  0.88810  0.31680  0.11333  1.0000 -0.4281985409
C   C25       1.0  0.42460  0.75920  0.22610  1.0000 -0.4469683416
C   C26       1.0  0.66540  0.42460  0.39277  1.0000 -0.4469683416
C   C27       1.0  0.24080  0.66540  0.55943  1.0000 -0.4469683416
C   C28       1.0  0.57540  0.24080  0.72610  1.0000 -0.4469683416
C   C29       1.0  0.33460  0.57540  0.89277  1.0000 -0.4469683416
C   C30       1.0  0.75920  0.33460  0.05943  1.0000 -0.4469683416
C   C31       1.0  0.14880  0.70870  0.24320  1.0000 0.0816743595
C   C32       1.0  0.44010  0.14880  0.40987  1.0000 0.0816743595
C   C33       1.0  0.29130  0.44010  0.57653  1.0000 0.0816743595
C   C34       1.0  0.85120  0.29130  0.74320  1.0000 0.0816743595
C   C35       1.0  0.55990  0.85120  0.90987  1.0000 0.0816743595
C   C36       1.0  0.70870  0.55990  0.07653  1.0000 0.0816743595
C   C37       1.0  0.21920  0.72090  0.05380  1.0000 0.0816743595
C   C38       1.0  0.49830  0.21920  0.22047  1.0000 0.0816743595
C   C39       1.0  0.27910  0.49830  0.38713  1.0000 0.0816743595
C   C40       1.0  0.78080  0.27910  0.55380  1.0000 0.0816743595
C   C41       1.0  0.50170  0.78080  0.72047  1.0000 0.0816743595
C   C42       1.0  0.72090  0.50170  0.88713  1.0000 0.0816743595
C   C43       1.0  0.21030  0.79500  0.27670  1.0000 -0.2044333614
C   C44       1.0  0.41530  0.21030  0.44337  1.0000 -0.2044333614
C   C45       1.0  0.20500  0.41530  0.61003  1.0000 -0.2044333614
C   C46       1.0  0.78970  0.20500  0.77670  1.0000 -0.2044333614
C   C47       1.0  0.58470  0.78970  0.94337  1.0000 -0.2044333614
C   C48       1.0  0.79500  0.58470  0.11003  1.0000 -0.2044333614
C   C49       1.0  0.27620  0.84390  0.19320  1.0000 0.1389155629
C   C50       1.0  0.43230  0.27620  0.35987  1.0000 0.1389155629
C   C51       1.0  0.15610  0.43230  0.52653  1.0000 0.1389155629
C   C52       1.0  0.72380  0.15610  0.69320  1.0000 0.1389155629
C   C53       1.0  0.56770  0.72380  0.85987  1.0000 0.1389155629
C   C54       1.0  0.84390  0.56770  0.02653  1.0000 0.1389155629
C   C55       1.0  0.27930  0.80600  0.07860  1.0000 -0.1773217243
C   C56       1.0  0.47330  0.27930  0.24527  1.0000 -0.1773217243
C   C57       1.0  0.19400  0.47330  0.41193  1.0000 -0.1773217243
C   C58       1.0  0.72070  0.19400  0.57860  1.0000 -0.1773217243
C   C59       1.0  0.52670  0.72070  0.74527  1.0000 -0.1773217243
C   C60       1.0  0.80600  0.52670  0.91193  1.0000 -0.1773217243
C   C61       1.0  0.34620  0.93300  0.22660  1.0000 -0.1593890336
C   C62       1.0  0.41320  0.34620  0.39327  1.0000 -0.1593890336
C   C63       1.0  0.06700  0.41320  0.55993  1.0000 -0.1593890336
C   C64       1.0  0.65380  0.06700  0.72660  1.0000 -0.1593890336
C   C65       1.0  0.58680  0.65380  0.89327  1.0000 -0.1593890336
C   C66       1.0  0.93300  0.58680  0.05993  1.0000 -0.1593890336
Br  Br1       1.0  0.67968  0.13151  0.25161  1.0000 -0.5144405312
Br  Br2       1.0  0.54817  0.67968  0.41828  1.0000 -0.516305501
Br  Br3       1.0  0.86849  0.54817  0.58494  1.0000 -0.5144405312
Br  Br4       1.0  0.32032  0.86849  0.75161  1.0000 -0.516305501
Br  Br5       1.0  0.45183  0.32032  0.91828  1.0000 -0.516305501
Br  Br6       1.0  0.13151  0.45183  0.08494  1.0000 -0.516305501
N   N1        1.0  0.43310  0.94050  0.24350  1.0000 -0.3110641387
N   N2        1.0  0.49260  0.43310  0.41017  1.0000 -0.3110641387
N   N3        1.0  0.05950  0.49260  0.57683  1.0000 -0.3110641387
N   N4        1.0  0.56690  0.05950  0.74350  1.0000 -0.3110641387
N   N5        1.0  0.50740  0.56690  0.91017  1.0000 -0.3110641387
N   N6        1.0  0.94050  0.50740  0.07683  1.0000 -0.3110641387
N   N7        1.0  0.15480  0.67330  0.13610  1.0000 -0.2167907503
N   N8        1.0  0.48150  0.15480  0.30277  1.0000 -0.2167907503
N   N9        1.0  0.32670  0.48150  0.46943  1.0000 -0.2167907503
N   N10       1.0  0.84520  0.32670  0.63610  1.0000 -0.2167907503
N   N11       1.0  0.51850  0.84520  0.80277  1.0000 -0.2167907503
N   N12       1.0  0.67330  0.51850  0.96943  1.0000 -0.2167907503
O   O1        1.0  0.51170  0.02730  0.45890  1.0000 -0.5449812956
O   O2        1.0  0.48440  0.51170  0.62557  1.0000 -0.5449812956
O   O3        1.0  0.97270  0.48440  0.79223  1.0000 -0.5449812956
O   O4        1.0  0.48830  0.97270  0.95890  1.0000 -0.5449812956
O   O5        1.0  0.51560  0.48830  0.12557  1.0000 -0.5449812956
O   O6        1.0  0.02730  0.51560  0.29223  1.0000 -0.5449812956
O   O7        1.0  0.47930  0.90730  0.56770  1.0000 -0.5318518029
O   O8        1.0  0.57200  0.47930  0.73437  1.0000 -0.5318518029
O   O9        1.0  0.09270  0.57200  0.90103  1.0000 -0.5318518029
O   O10       1.0  0.52070  0.09270  0.06770  1.0000 -0.5318518029
O   O11       1.0  0.42800  0.52070  0.23437  1.0000 -0.5318518029
O   O12       1.0  0.90730  0.42800  0.40103  1.0000 -0.5318518029
