# DDEC6 charges by PACMAN v1.1 (https://github.com/mtap-research/PACMAN-charge/)
data_2011[Mn][gra]3[ASR]1
_chemical_formula_sum              "Mn4 C32 O16 F16"
_cell_length_a       8.438
_cell_length_b       19.512
_cell_length_c       9.742
_cell_angle_alpha    90
_cell_angle_beta     101.824
_cell_angle_gamma    90

_symmetry_space_group_name_H-M    "P 1"
_symmetry_Int_Tables_number       1

loop_
  _symmetry_equiv_pos_as_xyz
  'x, y, z'

loop_
  _atom_site_type_symbol
  _atom_site_label
  _atom_site_symmetry_multiplicity
  _atom_site_fract_x
  _atom_site_fract_y
  _atom_site_fract_z
  _atom_site_occupancy
  _atom_site_charge
Mn  Mn1       1.0  0.69853  0.71465  0.85645  1.0000 0.9722125573
Mn  Mn2       1.0  0.30147  0.21465  0.14355  1.0000 0.9758160157
Mn  Mn3       1.0  0.36773  0.74209  0.93489  1.0000 0.9264658732
Mn  Mn4       1.0  0.63227  0.24209  0.06511  1.0000 0.9264658732
C   C1        1.0  0.52140  0.95177  0.81208  1.0000 0.16798693
C   C2        1.0  0.47860  0.45177  0.18792  1.0000 0.16798693
C   C3        1.0  0.47245  0.01658  0.84813  1.0000 0.16798693
C   C4        1.0  0.52755  0.51658  0.15187  1.0000 0.16798693
C   C5        1.0  0.51549  0.04164  0.98554  1.0000 -0.1958697321
C   C6        1.0  0.48451  0.54164  0.01446  1.0000 -0.1958697321
C   C7        1.0  0.61542  0.00015  0.08534  1.0000 0.1594271963
C   C8        1.0  0.38458  0.50015  0.91466  1.0000 0.1594271963
C   C9        1.0  0.66618  0.93568  0.04971  1.0000 0.16798693
C   C10       1.0  0.33382  0.43568  0.95029  1.0000 0.16798693
C   C11       1.0  0.61800  0.90935  0.91286  1.0000 -0.2105544986
C   C12       1.0  0.38200  0.40935  0.08714  1.0000 -0.2105544986
C   C13       1.0  0.65448  0.83631  0.88160  1.0000 0.6160831196
C   C14       1.0  0.34552  0.33631  0.11840  1.0000 0.6160831196
C   C15       1.0  0.47418  0.11369  0.02146  1.0000 0.6471934063
C   C16       1.0  0.52582  0.61369  0.97854  1.0000 0.6471934063
C   C17       1.0  0.13076  0.77079  0.29133  1.0000 0.1594271963
C   C18       1.0  0.86924  0.27079  0.70867  1.0000 0.1594271963
C   C19       1.0  0.21328  0.77216  0.43211  1.0000 0.16798693
C   C20       1.0  0.78672  0.27216  0.56789  1.0000 0.16798693
C   C21       1.0  0.30073  0.71532  0.49675  1.0000 -0.2105544986
C   C22       1.0  0.69927  0.21532  0.50325  1.0000 -0.2105544986
C   C23       1.0  0.29517  0.65630  0.41256  1.0000 0.16798693
C   C24       1.0  0.70483  0.15630  0.58744  1.0000 0.16798693
C   C25       1.0  0.21166  0.65502  0.27185  1.0000 0.16798693
C   C26       1.0  0.78834  0.15502  0.72815  1.0000 0.16798693
C   C27       1.0  0.13105  0.71295  0.20509  1.0000 -0.2204092698
C   C28       1.0  0.86895  0.21295  0.79491  1.0000 -0.2204092698
C   C29       1.0  0.05432  0.71562  0.04737  1.0000 0.6661209209
C   C30       1.0  0.94568  0.21562  0.95263  1.0000 0.6661209209
C   C31       1.0  0.39274  0.71854  0.64758  1.0000 0.6471934063
C   C32       1.0  0.60726  0.21854  0.35242  1.0000 0.6471934063
O   O1        1.0  0.57545  0.78578  0.93080  1.0000 -0.5827144342
O   O2        1.0  0.42455  0.28578  0.06920  1.0000 -0.5827144342
O   O3        1.0  0.76216  0.81524  0.81913  1.0000 -0.4437977331
O   O4        1.0  0.23784  0.31524  0.18087  1.0000 -0.4437977331
O   O5        1.0  0.36692  0.12504  0.09436  1.0000 -0.4902597623
O   O6        1.0  0.63308  0.62504  0.90564  1.0000 -0.4902597623
O   O7        1.0  0.56207  0.15990  0.97698  1.0000 -0.5387968676
O   O8        1.0  0.43793  0.65990  0.02302  1.0000 -0.5387968676
O   O9        1.0  0.90204  0.70647  0.01220  1.0000 -0.5293616113
O   O10       1.0  0.09796  0.20647  0.98780  1.0000 -0.5293616113
O   O11       1.0  0.14701  0.72798  0.95994  1.0000 -0.553207572
O   O12       1.0  0.85299  0.22798  0.04006  1.0000 -0.553207572
O   O13       1.0  0.30474  0.73058  0.73984  1.0000 -0.5293616113
O   O14       1.0  0.69526  0.23058  0.26016  1.0000 -0.5293616113
O   O15       1.0  0.54697  0.70974  0.67474  1.0000 -0.5293616113
O   O16       1.0  0.45303  0.20974  0.32526  1.0000 -0.5293616113
F   F1        1.0  0.47078  0.92849  0.67898  1.0000 -0.0974923547
F   F2        1.0  0.52922  0.42849  0.32102  1.0000 -0.0974923547
F   F3        1.0  0.38325  0.05700  0.74727  1.0000 -0.0974923547
F   F4        1.0  0.61675  0.55700  0.25273  1.0000 -0.0974923547
F   F5        1.0  0.67006  0.02431  0.21740  1.0000 -0.0974923547
F   F6        1.0  0.32994  0.52431  0.78260  1.0000 -0.0974923547
F   F7        1.0  0.76510  0.89787  0.14915  1.0000 -0.0923218274
F   F8        1.0  0.23490  0.39787  0.85085  1.0000 -0.0923218274
F   F9        1.0  0.05393  0.82942  0.23754  1.0000 -0.0974923547
F   F10       1.0  0.94607  0.32942  0.76246  1.0000 -0.0974923547
F   F11       1.0  0.21153  0.83177  0.50417  1.0000 -0.0923218274
F   F12       1.0  0.78847  0.33177  0.49583  1.0000 -0.0923218274
F   F13       1.0  0.36943  0.59768  0.46833  1.0000 -0.0974923547
F   F14       1.0  0.63057  0.09768  0.53167  1.0000 -0.0974923547
F   F15       1.0  0.21347  0.59515  0.19963  1.0000 -0.0974923547
F   F16       1.0  0.78653  0.09515  0.80037  1.0000 -0.0974923547
