# DDEC6 charges by PACMAN v1.1 (https://github.com/mtap-research/PACMAN-charge/)
data_2011[Ce][nan]3[ASR]2
_chemical_formula_sum              "Ce4 H72 C120 N12 O36"
_cell_length_a       11.44
_cell_length_b       36.854
_cell_length_c       12.288
_cell_angle_alpha    90
_cell_angle_beta     117.642
_cell_angle_gamma    90

_symmetry_space_group_name_H-M    "P 1"
_symmetry_Int_Tables_number       1

loop_
  _symmetry_equiv_pos_as_xyz
  'x, y, z'

loop_
  _atom_site_type_symbol
  _atom_site_label
  _atom_site_symmetry_multiplicity
  _atom_site_fract_x
  _atom_site_fract_y
  _atom_site_fract_z
  _atom_site_occupancy
  _atom_site_charge
Ce  Ce1       1.0  0.13023  0.53649  0.62999  1.0000 1.9248372359
Ce  Ce2       1.0  0.36977  0.03649  0.37001  1.0000 1.9248372359
Ce  Ce3       1.0  0.86977  0.46351  0.37001  1.0000 1.9248372359
Ce  Ce4       1.0  0.63023  0.96351  0.62999  1.0000 1.9248372359
H   H1        1.0  0.45170  0.17170  0.45060  1.0000 0.1197027129
H   H2        1.0  0.04830  0.67170  0.54940  1.0000 0.1197027129
H   H3        1.0  0.54830  0.82830  0.54940  1.0000 0.1197027129
H   H4        1.0  0.95170  0.32830  0.45060  1.0000 0.1197027129
H   H5        1.0  0.52680  0.13530  0.18260  1.0000 0.1197027129
H   H6        1.0  0.97320  0.63530  0.81740  1.0000 0.1197027129
H   H7        1.0  0.47320  0.86470  0.81740  1.0000 0.1197027129
H   H8        1.0  0.02680  0.36470  0.18260  1.0000 0.1197027129
H   H9        1.0  0.57530  0.19370  0.14780  1.0000 0.1300818164
H   H10       1.0  0.92470  0.69370  0.85220  1.0000 0.1300818164
H   H11       1.0  0.42470  0.80630  0.85220  1.0000 0.1300818164
H   H12       1.0  0.07530  0.30630  0.14780  1.0000 0.1300818164
H   H13       1.0  0.50120  0.22990  0.41640  1.0000 0.1300818164
H   H14       1.0  0.99880  0.72990  0.58360  1.0000 0.1300818164
H   H15       1.0  0.49880  0.77010  0.58360  1.0000 0.1300818164
H   H16       1.0  0.00120  0.27010  0.41640  1.0000 0.1300818164
H   H17       1.0  0.54120  0.27100  0.29250  1.0000 0.2781011554
H   H18       1.0  0.95880  0.77100  0.70750  1.0000 0.2781011554
H   H19       1.0  0.45880  0.72900  0.70750  1.0000 0.2781011554
H   H20       1.0  0.04120  0.22900  0.29250  1.0000 0.2781011554
H   H21       1.0  0.81120  0.40500  0.06770  1.0000 0.2781011554
H   H22       1.0  0.68880  0.90500  0.93230  1.0000 0.2781011554
H   H23       1.0  0.18880  0.59500  0.93230  1.0000 0.2781011554
H   H24       1.0  0.31120  0.09500  0.06770  1.0000 0.2781011554
H   H25       1.0  0.45470  0.37040  0.29740  1.0000 0.2781011554
H   H26       1.0  0.04530  0.87040  0.70260  1.0000 0.2781011554
H   H27       1.0  0.54530  0.62960  0.70260  1.0000 0.2781011554
H   H28       1.0  0.95470  0.12960  0.29740  1.0000 0.2781011554
H   H29       1.0  0.25400  0.39240  0.27340  1.0000 0.1197027129
H   H30       1.0  0.24600  0.89240  0.72660  1.0000 0.1197027129
H   H31       1.0  0.74600  0.60760  0.72660  1.0000 0.1197027129
H   H32       1.0  0.75400  0.10760  0.27340  1.0000 0.1197027129
H   H33       1.0  0.68600  0.30030  0.04590  1.0000 0.1373680127
H   H34       1.0  0.81400  0.80030  0.95410  1.0000 0.1373680127
H   H35       1.0  0.31400  0.69970  0.95410  1.0000 0.1373680127
H   H36       1.0  0.18600  0.19970  0.04590  1.0000 0.1373680127
H   H37       1.0  0.64260  0.40490  0.11370  1.0000 0.1300818164
H   H38       1.0  0.85740  0.90490  0.88630  1.0000 0.1300818164
H   H39       1.0  0.35740  0.59510  0.88630  1.0000 0.1300818164
H   H40       1.0  0.14260  0.09510  0.11370  1.0000 0.1300818164
H   H41       1.0  0.02030  0.47790  0.92380  1.0000 0.1197027129
H   H42       1.0  0.47970  0.97790  0.07620  1.0000 0.1197027129
H   H43       1.0  0.97970  0.52210  0.07620  1.0000 0.1197027129
H   H44       1.0  0.52030  0.02210  0.92380  1.0000 0.1197027129
H   H45       1.0  0.58950  0.32480  0.31230  1.0000 0.1139682499
H   H46       1.0  0.91050  0.82480  0.68770  1.0000 0.1139682499
H   H47       1.0  0.41050  0.67520  0.68770  1.0000 0.1139682499
H   H48       1.0  0.08950  0.17520  0.31230  1.0000 0.1139682499
H   H49       1.0  0.95200  0.44720  0.04830  1.0000 0.1373680127
H   H50       1.0  0.54800  0.94720  0.95170  1.0000 0.1373680127
H   H51       1.0  0.04800  0.55280  0.95170  1.0000 0.1373680127
H   H52       1.0  0.45200  0.05280  0.04830  1.0000 0.1373680127
H   H53       1.0  0.78880  0.41580  0.64080  1.0000 0.1300818164
H   H54       1.0  0.71120  0.91580  0.35920  1.0000 0.1300818164
H   H55       1.0  0.21120  0.58420  0.35920  1.0000 0.1300818164
H   H56       1.0  0.28880  0.08420  0.64080  1.0000 0.1300818164
H   H57       1.0  0.72030  0.38440  0.76420  1.0000 0.1300818164
H   H58       1.0  0.77970  0.88440  0.23580  1.0000 0.1300818164
H   H59       1.0  0.27970  0.61560  0.23580  1.0000 0.1300818164
H   H60       1.0  0.22030  0.11560  0.76420  1.0000 0.1300818164
H   H61       1.0  0.47830  0.47480  0.57730  1.0000 0.1300818164
H   H62       1.0  0.02170  0.97480  0.42270  1.0000 0.1300818164
H   H63       1.0  0.52170  0.52520  0.42270  1.0000 0.1300818164
H   H64       1.0  0.97830  0.02520  0.57730  1.0000 0.1300818164
H   H65       1.0  0.58300  0.44590  0.48030  1.0000 0.1300818164
H   H66       1.0  0.91700  0.94590  0.51970  1.0000 0.1300818164
H   H67       1.0  0.41700  0.55410  0.51970  1.0000 0.1300818164
H   H68       1.0  0.08300  0.05410  0.48030  1.0000 0.1300818164
H   H69       1.0  0.14680  0.42540  0.36290  1.0000 0.1197027129
H   H70       1.0  0.35320  0.92540  0.63710  1.0000 0.1197027129
H   H71       1.0  0.85320  0.57460  0.63710  1.0000 0.1197027129
H   H72       1.0  0.64680  0.07460  0.36290  1.0000 0.1197027129
C   C1        1.0  0.44720  0.10967  0.33890  1.0000 0.5377724213
C   C2        1.0  0.05280  0.60967  0.66110  1.0000 0.5377724213
C   C3        1.0  0.55280  0.89033  0.66110  1.0000 0.5377724213
C   C4        1.0  0.94720  0.39033  0.33890  1.0000 0.5377724213
C   C5        1.0  0.48230  0.14717  0.31820  1.0000 -0.0381723805
C   C6        1.0  0.01770  0.64717  0.68180  1.0000 -0.0381723805
C   C7        1.0  0.51770  0.85283  0.68180  1.0000 -0.0381723805
C   C8        1.0  0.98230  0.35283  0.31820  1.0000 -0.0381723805
C   C9        1.0  0.47600  0.17599  0.38930  1.0000 -0.0826184372
C   C10       1.0  0.02400  0.67599  0.61070  1.0000 -0.0826184372
C   C11       1.0  0.52400  0.82401  0.61070  1.0000 -0.0826184372
C   C12       1.0  0.97600  0.32401  0.38930  1.0000 -0.0826184372
C   C13       1.0  0.52070  0.15432  0.22950  1.0000 -0.0995773668
C   C14       1.0  0.97930  0.65432  0.77050  1.0000 -0.0995773668
C   C15       1.0  0.47930  0.84568  0.77050  1.0000 -0.0995773668
C   C16       1.0  0.02070  0.34568  0.22950  1.0000 -0.0995773668
C   C17       1.0  0.55030  0.18936  0.20870  1.0000 -0.1757244724
C   C18       1.0  0.94970  0.68936  0.79130  1.0000 -0.1757244724
C   C19       1.0  0.44970  0.81064  0.79130  1.0000 -0.1757244724
C   C20       1.0  0.05030  0.31064  0.20870  1.0000 -0.1757244724
C   C21       1.0  0.50590  0.21083  0.36890  1.0000 -0.194535756
C   C22       1.0  0.99410  0.71083  0.63110  1.0000 -0.194535756
C   C23       1.0  0.49410  0.78917  0.63110  1.0000 -0.194535756
C   C24       1.0  0.00590  0.28917  0.36890  1.0000 -0.194535756
C   C25       1.0  0.54260  0.21762  0.27850  1.0000 0.2278928501
C   C26       1.0  0.95740  0.71762  0.72150  1.0000 0.2278928501
C   C27       1.0  0.45740  0.78238  0.72150  1.0000 0.2278928501
C   C28       1.0  0.04260  0.28238  0.27850  1.0000 0.2278928501
C   C29       1.0  0.59560  0.39805  0.30200  1.0000 0.4827973885
C   C30       1.0  0.90440  0.89805  0.69800  1.0000 0.4827973885
C   C31       1.0  0.40440  0.60195  0.69800  1.0000 0.4827973885
C   C32       1.0  0.09560  0.10195  0.30200  1.0000 0.4827973885
C   C33       1.0  0.43200  0.41390  0.37690  1.0000 0.2278928501
C   C34       1.0  0.06800  0.91390  0.62310  1.0000 0.2278928501
C   C35       1.0  0.56800  0.58610  0.62310  1.0000 0.2278928501
C   C36       1.0  0.93200  0.08610  0.37690  1.0000 0.2278928501
C   C37       1.0  0.30090  0.40870  0.33650  1.0000 -0.2001170846
C   C38       1.0  0.19910  0.90870  0.66350  1.0000 -0.2001170846
C   C39       1.0  0.69910  0.59130  0.66350  1.0000 -0.2001170846
C   C40       1.0  0.80090  0.09130  0.33650  1.0000 -0.2001170846
C   C41       1.0  0.68050  0.35388  0.07340  1.0000 -0.0145209275
C   C42       1.0  0.81950  0.85388  0.92660  1.0000 -0.0145209275
C   C43       1.0  0.31950  0.64612  0.92660  1.0000 -0.0145209275
C   C44       1.0  0.18050  0.14612  0.07340  1.0000 -0.0145209275
C   C45       1.0  0.67020  0.31747  0.09310  1.0000 -0.0995773668
C   C46       1.0  0.82980  0.81747  0.90690  1.0000 -0.0995773668
C   C47       1.0  0.32980  0.68253  0.90690  1.0000 -0.0995773668
C   C48       1.0  0.17020  0.18253  0.09310  1.0000 -0.0995773668
C   C49       1.0  0.30180  0.45201  0.48500  1.0000 -0.0225576265
C   C50       1.0  0.19820  0.95201  0.51500  1.0000 -0.0225576265
C   C51       1.0  0.69820  0.54799  0.51500  1.0000 -0.0225576265
C   C52       1.0  0.80180  0.04799  0.48500  1.0000 -0.0225576265
C   C53       1.0  0.23410  0.47217  0.54640  1.0000 0.6106478614
C   C54       1.0  0.26590  0.97217  0.45360  1.0000 0.6106478614
C   C55       1.0  0.76590  0.52783  0.45360  1.0000 0.6106478614
C   C56       1.0  0.73410  0.02783  0.54640  1.0000 0.6106478614
C   C57       1.0  0.91020  0.45024  0.76860  1.0000 -0.0381723805
C   C58       1.0  0.58980  0.95024  0.23140  1.0000 -0.0381723805
C   C59       1.0  0.08980  0.54976  0.23140  1.0000 -0.0381723805
C   C60       1.0  0.41020  0.04976  0.76860  1.0000 -0.0381723805
C   C61       1.0  0.95170  0.46940  0.68340  1.0000 0.6239386839
C   C62       1.0  0.54830  0.96940  0.31660  1.0000 0.6239386839
C   C63       1.0  0.04830  0.53060  0.31660  1.0000 0.6239386839
C   C64       1.0  0.45170  0.03060  0.68340  1.0000 0.6239386839
C   C65       1.0  0.62250  0.36901  0.23320  1.0000 -0.0225576265
C   C66       1.0  0.87750  0.86901  0.76680  1.0000 -0.0225576265
C   C67       1.0  0.37750  0.63099  0.76680  1.0000 -0.0225576265
C   C68       1.0  0.12250  0.13099  0.23320  1.0000 -0.0225576265
C   C69       1.0  0.64770  0.38060  0.13540  1.0000 -0.1562452423
C   C70       1.0  0.85230  0.88060  0.86460  1.0000 -0.1562452423
C   C71       1.0  0.35230  0.61940  0.86460  1.0000 -0.1562452423
C   C72       1.0  0.14770  0.11940  0.13540  1.0000 -0.1562452423
C   C73       1.0  0.95920  0.45919  0.89110  1.0000 -0.0902586717
C   C74       1.0  0.54080  0.95919  0.10890  1.0000 -0.0902586717
C   C75       1.0  0.04080  0.54081  0.10890  1.0000 -0.0902586717
C   C76       1.0  0.45920  0.04081  0.89110  1.0000 -0.0902586717
C   C77       1.0  0.61250  0.33209  0.25230  1.0000 -0.194535756
C   C78       1.0  0.88750  0.83209  0.74770  1.0000 -0.194535756
C   C79       1.0  0.38750  0.66791  0.74770  1.0000 -0.194535756
C   C80       1.0  0.11250  0.16791  0.25230  1.0000 -0.194535756
C   C81       1.0  0.82830  0.41274  0.91870  1.0000 0.2278928501
C   C82       1.0  0.67170  0.91274  0.08130  1.0000 0.2278928501
C   C83       1.0  0.17170  0.58726  0.08130  1.0000 0.2278928501
C   C84       1.0  0.32830  0.08726  0.91870  1.0000 0.2278928501
C   C85       1.0  0.91850  0.44071  0.96610  1.0000 -0.2001170846
C   C86       1.0  0.58150  0.94071  0.03390  1.0000 -0.2001170846
C   C87       1.0  0.08150  0.55929  0.03390  1.0000 -0.2001170846
C   C88       1.0  0.41850  0.05929  0.96610  1.0000 -0.2001170846
C   C89       1.0  0.63630  0.30613  0.18330  1.0000 -0.0225576265
C   C90       1.0  0.86370  0.80613  0.81670  1.0000 -0.0225576265
C   C91       1.0  0.36370  0.69387  0.81670  1.0000 -0.0225576265
C   C92       1.0  0.13630  0.19387  0.18330  1.0000 -0.0225576265
C   C93       1.0  0.82190  0.42230  0.72300  1.0000 -0.0995773668
C   C94       1.0  0.67810  0.92230  0.27700  1.0000 -0.0995773668
C   C95       1.0  0.17810  0.57770  0.27700  1.0000 -0.0995773668
C   C96       1.0  0.32190  0.07770  0.72300  1.0000 -0.0995773668
C   C97       1.0  0.78030  0.40330  0.79690  1.0000 -0.1757244724
C   C98       1.0  0.71970  0.90330  0.20310  1.0000 -0.1757244724
C   C99       1.0  0.21970  0.59670  0.20310  1.0000 -0.1757244724
C   C100      1.0  0.28030  0.09670  0.79690  1.0000 -0.1757244724
C   C101      1.0  0.43140  0.45800  0.51610  1.0000 -0.0902586717
C   C102      1.0  0.06860  0.95800  0.48390  1.0000 -0.0902586717
C   C103      1.0  0.56860  0.54200  0.48390  1.0000 -0.0902586717
C   C104      1.0  0.93140  0.04200  0.51610  1.0000 -0.0902586717
C   C105      1.0  0.71490  0.36425  0.97390  1.0000 0.4662657422
C   C106      1.0  0.78510  0.86425  0.02610  1.0000 0.4582853161
C   C107      1.0  0.28510  0.63575  0.02610  1.0000 0.4582853161
C   C108      1.0  0.21490  0.13575  0.97390  1.0000 0.4662657422
C   C109      1.0  0.49640  0.44000  0.46030  1.0000 -0.1695516961
C   C110      1.0  0.00360  0.94000  0.53970  1.0000 -0.1695516961
C   C111      1.0  0.50360  0.56000  0.53970  1.0000 -0.1695516961
C   C112      1.0  0.99640  0.06000  0.46030  1.0000 -0.1695516961
C   C113      1.0  0.62960  0.26605  0.19860  1.0000 0.4582853161
C   C114      1.0  0.87040  0.76605  0.80140  1.0000 0.4582853161
C   C115      1.0  0.37040  0.73395  0.80140  1.0000 0.4582853161
C   C116      1.0  0.12960  0.23395  0.19860  1.0000 0.4582853161
C   C117      1.0  0.23700  0.42860  0.39180  1.0000 -0.0902586717
C   C118      1.0  0.26300  0.92860  0.60820  1.0000 -0.0902586717
C   C119      1.0  0.76300  0.57140  0.60820  1.0000 -0.0902586717
C   C120      1.0  0.73700  0.07140  0.39180  1.0000 -0.0902586717
N   N1        1.0  0.56850  0.25457  0.26000  1.0000 -0.3609876218
N   N2        1.0  0.93150  0.75457  0.74000  1.0000 -0.3609876218
N   N3        1.0  0.43150  0.74543  0.74000  1.0000 -0.3609876218
N   N4        1.0  0.06850  0.24543  0.26000  1.0000 -0.3609876218
N   N5        1.0  0.78750  0.39509  0.99720  1.0000 -0.3768868628
N   N6        1.0  0.71250  0.89509  0.00280  1.0000 -0.3768868628
N   N7        1.0  0.21250  0.60491  0.00280  1.0000 -0.3768868628
N   N8        1.0  0.28750  0.10491  0.99720  1.0000 -0.3768868628
N   N9        1.0  0.49100  0.39131  0.32160  1.0000 -0.3609876218
N   N10       1.0  0.00900  0.89131  0.67840  1.0000 -0.3609876218
N   N11       1.0  0.50900  0.60869  0.67840  1.0000 -0.3609876218
N   N12       1.0  0.99100  0.10869  0.32160  1.0000 -0.3609876218
O   O1        1.0  0.03870  0.49367  0.72620  1.0000 -0.6338989692
O   O2        1.0  0.46130  0.99367  0.27380  1.0000 -0.6338989692
O   O3        1.0  0.96130  0.50633  0.27380  1.0000 -0.6338989692
O   O4        1.0  0.53870  0.00633  0.72620  1.0000 -0.6338989692
O   O5        1.0  0.65830  0.42667  0.33170  1.0000 -0.5333430725
O   O6        1.0  0.84170  0.92667  0.66830  1.0000 -0.5333430725
O   O7        1.0  0.34170  0.57333  0.66830  1.0000 -0.5333430725
O   O8        1.0  0.15830  0.07333  0.33170  1.0000 -0.5333430725
O   O9        1.0  0.43560  0.10243  0.43270  1.0000 -0.5559035497
O   O10       1.0  0.06440  0.60243  0.56730  1.0000 -0.5559035497
O   O11       1.0  0.56440  0.89757  0.56730  1.0000 -0.5559035497
O   O12       1.0  0.93560  0.39757  0.43270  1.0000 -0.5559035497
O   O13       1.0  0.42480  0.08576  0.25540  1.0000 -0.6580351549
O   O14       1.0  0.07520  0.58576  0.74460  1.0000 -0.6580351549
O   O15       1.0  0.57520  0.91424  0.74460  1.0000 -0.6580351549
O   O16       1.0  0.92480  0.41424  0.25540  1.0000 -0.6580351549
O   O17       1.0  0.89460  0.45871  0.57410  1.0000 -0.6208126652
O   O18       1.0  0.60540  0.95871  0.42590  1.0000 -0.6208126652
O   O19       1.0  0.10540  0.54129  0.42590  1.0000 -0.6208126652
O   O20       1.0  0.39460  0.04129  0.57410  1.0000 -0.6208126652
O   O21       1.0  0.11110  0.46837  0.50790  1.0000 -0.6764444816
O   O22       1.0  0.38890  0.96837  0.49210  1.0000 -0.6764444816
O   O23       1.0  0.88890  0.53163  0.49210  1.0000 -0.6764444816
O   O24       1.0  0.61110  0.03163  0.50790  1.0000 -0.6764444816
O   O25       1.0  0.68670  0.24540  0.16210  1.0000 -0.4596423912
O   O26       1.0  0.81330  0.74540  0.83790  1.0000 -0.4596423912
O   O27       1.0  0.31330  0.75460  0.83790  1.0000 -0.4596423912
O   O28       1.0  0.18670  0.25460  0.16210  1.0000 -0.4596423912
O   O29       1.0  0.30050  0.49322  0.63250  1.0000 -0.5721976119
O   O30       1.0  0.19950  0.99322  0.36750  1.0000 -0.5721976119
O   O31       1.0  0.69950  0.50678  0.36750  1.0000 -0.5721976119
O   O32       1.0  0.80050  0.00678  0.63250  1.0000 -0.5721976119
O   O33       1.0  0.67840  0.34610  0.88180  1.0000 -0.4299703198
O   O34       1.0  0.82160  0.84610  0.11820  1.0000 -0.4299703198
O   O35       1.0  0.32160  0.65390  0.11820  1.0000 -0.4299703198
O   O36       1.0  0.17840  0.15390  0.88180  1.0000 -0.4299703198
