# DDEC6 charges by PACMAN v1.1 (https://github.com/mtap-research/PACMAN-charge/)
data_2011[Cd][bcu]3[ASR]2
_chemical_formula_sum              "Cd6 H80 C100 N8 O24"
_cell_length_a       17.4375
_cell_length_b       17.4375
_cell_length_c       15.871
_cell_angle_alpha    89.0303
_cell_angle_beta     90.9697
_cell_angle_gamma    134.886

_symmetry_space_group_name_H-M    "P 1"
_symmetry_Int_Tables_number       1

loop_
  _symmetry_equiv_pos_as_xyz
  'x, y, z'

loop_
  _atom_site_type_symbol
  _atom_site_label
  _atom_site_symmetry_multiplicity
  _atom_site_fract_x
  _atom_site_fract_y
  _atom_site_fract_z
  _atom_site_occupancy
  _atom_site_charge
Cd  Cd1       1.0  0.69891  0.91093  0.76443  1.0000 0.8425840768
Cd  Cd2       1.0  0.91093  0.69891  0.73557  1.0000 0.8425840768
Cd  Cd3       1.0  0.30109  0.08907  0.23557  1.0000 0.8425840768
Cd  Cd4       1.0  0.08907  0.30109  0.26443  1.0000 0.8425840768
Cd  Cd5       1.0  0.72503  0.72503  0.75000  1.0000 1.1308816853
Cd  Cd6       1.0  0.27497  0.27497  0.25000  1.0000 1.1308816853
H   H1        1.0  0.40820  0.69260  0.56050  1.0000 0.1088252311
H   H2        1.0  0.69260  0.40820  0.93950  1.0000 0.1088252311
H   H3        1.0  0.59180  0.30740  0.43950  1.0000 0.1088252311
H   H4        1.0  0.30740  0.59180  0.06050  1.0000 0.1088252311
H   H5        1.0  0.29740  0.56320  0.45780  1.0000 0.1088252311
H   H6        1.0  0.56320  0.29740  0.04220  1.0000 0.1088252311
H   H7        1.0  0.70260  0.43680  0.54220  1.0000 0.1088252311
H   H8        1.0  0.43680  0.70260  0.95780  1.0000 0.1088252311
H   H9        1.0  0.51640  0.55020  0.41960  1.0000 0.1186085599
H   H10       1.0  0.55020  0.51640  0.08040  1.0000 0.1186085599
H   H11       1.0  0.48360  0.44980  0.58040  1.0000 0.1186085599
H   H12       1.0  0.44980  0.48360  0.91960  1.0000 0.1186085599
H   H13       1.0  0.62560  0.67480  0.52930  1.0000 0.1186085599
H   H14       1.0  0.67480  0.62560  0.97070  1.0000 0.1186085599
H   H15       1.0  0.37440  0.32520  0.47070  1.0000 0.1186085599
H   H16       1.0  0.32520  0.37440  0.02930  1.0000 0.1186085599
H   H17       1.0  0.95750  0.10010  0.99320  1.0000 0.1088252311
H   H18       1.0  0.10010  0.95750  0.50680  1.0000 0.1088252311
H   H19       1.0  0.04250  0.89990  0.00680  1.0000 0.1088252311
H   H20       1.0  0.89990  0.04250  0.49320  1.0000 0.1088252311
H   H21       1.0  0.92080  0.85940  0.90320  1.0000 0.1186085599
H   H22       1.0  0.85940  0.92080  0.59680  1.0000 0.1186085599
H   H23       1.0  0.07920  0.14060  0.09680  1.0000 0.1186085599
H   H24       1.0  0.14060  0.07920  0.40320  1.0000 0.1186085599
H   H25       1.0  0.72290  0.03570  0.59730  1.0000 0.1088252311
H   H26       1.0  0.03570  0.72290  0.90270  1.0000 0.1088252311
H   H27       1.0  0.27710  0.96430  0.40270  1.0000 0.1088252311
H   H28       1.0  0.96430  0.27710  0.09730  1.0000 0.1088252311
H   H29       1.0  0.84880  0.19460  0.51910  1.0000 0.1305723819
H   H30       1.0  0.19460  0.84880  0.98090  1.0000 0.1305723819
H   H31       1.0  0.15120  0.80540  0.48090  1.0000 0.1305723819
H   H32       1.0  0.80540  0.15120  0.01910  1.0000 0.1305723819
H   H33       1.0  0.08530  0.26670  0.66070  1.0000 0.1377892192
H   H34       1.0  0.26670  0.08530  0.83930  1.0000 0.1377892192
H   H35       1.0  0.91470  0.73330  0.33930  1.0000 0.1377892192
H   H36       1.0  0.73330  0.91470  0.16070  1.0000 0.1377892192
H   H37       1.0  0.95320  0.11400  0.74170  1.0000 0.1088252311
H   H38       1.0  0.11400  0.95320  0.75830  1.0000 0.1088252311
H   H39       1.0  0.04680  0.88600  0.25830  1.0000 0.1088252311
H   H40       1.0  0.88600  0.04680  0.24170  1.0000 0.1088252311
H   H41       1.0  0.83310  0.47490  0.70660  1.0000 0.1186085599
H   H42       1.0  0.47490  0.83310  0.79340  1.0000 0.1186085599
H   H43       1.0  0.16690  0.52510  0.29340  1.0000 0.1186085599
H   H44       1.0  0.52510  0.16690  0.20660  1.0000 0.1186085599
H   H45       1.0  0.89080  0.39240  0.68150  1.0000 0.1377892192
H   H46       1.0  0.39240  0.89080  0.81850  1.0000 0.1377892192
H   H47       1.0  0.10920  0.60760  0.31850  1.0000 0.1377892192
H   H48       1.0  0.60760  0.10920  0.18150  1.0000 0.1377892192
H   H49       1.0  0.19220  0.68820  0.64330  1.0000 0.1377892192
H   H50       1.0  0.68820  0.19220  0.85670  1.0000 0.1377892192
H   H51       1.0  0.80780  0.31180  0.35670  1.0000 0.1377892192
H   H52       1.0  0.31180  0.80780  0.14330  1.0000 0.1377892192
H   H53       1.0  0.12610  0.75970  0.67510  1.0000 0.1088252311
H   H54       1.0  0.75970  0.12610  0.82490  1.0000 0.1088252311
H   H55       1.0  0.87390  0.24030  0.32490  1.0000 0.1088252311
H   H56       1.0  0.24030  0.87390  0.17510  1.0000 0.1088252311
H   H57       1.0  0.13890  0.38910  0.55090  1.0000 0.1186085599
H   H58       1.0  0.38910  0.13890  0.94910  1.0000 0.1186085599
H   H59       1.0  0.86110  0.61090  0.44910  1.0000 0.1186085599
H   H60       1.0  0.61090  0.86110  0.05090  1.0000 0.1186085599
H   H61       1.0  0.05730  0.33770  0.47210  1.0000 0.1305723819
H   H62       1.0  0.33770  0.05730  0.02790  1.0000 0.1305723819
H   H63       1.0  0.94270  0.66230  0.52790  1.0000 0.1305723819
H   H64       1.0  0.66230  0.94270  0.97210  1.0000 0.1305723819
H   H65       1.0  0.97670  0.39310  0.53690  1.0000 0.0890459426
H   H66       1.0  0.39310  0.97670  0.96310  1.0000 0.0890459426
H   H67       1.0  0.02330  0.60690  0.46310  1.0000 0.0890459426
H   H68       1.0  0.60690  0.02330  0.03690  1.0000 0.0890459426
H   H69       1.0  0.09890  0.49310  0.50720  1.0000 0.0890459426
H   H70       1.0  0.49310  0.09890  0.99280  1.0000 0.0890459426
H   H71       1.0  0.90110  0.50690  0.49280  1.0000 0.0890459426
H   H72       1.0  0.50690  0.90110  0.00720  1.0000 0.0890459426
H   H73       1.0  0.05110  0.41330  0.67670  1.0000 0.1186085599
H   H74       1.0  0.41330  0.05110  0.82330  1.0000 0.1186085599
H   H75       1.0  0.94890  0.58670  0.32330  1.0000 0.1186085599
H   H76       1.0  0.58670  0.94890  0.17670  1.0000 0.1186085599
H   H77       1.0  0.16420  0.52620  0.64340  1.0000 0.1186085599
H   H78       1.0  0.52620  0.16420  0.85660  1.0000 0.1186085599
H   H79       1.0  0.83580  0.47380  0.35660  1.0000 0.1186085599
H   H80       1.0  0.47380  0.83580  0.14340  1.0000 0.1186085599
C   C1        1.0  0.52596  0.69404  0.55660  1.0000 -0.0090877428
C   C2        1.0  0.69404  0.52596  0.94340  1.0000 -0.0090877428
C   C3        1.0  0.47404  0.30596  0.44340  1.0000 -0.0090877428
C   C4        1.0  0.30596  0.47404  0.05660  1.0000 -0.0090877428
C   C5        1.0  0.42930  0.66170  0.53330  1.0000 -0.1195646455
C   C6        1.0  0.66170  0.42930  0.96670  1.0000 -0.1195646455
C   C7        1.0  0.57070  0.33830  0.46670  1.0000 -0.1195646455
C   C8        1.0  0.33830  0.57070  0.03330  1.0000 -0.1195646455
C   C9        1.0  0.36405  0.58575  0.47170  1.0000 -0.1195646455
C   C10       1.0  0.58575  0.36405  0.02830  1.0000 -0.1195646455
C   C11       1.0  0.63595  0.41425  0.52830  1.0000 -0.1195646455
C   C12       1.0  0.41425  0.63595  0.97170  1.0000 -0.1195646455
C   C13       1.0  0.39467  0.54133  0.42920  1.0000 -0.0204266799
C   C14       1.0  0.54133  0.39467  0.07080  1.0000 -0.0204266799
C   C15       1.0  0.60533  0.45867  0.57080  1.0000 -0.0204266799
C   C16       1.0  0.45867  0.60533  0.92920  1.0000 -0.0204266799
C   C17       1.0  0.49302  0.57718  0.44980  1.0000 -0.1029040725
C   C18       1.0  0.57718  0.49302  0.05020  1.0000 -0.1029040725
C   C19       1.0  0.50698  0.42282  0.55020  1.0000 -0.1029040725
C   C20       1.0  0.42282  0.50698  0.94980  1.0000 -0.1029040725
C   C21       1.0  0.55930  0.65270  0.51460  1.0000 -0.1080412329
C   C22       1.0  0.65270  0.55930  0.98540  1.0000 -0.1080412329
C   C23       1.0  0.44070  0.34730  0.48540  1.0000 -0.1080412329
C   C24       1.0  0.34730  0.44070  0.01460  1.0000 -0.1080412329
C   C25       1.0  0.59370  0.77410  0.62700  1.0000 0.5750182452
C   C26       1.0  0.77410  0.59370  0.87300  1.0000 0.5750182452
C   C27       1.0  0.40630  0.22590  0.37300  1.0000 0.5698320054
C   C28       1.0  0.22590  0.40630  0.12700  1.0000 0.5698320054
C   C29       1.0  0.32039  0.45361  0.36360  1.0000 0.5891326996
C   C30       1.0  0.45361  0.32039  0.13640  1.0000 0.5891326996
C   C31       1.0  0.67961  0.54639  0.63640  1.0000 0.5891326996
C   C32       1.0  0.54639  0.67961  0.86360  1.0000 0.5891326996
C   C33       1.0  0.92723  0.97717  0.93910  1.0000 -0.0311086285
C   C34       1.0  0.97717  0.92723  0.56090  1.0000 -0.0311086285
C   C35       1.0  0.07277  0.02283  0.06090  1.0000 -0.0311086285
C   C36       1.0  0.02283  0.07277  0.43910  1.0000 -0.0311086285
C   C37       1.0  0.97472  0.05908  0.99600  1.0000 -0.1080412329
C   C38       1.0  0.05908  0.97472  0.50400  1.0000 -0.1080412329
C   C39       1.0  0.02528  0.94092  0.00400  1.0000 -0.1080412329
C   C40       1.0  0.94092  0.02528  0.49600  1.0000 -0.1080412329
C   C41       1.0  0.95240  0.91600  0.94210  1.0000 -0.1080412329
C   C42       1.0  0.91600  0.95240  0.55790  1.0000 -0.1080412329
C   C43       1.0  0.04760  0.08400  0.05790  1.0000 -0.1080412329
C   C44       1.0  0.08400  0.04760  0.44210  1.0000 -0.1080412329
C   C45       1.0  0.85131  0.95449  0.87370  1.0000 0.5698320054
C   C46       1.0  0.95449  0.85131  0.62630  1.0000 0.5698320054
C   C47       1.0  0.14869  0.04551  0.12630  1.0000 0.5698320054
C   C48       1.0  0.04551  0.14869  0.37370  1.0000 0.5698320054
C   C49       1.0  0.79740  0.08460  0.61210  1.0000 0.0688528488
C   C50       1.0  0.08460  0.79740  0.88790  1.0000 0.0688528488
C   C51       1.0  0.20260  0.91540  0.38790  1.0000 0.0688528488
C   C52       1.0  0.91540  0.20260  0.11210  1.0000 0.0688528488
C   C53       1.0  0.87270  0.17910  0.56420  1.0000 -0.2089773906
C   C54       1.0  0.17910  0.87270  0.93580  1.0000 -0.2089773906
C   C55       1.0  0.12730  0.82090  0.43580  1.0000 -0.2089773906
C   C56       1.0  0.82090  0.12730  0.06420  1.0000 -0.2089773906
C   C57       1.0  0.98180  0.24980  0.58200  1.0000 0.1724882717
C   C58       1.0  0.24980  0.98180  0.91800  1.0000 0.1724882717
C   C59       1.0  0.01820  0.75020  0.41800  1.0000 0.1724882717
C   C60       1.0  0.75020  0.01820  0.08200  1.0000 0.1724882717
C   C61       1.0  0.01100  0.22240  0.64750  1.0000 -0.2089773906
C   C62       1.0  0.22240  0.01100  0.85250  1.0000 -0.2089773906
C   C63       1.0  0.98900  0.77760  0.35250  1.0000 -0.2089773906
C   C64       1.0  0.77760  0.98900  0.14750  1.0000 -0.2089773906
C   C65       1.0  0.93080  0.12900  0.69480  1.0000 0.0964604741
C   C66       1.0  0.12900  0.93080  0.80520  1.0000 0.0964604741
C   C67       1.0  0.06920  0.87100  0.30520  1.0000 0.0964604741
C   C68       1.0  0.87100  0.06920  0.19480  1.0000 0.0964604741
C   C69       1.0  0.90770  0.51830  0.69620  1.0000 0.0890459426
C   C70       1.0  0.51830  0.90770  0.80380  1.0000 0.0890459426
C   C71       1.0  0.09230  0.48170  0.30380  1.0000 0.0890459426
C   C72       1.0  0.48170  0.09230  0.19620  1.0000 0.0890459426
C   C73       1.0  0.94130  0.46910  0.67930  1.0000 -0.2226024039
C   C74       1.0  0.46910  0.94130  0.82070  1.0000 -0.2226024039
C   C75       1.0  0.05870  0.53090  0.32070  1.0000 -0.2226024039
C   C76       1.0  0.53090  0.05870  0.17930  1.0000 -0.2226024039
C   C77       1.0  0.04900  0.53020  0.65870  1.0000 0.1724882717
C   C78       1.0  0.53020  0.04900  0.84130  1.0000 0.1724882717
C   C79       1.0  0.95100  0.46980  0.34130  1.0000 0.1724882717
C   C80       1.0  0.46980  0.95100  0.15870  1.0000 0.1724882717
C   C81       1.0  0.11810  0.64170  0.65750  1.0000 -0.2226024039
C   C82       1.0  0.64170  0.11810  0.84250  1.0000 -0.2226024039
C   C83       1.0  0.88190  0.35830  0.34250  1.0000 -0.2226024039
C   C84       1.0  0.35830  0.88190  0.15750  1.0000 -0.2226024039
C   C85       1.0  0.07780  0.68320  0.67700  1.0000 0.0688528488
C   C86       1.0  0.68320  0.07780  0.82300  1.0000 0.0688528488
C   C87       1.0  0.92220  0.31680  0.32300  1.0000 0.0688528488
C   C88       1.0  0.31680  0.92220  0.17700  1.0000 0.0688528488
C   C89       1.0  0.06550  0.35390  0.53290  1.0000 -0.2571772454
C   C90       1.0  0.35390  0.06550  0.96710  1.0000 -0.2571772454
C   C91       1.0  0.93450  0.64610  0.46710  1.0000 -0.2571772454
C   C92       1.0  0.64610  0.93450  0.03290  1.0000 -0.2571772454
C   C93       1.0  0.05280  0.43160  0.54740  1.0000 -0.1513345358
C   C94       1.0  0.43160  0.05280  0.95260  1.0000 -0.1513345358
C   C95       1.0  0.94720  0.56840  0.45260  1.0000 -0.1513345358
C   C96       1.0  0.56840  0.94720  0.04740  1.0000 -0.1513345358
C   C97       1.0  0.08480  0.47420  0.63690  1.0000 -0.2506833342
C   C98       1.0  0.47420  0.08480  0.86310  1.0000 -0.2506833342
C   C99       1.0  0.91520  0.52580  0.36310  1.0000 -0.2506833342
C   C100      1.0  0.52580  0.91520  0.13690  1.0000 -0.2506833342
N   N1        1.0  0.82641  0.06039  0.67850  1.0000 -0.2506833342
N   N2        1.0  0.06039  0.82641  0.82150  1.0000 -0.2506833342
N   N3        1.0  0.17359  0.93961  0.32150  1.0000 -0.2506833342
N   N4        1.0  0.93961  0.17359  0.17850  1.0000 -0.2506833342
N   N5        1.0  0.97687  0.62533  0.69830  1.0000 -0.2226024039
N   N6        1.0  0.62533  0.97687  0.80170  1.0000 -0.2226024039
N   N7        1.0  0.02313  0.37467  0.30170  1.0000 -0.2226024039
N   N8        1.0  0.37467  0.02313  0.19830  1.0000 -0.2226024039
O   O1        1.0  0.67063  0.78837  0.65770  1.0000 -0.5954550919
O   O2        1.0  0.78837  0.67063  0.84230  1.0000 -0.5954550919
O   O3        1.0  0.32937  0.21163  0.34230  1.0000 -0.5954550919
O   O4        1.0  0.21163  0.32937  0.15770  1.0000 -0.5954550919
O   O5        1.0  0.57224  0.82476  0.65330  1.0000 -0.5593013359
O   O6        1.0  0.82476  0.57224  0.84670  1.0000 -0.5593013359
O   O7        1.0  0.42776  0.17524  0.34670  1.0000 -0.5593013359
O   O8        1.0  0.17524  0.42776  0.15330  1.0000 -0.5593013359
O   O9        1.0  0.35242  0.41458  0.33280  1.0000 -0.5593013359
O   O10       1.0  0.41458  0.35242  0.16720  1.0000 -0.5593013359
O   O11       1.0  0.64758  0.58542  0.66720  1.0000 -0.5593013359
O   O12       1.0  0.58542  0.64758  0.83280  1.0000 -0.5593013359
O   O13       1.0  0.23519  0.42881  0.34590  1.0000 -0.5593013359
O   O14       1.0  0.42881  0.23519  0.15410  1.0000 -0.5593013359
O   O15       1.0  0.76481  0.57119  0.65410  1.0000 -0.5593013359
O   O16       1.0  0.57119  0.76481  0.84590  1.0000 -0.5593013359
O   O17       1.0  0.82263  0.00397  0.87700  1.0000 -0.5593013359
O   O18       1.0  0.00397  0.82263  0.62300  1.0000 -0.5593013359
O   O19       1.0  0.17737  0.99603  0.12300  1.0000 -0.5593013359
O   O20       1.0  0.99603  0.17737  0.37700  1.0000 -0.5593013359
O   O21       1.0  0.81746  0.88834  0.81480  1.0000 -0.5883380291
O   O22       1.0  0.88834  0.81746  0.68520  1.0000 -0.5883380291
O   O23       1.0  0.18254  0.11166  0.18520  1.0000 -0.5883380291
O   O24       1.0  0.11166  0.18254  0.31480  1.0000 -0.5883380291
