# DDEC6 charges by PACMAN v1.1 (https://github.com/mtap-research/PACMAN-charge/)
data_2011[Er][ecu]3[ASR]1
_chemical_formula_sum              "Er8 H32 C32 O64"
_cell_length_a       8.5775
_cell_length_b       13.3115
_cell_length_c       18.0939
_cell_angle_alpha    90
_cell_angle_beta     90
_cell_angle_gamma    90

_symmetry_space_group_name_H-M    "P 1"
_symmetry_Int_Tables_number       1

loop_
  _symmetry_equiv_pos_as_xyz
  'x, y, z'

loop_
  _atom_site_type_symbol
  _atom_site_label
  _atom_site_symmetry_multiplicity
  _atom_site_fract_x
  _atom_site_fract_y
  _atom_site_fract_z
  _atom_site_occupancy
  _atom_site_charge
Er  Er1       1.0  0.25264  0.37458  0.60102  1.0000 2.0394541973
Er  Er2       1.0  0.75264  0.62542  0.39898  1.0000 2.0394541973
Er  Er3       1.0  0.25264  0.12542  0.10102  1.0000 2.0394541973
Er  Er4       1.0  0.75264  0.87458  0.89898  1.0000 2.0394541973
Er  Er5       1.0  0.75236  0.12491  0.39380  1.0000 2.0394541973
Er  Er6       1.0  0.25236  0.87509  0.60620  1.0000 2.0394541973
Er  Er7       1.0  0.75236  0.37509  0.89380  1.0000 2.0394541973
Er  Er8       1.0  0.25236  0.62491  0.10620  1.0000 2.0394541973
H   H1        1.0  0.44280  0.23570  0.47370  1.0000 0.1092388181
H   H2        1.0  0.94280  0.76430  0.52630  1.0000 0.1092388181
H   H3        1.0  0.44280  0.26430  0.97370  1.0000 0.1092388181
H   H4        1.0  0.94280  0.73570  0.02630  1.0000 0.1092388181
H   H5        1.0  0.26940  0.11750  0.56310  1.0000 0.0786370987
H   H6        1.0  0.76940  0.88250  0.43690  1.0000 0.0786370987
H   H7        1.0  0.26940  0.38250  0.06310  1.0000 0.0786370987
H   H8        1.0  0.76940  0.61750  0.93690  1.0000 0.0786370987
H   H9        1.0  0.57780  0.30120  0.70790  1.0000 0.1333400661
H   H10       1.0  0.07780  0.69880  0.29210  1.0000 0.1333400661
H   H11       1.0  0.57780  0.19880  0.20790  1.0000 0.1333400661
H   H12       1.0  0.07780  0.80120  0.79210  1.0000 0.1333400661
H   H13       1.0  0.89450  0.44050  0.70730  1.0000 0.1092388181
H   H14       1.0  0.39450  0.55950  0.29270  1.0000 0.1092388181
H   H15       1.0  0.89450  0.05950  0.20730  1.0000 0.1092388181
H   H16       1.0  0.39450  0.94050  0.79270  1.0000 0.1092388181
H   H17       1.0  0.20810  0.61980  0.56410  1.0000 0.0786370987
H   H18       1.0  0.70810  0.38020  0.43590  1.0000 0.0786370987
H   H19       1.0  0.20810  0.88020  0.06410  1.0000 0.0786370987
H   H20       1.0  0.70810  0.11980  0.93590  1.0000 0.0786370987
H   H21       1.0  0.54150  0.50280  0.53200  1.0000 0.0931132638
H   H22       1.0  0.04150  0.49720  0.46800  1.0000 0.0931132638
H   H23       1.0  0.54150  0.99720  0.03200  1.0000 0.0931132638
H   H24       1.0  0.04150  0.00280  0.96800  1.0000 0.0931132638
H   H25       1.0  0.94720  0.24960  0.52750  1.0000 0.0966020206
H   H26       1.0  0.44720  0.75040  0.47250  1.0000 0.0966020206
H   H27       1.0  0.94720  0.25040  0.02750  1.0000 0.0966020206
H   H28       1.0  0.44720  0.74960  0.97250  1.0000 0.0966020206
H   H29       1.0  0.04840  0.99830  0.47130  1.0000 0.0966020206
H   H30       1.0  0.54840  0.00170  0.52870  1.0000 0.0966020206
H   H31       1.0  0.04840  0.50170  0.97130  1.0000 0.0966020206
H   H32       1.0  0.54840  0.49830  0.02870  1.0000 0.0966020206
C   C1        1.0  0.52060  0.24680  0.51020  1.0000 0.5188269073
C   C2        1.0  0.02060  0.75320  0.48980  1.0000 0.5188269073
C   C3        1.0  0.52060  0.25320  0.01020  1.0000 0.5188269073
C   C4        1.0  0.02060  0.74680  0.98980  1.0000 0.5188269073
C   C5        1.0  0.26290  0.11860  0.61550  1.0000 0.5188269073
C   C6        1.0  0.76290  0.88140  0.38450  1.0000 0.5188269073
C   C7        1.0  0.26290  0.38140  0.11550  1.0000 0.5188269073
C   C8        1.0  0.76290  0.61860  0.88450  1.0000 0.5188269073
C   C9        1.0  0.52500  0.35420  0.73250  1.0000 0.5446647459
C   C10       1.0  0.02500  0.64580  0.26750  1.0000 0.5513790303
C   C11       1.0  0.52500  0.14580  0.23250  1.0000 0.5446647459
C   C12       1.0  0.02500  0.85420  0.76750  1.0000 0.5513790303
C   C13       1.0  0.96090  0.39520  0.73300  1.0000 0.5513790303
C   C14       1.0  0.46090  0.60480  0.26700  1.0000 0.5513790303
C   C15       1.0  0.96090  0.10480  0.23300  1.0000 0.5513790303
C   C16       1.0  0.46090  0.89520  0.76700  1.0000 0.5513790303
C   C17       1.0  0.21410  0.62170  0.61650  1.0000 0.5301521524
C   C18       1.0  0.71410  0.37830  0.38350  1.0000 0.5301521524
C   C19       1.0  0.21410  0.87830  0.11650  1.0000 0.5301521524
C   C20       1.0  0.71410  0.12170  0.88350  1.0000 0.5301521524
C   C21       1.0  0.46720  0.50690  0.49320  1.0000 0.5301521524
C   C22       1.0  0.96720  0.49310  0.50680  1.0000 0.5301521524
C   C23       1.0  0.46720  0.99310  0.99320  1.0000 0.5301521524
C   C24       1.0  0.96720  0.00690  0.00680  1.0000 0.5301521524
C   C25       1.0  0.02030  0.24860  0.48810  1.0000 0.5301521524
C   C26       1.0  0.52030  0.75140  0.51190  1.0000 0.5301521524
C   C27       1.0  0.02030  0.25140  0.98810  1.0000 0.5301521524
C   C28       1.0  0.52030  0.74860  0.01190  1.0000 0.5301521524
C   C29       1.0  0.97490  0.00090  0.51050  1.0000 0.5188269073
C   C30       1.0  0.47490  0.99910  0.48950  1.0000 0.5188269073
C   C31       1.0  0.97490  0.49910  0.01050  1.0000 0.5188269073
C   C32       1.0  0.47490  0.50090  0.98950  1.0000 0.5188269073
O   O1        1.0  0.48110  0.29410  0.56390  1.0000 -0.5763496107
O   O2        1.0  0.98110  0.70590  0.43610  1.0000 -0.5763496107
O   O3        1.0  0.48110  0.20590  0.06390  1.0000 -0.5763496107
O   O4        1.0  0.98110  0.79410  0.93610  1.0000 -0.5763496107
O   O5        1.0  0.65210  0.21080  0.49710  1.0000 -0.588153039
O   O6        1.0  0.15210  0.78920  0.50290  1.0000 -0.588153039
O   O7        1.0  0.65210  0.28920  0.99710  1.0000 -0.588153039
O   O8        1.0  0.15210  0.71080  0.00290  1.0000 -0.588153039
O   O9        1.0  0.23330  0.20570  0.64800  1.0000 -0.5989305962
O   O10       1.0  0.73330  0.79430  0.35200  1.0000 -0.6097427084
O   O11       1.0  0.23330  0.29430  0.14800  1.0000 -0.5989305962
O   O12       1.0  0.73330  0.70570  0.85200  1.0000 -0.6097427084
O   O13       1.0  0.28190  0.04150  0.64780  1.0000 -0.5262106901
O   O14       1.0  0.78190  0.95850  0.35220  1.0000 -0.5262106901
O   O15       1.0  0.28190  0.45850  0.14780  1.0000 -0.5262106901
O   O16       1.0  0.78190  0.54150  0.85220  1.0000 -0.5262106901
O   O17       1.0  0.42050  0.38640  0.70320  1.0000 -0.445730204
O   O18       1.0  0.92050  0.61360  0.29680  1.0000 -0.4444104975
O   O19       1.0  0.42050  0.11360  0.20320  1.0000 -0.445730204
O   O20       1.0  0.92050  0.88640  0.79680  1.0000 -0.4444104975
O   O21       1.0  0.58150  0.38110  0.79570  1.0000 -0.5989305962
O   O22       1.0  0.08150  0.61890  0.20430  1.0000 -0.5989305962
O   O23       1.0  0.58150  0.11890  0.29570  1.0000 -0.5989305962
O   O24       1.0  0.08150  0.88110  0.70430  1.0000 -0.5989305962
O   O25       1.0  0.09100  0.36600  0.70110  1.0000 -0.6097427084
O   O26       1.0  0.59100  0.63400  0.29890  1.0000 -0.6097427084
O   O27       1.0  0.09100  0.13400  0.20110  1.0000 -0.6097427084
O   O28       1.0  0.59100  0.86600  0.79890  1.0000 -0.6097427084
O   O29       1.0  0.92390  0.36780  0.79150  1.0000 -0.4876064381
O   O30       1.0  0.42390  0.63220  0.20850  1.0000 -0.4876064381
O   O31       1.0  0.92390  0.13220  0.29150  1.0000 -0.4876064381
O   O32       1.0  0.42390  0.86780  0.70850  1.0000 -0.4876064381
O   O33       1.0  0.23820  0.54330  0.64770  1.0000 -0.5184283799
O   O34       1.0  0.73820  0.45670  0.35230  1.0000 -0.5184283799
O   O35       1.0  0.23820  0.95670  0.14770  1.0000 -0.5184283799
O   O36       1.0  0.73820  0.04330  0.85230  1.0000 -0.5184283799
O   O37       1.0  0.19590  0.70760  0.64750  1.0000 -0.5989305962
O   O38       1.0  0.69590  0.29240  0.35250  1.0000 -0.5989305962
O   O39       1.0  0.19590  0.79240  0.14750  1.0000 -0.5989305962
O   O40       1.0  0.69590  0.20760  0.85250  1.0000 -0.5989305962
O   O41       1.0  0.33840  0.46710  0.50340  1.0000 -0.6097427084
O   O42       1.0  0.83840  0.53290  0.49660  1.0000 -0.6097427084
O   O43       1.0  0.33840  0.03290  0.00340  1.0000 -0.6097427084
O   O44       1.0  0.83840  0.96710  0.99660  1.0000 -0.6097427084
O   O45       1.0  0.50770  0.55320  0.43430  1.0000 -0.6097427084
O   O46       1.0  0.00770  0.44680  0.56570  1.0000 -0.6097427084
O   O47       1.0  0.50770  0.94680  0.93430  1.0000 -0.6097427084
O   O48       1.0  0.00770  0.05320  0.06570  1.0000 -0.6097427084
O   O49       1.0  0.15330  0.27980  0.50180  1.0000 -0.5989305962
O   O50       1.0  0.65330  0.72020  0.49820  1.0000 -0.5989305962
O   O51       1.0  0.15330  0.22020  0.00180  1.0000 -0.5989305962
O   O52       1.0  0.65330  0.77980  0.99820  1.0000 -0.5989305962
O   O53       1.0  0.97310  0.21590  0.42710  1.0000 -0.588153039
O   O54       1.0  0.47310  0.78410  0.57290  1.0000 -0.588153039
O   O55       1.0  0.97310  0.28410  0.92710  1.0000 -0.588153039
O   O56       1.0  0.47310  0.71590  0.07290  1.0000 -0.588153039
O   O57       1.0  0.84960  0.04060  0.49710  1.0000 -0.588153039
O   O58       1.0  0.34960  0.95940  0.50290  1.0000 -0.588153039
O   O59       1.0  0.84960  0.45940  0.99710  1.0000 -0.588153039
O   O60       1.0  0.34960  0.54060  0.00290  1.0000 -0.588153039
O   O61       1.0  0.01640  0.96280  0.57190  1.0000 -0.5721745437
O   O62       1.0  0.51640  0.03720  0.42810  1.0000 -0.5721745437
O   O63       1.0  0.01640  0.53720  0.07190  1.0000 -0.5721745437
O   O64       1.0  0.51640  0.46280  0.92810  1.0000 -0.5721745437
