# DDEC6 charges by PACMAN v1.1 (https://github.com/mtap-research/PACMAN-charge/)
data_2011[Cr][bpq]3[ASR]1
_chemical_formula_sum              "Cr4 H20 C32 O20"
_cell_length_a       19.6812
_cell_length_b       7.7005
_cell_length_c       6.778
_cell_angle_alpha    90
_cell_angle_beta     75.4997
_cell_angle_gamma    90

_symmetry_space_group_name_H-M    "P 1"
_symmetry_Int_Tables_number       1

loop_
  _symmetry_equiv_pos_as_xyz
  'x, y, z'

loop_
  _atom_site_type_symbol
  _atom_site_label
  _atom_site_symmetry_multiplicity
  _atom_site_fract_x
  _atom_site_fract_y
  _atom_site_fract_z
  _atom_site_occupancy
  _atom_site_charge
Cr  Cr1       1.0  0.00000  0.00000  0.00000  1.0000 1.5505316572
Cr  Cr2       1.0  0.50000  0.50000  0.00000  1.0000 1.5505316572
Cr  Cr3       1.0  0.00000  0.00000  0.50000  1.0000 1.5505316572
Cr  Cr4       1.0  0.50000  0.50000  0.50000  1.0000 1.5505316572
H   H1        1.0  0.16870  0.72960  0.79940  1.0000 0.1286988116
H   H2        1.0  0.21250  0.83660  0.34260  1.0000 0.1286988116
H   H3        1.0  0.66870  0.22960  0.79940  1.0000 0.1286988116
H   H4        1.0  0.71250  0.33660  0.34260  1.0000 0.1286988116
H   H5        1.0  0.83130  0.72960  0.70060  1.0000 0.1286988116
H   H6        1.0  0.78750  0.83660  0.15740  1.0000 0.1286988116
H   H7        1.0  0.33130  0.22960  0.70060  1.0000 0.1286988116
H   H8        1.0  0.28750  0.33660  0.15740  1.0000 0.1286988116
H   H9        1.0  0.83130  0.27040  0.20060  1.0000 0.1286988116
H   H10       1.0  0.78750  0.16340  0.65740  1.0000 0.1286988116
H   H11       1.0  0.33130  0.77040  0.20060  1.0000 0.1286988116
H   H12       1.0  0.28750  0.66340  0.65740  1.0000 0.1286988116
H   H13       1.0  0.16870  0.27040  0.29940  1.0000 0.1286988116
H   H14       1.0  0.21250  0.16340  0.84260  1.0000 0.1286988116
H   H15       1.0  0.66870  0.77040  0.29940  1.0000 0.1286988116
H   H16       1.0  0.71250  0.66340  0.84260  1.0000 0.1286988116
H   H17       1.0  0.50000  0.74906  0.25000  1.0000 0.4347338693
H   H18       1.0  0.00000  0.24906  0.25000  1.0000 0.4347338693
H   H19       1.0  0.50000  0.25094  0.75000  1.0000 0.4347338693
H   H20       1.0  0.00000  0.75094  0.75000  1.0000 0.4352659003
C   C1        1.0  0.18080  0.78860  0.08270  1.0000 -0.0228495699
C   C2        1.0  0.20260  0.73810  0.88310  1.0000 -0.1064262532
C   C3        1.0  0.22820  0.80050  0.19960  1.0000 -0.1064262532
C   C4        1.0  0.10660  0.82990  0.17140  1.0000 0.5992026047
C   C5        1.0  0.68080  0.28860  0.08270  1.0000 -0.0228495699
C   C6        1.0  0.70260  0.23810  0.88310  1.0000 -0.1064262532
C   C7        1.0  0.72820  0.30050  0.19960  1.0000 -0.1064262532
C   C8        1.0  0.60660  0.32990  0.17140  1.0000 0.5992026047
C   C9        1.0  0.81920  0.78860  0.41730  1.0000 -0.0228495699
C   C10       1.0  0.79740  0.73810  0.61690  1.0000 -0.1064262532
C   C11       1.0  0.77180  0.80050  0.30040  1.0000 -0.1064262532
C   C12       1.0  0.89340  0.82990  0.32860  1.0000 0.5992026047
C   C13       1.0  0.31920  0.28860  0.41730  1.0000 -0.0228495699
C   C14       1.0  0.29740  0.23810  0.61690  1.0000 -0.1064262532
C   C15       1.0  0.27180  0.30050  0.30040  1.0000 -0.1064262532
C   C16       1.0  0.39340  0.32990  0.32860  1.0000 0.5992026047
C   C17       1.0  0.81920  0.21140  0.91730  1.0000 -0.0228495699
C   C18       1.0  0.79740  0.26190  0.11690  1.0000 -0.1064262532
C   C19       1.0  0.77180  0.19950  0.80040  1.0000 -0.1064262532
C   C20       1.0  0.89340  0.17010  0.82860  1.0000 0.5992026047
C   C21       1.0  0.31920  0.71140  0.91730  1.0000 -0.0228495699
C   C22       1.0  0.29740  0.76190  0.11690  1.0000 -0.1064262532
C   C23       1.0  0.27180  0.69950  0.80040  1.0000 -0.1064262532
C   C24       1.0  0.39340  0.67010  0.82860  1.0000 0.5992026047
C   C25       1.0  0.18080  0.21140  0.58270  1.0000 -0.0228495699
C   C26       1.0  0.20260  0.26190  0.38310  1.0000 -0.1064262532
C   C27       1.0  0.22820  0.19950  0.69960  1.0000 -0.1064262532
C   C28       1.0  0.10660  0.17010  0.67140  1.0000 0.5992026047
C   C29       1.0  0.68080  0.71140  0.58270  1.0000 -0.0228495699
C   C30       1.0  0.70260  0.76190  0.38310  1.0000 -0.1064262532
C   C31       1.0  0.72820  0.69950  0.69960  1.0000 -0.1064262532
C   C32       1.0  0.60660  0.67010  0.67140  1.0000 0.5992026047
O   O1        1.0  0.06280  0.82070  0.06240  1.0000 -0.5716814979
O   O2        1.0  0.08620  0.87490  0.35710  1.0000 -0.5627767428
O   O3        1.0  0.56280  0.32070  0.06240  1.0000 -0.5716814979
O   O4        1.0  0.58620  0.37490  0.35710  1.0000 -0.5627767428
O   O5        1.0  0.93720  0.82070  0.43760  1.0000 -0.5716814979
O   O6        1.0  0.91380  0.87490  0.14290  1.0000 -0.5627767428
O   O7        1.0  0.43720  0.32070  0.43760  1.0000 -0.5716814979
O   O8        1.0  0.41380  0.37490  0.14290  1.0000 -0.5627767428
O   O9        1.0  0.93720  0.17930  0.93760  1.0000 -0.5716814979
O   O10       1.0  0.91380  0.12510  0.64290  1.0000 -0.5627767428
O   O11       1.0  0.43720  0.67930  0.93760  1.0000 -0.5716814979
O   O12       1.0  0.41380  0.62510  0.64290  1.0000 -0.5627767428
O   O13       1.0  0.06280  0.17930  0.56240  1.0000 -0.5716814979
O   O14       1.0  0.08620  0.12510  0.85710  1.0000 -0.5627767428
O   O15       1.0  0.56280  0.67930  0.56240  1.0000 -0.5716814979
O   O16       1.0  0.58620  0.62510  0.85710  1.0000 -0.5627767428
O   O17       1.0  0.00000  0.88080  0.75000  1.0000 -0.9582783564
O   O18       1.0  0.50000  0.38080  0.75000  1.0000 -0.9582783564
O   O19       1.0  0.00000  0.11920  0.25000  1.0000 -0.9582783564
O   O20       1.0  0.50000  0.61920  0.25000  1.0000 -0.9582783564
