# DDEC6 charges by PACMAN v1.1 (https://github.com/mtap-research/PACMAN-charge/)
data_2011[La][nan]3[ASR]2
_chemical_formula_sum              "La4 H8 C24 S4 N2 O22"
_cell_length_a       12.827
_cell_length_b       6.5366
_cell_length_c       16.096
_cell_angle_alpha    90
_cell_angle_beta     90.34
_cell_angle_gamma    90

_symmetry_space_group_name_H-M    "P 1"
_symmetry_Int_Tables_number       1

loop_
  _symmetry_equiv_pos_as_xyz
  'x, y, z'

loop_
  _atom_site_type_symbol
  _atom_site_label
  _atom_site_symmetry_multiplicity
  _atom_site_fract_x
  _atom_site_fract_y
  _atom_site_fract_z
  _atom_site_occupancy
  _atom_site_charge
La  La1       1.0  0.98294  0.07171  0.39415  1.0000 1.7889455499
La  La2       1.0  0.01706  0.57171  0.60585  1.0000 1.7889455499
La  La3       1.0  0.78405  0.67878  0.26867  1.0000 1.8358948769
La  La4       1.0  0.21595  0.17878  0.73133  1.0000 1.8316990675
H   H1        1.0  0.89290  0.08230  0.93380  1.0000 0.1215002181
H   H2        1.0  0.10710  0.58230  0.06620  1.0000 0.1215002181
H   H3        1.0  0.83850  0.05780  0.07890  1.0000 0.1308629256
H   H4        1.0  0.16150  0.55780  0.92110  1.0000 0.1308629256
H   H5        1.0  0.53750  0.05210  0.35980  1.0000 0.1308629256
H   H6        1.0  0.46250  0.55210  0.64020  1.0000 0.1308629256
H   H7        1.0  0.38420  0.06640  0.43750  1.0000 0.1308629256
H   H8        1.0  0.61580  0.56640  0.56250  1.0000 0.1308629256
C   C1        1.0  0.73870  0.04910  0.43110  1.0000 0.5818790139
C   C2        1.0  0.26130  0.54910  0.56890  1.0000 0.5818790139
C   C3        1.0  0.10270  0.09860  0.89230  1.0000 0.5443721058
C   C4        1.0  0.89730  0.59860  0.10770  1.0000 0.5443721058
C   C5        1.0  0.93930  0.07920  0.97840  1.0000 -0.1285216631
C   C6        1.0  0.06070  0.57920  0.02160  1.0000 -0.1285216631
C   C7        1.0  0.98770  0.05310  0.20710  1.0000 0.6003207506
C   C8        1.0  0.01230  0.55310  0.79290  1.0000 0.6003207506
C   C9        1.0  0.99020  0.07140  0.11570  1.0000 -0.121077068
C   C10       1.0  0.00980  0.57140  0.88430  1.0000 -0.121077068
C   C11       1.0  0.04530  0.08570  0.96970  1.0000 -0.1413281643
C   C12       1.0  0.95470  0.58570  0.03030  1.0000 -0.1285216631
C   C13       1.0  0.90760  0.06730  0.06220  1.0000 -0.121077068
C   C14       1.0  0.09240  0.56730  0.93780  1.0000 -0.121077068
C   C15       1.0  0.46930  0.06970  0.54190  1.0000 -0.0829251876
C   C16       1.0  0.53070  0.56970  0.45810  1.0000 -0.0829251876
C   C17       1.0  0.38970  0.08700  0.61100  1.0000 0.5557187141
C   C18       1.0  0.61030  0.58700  0.38900  1.0000 0.5557187141
C   C19       1.0  0.63220  0.06110  0.46240  1.0000 -0.1285216631
C   C20       1.0  0.36780  0.56110  0.53760  1.0000 -0.1285216631
C   C21       1.0  0.53840  0.05840  0.41750  1.0000 -0.121077068
C   C22       1.0  0.46160  0.55840  0.58250  1.0000 -0.1285216631
C   C23       1.0  0.45060  0.06510  0.46110  1.0000 -0.1413281643
C   C24       1.0  0.54940  0.56510  0.53890  1.0000 -0.1413281643
S   S1        1.0  0.10701  0.08530  0.06563  1.0000 0.1877467947
S   S2        1.0  0.89299  0.58530  0.93437  1.0000 0.1877467947
S   S3        1.0  0.60487  0.07360  0.56573  1.0000 0.156814696
S   S4        1.0  0.39513  0.57360  0.43427  1.0000 0.156814696
N   N1        1.0  0.92970  0.52060  0.40060  1.0000 0.7611333074
N   N2        1.0  0.07030  0.02060  0.59940  1.0000 0.7611333074
O   O1        1.0  0.91350  0.71480  0.39150  1.0000 -0.5904099602
O   O2        1.0  0.08650  0.21480  0.60850  1.0000 -0.5993967313
O   O3        1.0  0.75550  0.00990  0.35540  1.0000 -0.6292135029
O   O4        1.0  0.24450  0.50990  0.64460  1.0000 -0.6292135029
O   O5        1.0  0.81380  0.07820  0.48150  1.0000 -0.5904099602
O   O6        1.0  0.18620  0.57820  0.51850  1.0000 -0.5904099602
O   O7        1.0  0.05610  0.08550  0.82390  1.0000 -0.560688725
O   O8        1.0  0.94390  0.58550  0.17610  1.0000 -0.560688725
O   O9        1.0  0.20210  0.12930  0.89590  1.0000 -0.6292135029
O   O10       1.0  0.79790  0.62930  0.10410  1.0000 -0.6292135029
O   O11       1.0  0.89960  0.40060  0.34090  1.0000 -0.5491167067
O   O12       1.0  0.10040  0.90060  0.65910  1.0000 -0.5491167067
O   O13       1.0  0.90420  0.99040  0.24250  1.0000 -0.6763145386
O   O14       1.0  0.09580  0.49040  0.75750  1.0000 -0.6763145386
O   O15       1.0  0.29610  0.06830  0.59100  1.0000 -0.5696377216
O   O16       1.0  0.70390  0.56830  0.40900  1.0000 -0.5696377216
O   O17       1.0  0.97250  0.44350  0.46460  1.0000 -0.5820583461
O   O18       1.0  0.02750  0.94350  0.53540  1.0000 -0.5820583461
O   O19       1.0  0.06750  0.10170  0.24950  1.0000 -0.5993967313
O   O20       1.0  0.93250  0.60170  0.75050  1.0000 -0.5993967313
O   O21       1.0  0.41930  0.11450  0.68160  1.0000 -0.560688725
O   O22       1.0  0.58070  0.61450  0.31840  1.0000 -0.560688725
