# DDEC6 charges by PACMAN v1.1 (https://github.com/mtap-research/PACMAN-charge/)
data_2011[Cd][dia]3[ASR]5
_chemical_formula_sum              "Cd2 H64 C56 N8 O8"
_cell_length_a       11.3356
_cell_length_b       12.1513
_cell_length_c       12.8611
_cell_angle_alpha    87.543
_cell_angle_beta     111.239
_cell_angle_gamma    108.201

_symmetry_space_group_name_H-M    "P 1"
_symmetry_Int_Tables_number       1

loop_
  _symmetry_equiv_pos_as_xyz
  'x, y, z'

loop_
  _atom_site_type_symbol
  _atom_site_label
  _atom_site_symmetry_multiplicity
  _atom_site_fract_x
  _atom_site_fract_y
  _atom_site_fract_z
  _atom_site_occupancy
  _atom_site_charge
Cd  Cd1       1.0  0.34748  0.21754  0.70992  1.0000 0.796020083
Cd  Cd2       1.0  0.65252  0.78246  0.29008  1.0000 0.796020083
H   H1        1.0  0.41370  0.98380  0.78280  1.0000 0.109592576
H   H2        1.0  0.58630  0.01620  0.21720  1.0000 0.109592576
H   H3        1.0  0.57630  0.91400  0.90120  1.0000 0.1415626032
H   H4        1.0  0.42370  0.08600  0.09880  1.0000 0.1415626032
H   H5        1.0  0.76490  0.23100  0.06170  1.0000 0.1415626032
H   H6        1.0  0.23510  0.76900  0.93830  1.0000 0.1415626032
H   H7        1.0  0.59910  0.29310  0.93900  1.0000 0.109592576
H   H8        1.0  0.40090  0.70690  0.06100  1.0000 0.109592576
H   H9        1.0  0.86340  0.08340  0.13000  1.0000 0.1190933275
H   H10       1.0  0.13660  0.91660  0.87000  1.0000 0.1190933275
H   H11       1.0  0.76310  0.95650  0.10780  1.0000 0.129567238
H   H12       1.0  0.23690  0.04350  0.89220  1.0000 0.129567238
H   H13       1.0  0.93850  0.88220  0.12940  1.0000 0.1190933275
H   H14       1.0  0.06150  0.11780  0.87060  1.0000 0.1190933275
H   H15       1.0  0.03750  0.00990  0.15300  1.0000 0.109592576
H   H16       1.0  0.96250  0.99010  0.84700  1.0000 0.109592576
H   H17       1.0  0.99660  0.15020  0.01740  1.0000 0.0926715357
H   H18       1.0  0.00340  0.84980  0.98260  1.0000 0.0926715357
H   H19       1.0  0.87140  0.11370  0.90540  1.0000 0.109592576
H   H20       1.0  0.12860  0.88630  0.09460  1.0000 0.109592576
H   H21       1.0  0.12020  0.98730  0.37620  1.0000 0.1190933275
H   H22       1.0  0.87980  0.01270  0.62380  1.0000 0.1190933275
H   H23       1.0  0.04410  0.90320  0.44390  1.0000 0.1415626032
H   H24       1.0  0.95590  0.09680  0.55610  1.0000 0.1415626032
H   H25       1.0  0.21450  0.82430  0.51940  1.0000 0.1019153489
H   H26       1.0  0.78550  0.17570  0.48060  1.0000 0.1019153489
H   H27       1.0  0.18230  0.82160  0.39020  1.0000 0.1019153489
H   H28       1.0  0.81770  0.17840  0.60980  1.0000 0.1019153489
H   H29       1.0  0.44000  0.89170  0.63480  1.0000 0.109592576
H   H30       1.0  0.56000  0.10830  0.36520  1.0000 0.109592576
H   H31       1.0  0.33840  0.00870  0.33010  1.0000 0.109592576
H   H32       1.0  0.66160  0.99130  0.66990  1.0000 0.109592576
H   H33       1.0  0.30760  0.43960  0.97710  1.0000 0.129567238
H   H34       1.0  0.69240  0.56040  0.02290  1.0000 0.129567238
H   H35       1.0  0.25310  0.50140  0.86950  1.0000 0.1190933275
H   H36       1.0  0.74690  0.49860  0.13050  1.0000 0.1190933275
H   H37       1.0  0.11000  0.30040  0.93280  1.0000 0.1019153489
H   H38       1.0  0.89000  0.69960  0.06720  1.0000 0.1019153489
H   H39       1.0  0.05430  0.35180  0.81870  1.0000 0.109592576
H   H40       1.0  0.94570  0.64820  0.18130  1.0000 0.109592576
H   H41       1.0  0.11280  0.37860  0.09750  1.0000 0.1190933275
H   H42       1.0  0.88720  0.62140  0.90250  1.0000 0.1190933275
H   H43       1.0  0.98460  0.53140  0.82030  1.0000 0.1190933275
H   H44       1.0  0.01540  0.46860  0.17970  1.0000 0.1190933275
H   H45       1.0  0.44770  0.22210  0.50750  1.0000 0.1019153489
H   H46       1.0  0.55230  0.77790  0.49250  1.0000 0.1019153489
H   H47       1.0  0.58820  0.33240  0.42580  1.0000 0.1415626032
H   H48       1.0  0.41180  0.66760  0.57420  1.0000 0.1415626032
H   H49       1.0  0.72770  0.57730  0.67600  1.0000 0.1415626032
H   H50       1.0  0.27230  0.42270  0.32400  1.0000 0.1415626032
H   H51       1.0  0.58320  0.46050  0.75180  1.0000 0.109592576
H   H52       1.0  0.41680  0.53950  0.24820  1.0000 0.109592576
H   H53       1.0  0.71450  0.56510  0.41630  1.0000 0.129567238
H   H54       1.0  0.28550  0.43490  0.58370  1.0000 0.129567238
H   H55       1.0  0.81620  0.62040  0.53550  1.0000 0.1190933275
H   H56       1.0  0.18380  0.37960  0.46450  1.0000 0.1190933275
H   H57       1.0  0.88980  0.41000  0.61590  1.0000 0.109592576
H   H58       1.0  0.11020  0.59000  0.38410  1.0000 0.109592576
H   H59       1.0  0.99280  0.53580  0.63590  1.0000 0.1019153489
H   H60       1.0  0.00720  0.46420  0.36410  1.0000 0.1019153489
H   H61       1.0  0.99950  0.65210  0.48200  1.0000 0.109592576
H   H62       1.0  0.00050  0.34790  0.51800  1.0000 0.109592576
H   H63       1.0  0.90050  0.60340  0.35980  1.0000 0.109592576
H   H64       1.0  0.09950  0.39660  0.64020  1.0000 0.109592576
C   C1        1.0  0.48600  0.03440  0.83892  1.0000 0.0703004709
C   C2        1.0  0.51400  0.96560  0.16108  1.0000 0.0703004709
C   C3        1.0  0.58350  0.99170  0.90995  1.0000 -0.2011979187
C   C4        1.0  0.41650  0.00830  0.09005  1.0000 -0.2011979187
C   C5        1.0  0.69190  0.06530  0.99421  1.0000 0.1415626032
C   C6        1.0  0.30810  0.93470  0.00579  1.0000 0.1415626032
C   C7        1.0  0.69510  0.17940  0.00470  1.0000 -0.2092835048
C   C8        1.0  0.30490  0.82060  0.99530  1.0000 -0.2092835048
C   C9        1.0  0.59500  0.21620  0.93090  1.0000 0.0613699852
C   C10       1.0  0.40500  0.78380  0.06910  1.0000 0.0613699852
C   C11       1.0  0.80160  0.02240  0.07200  1.0000 -0.1913593637
C   C12       1.0  0.19840  0.97760  0.92800  1.0000 -0.1913593637
C   C13       1.0  0.97940  0.94800  0.09481  1.0000 -0.1376928614
C   C14       1.0  0.02060  0.05200  0.90519  1.0000 -0.1376928614
C   C15       1.0  0.93900  0.08680  0.96066  1.0000 -0.131727867
C   C16       1.0  0.06100  0.91320  0.03934  1.0000 -0.131727867
C   C17       1.0  0.19340  0.04370  0.54229  1.0000 0.6110519691
C   C18       1.0  0.80660  0.95630  0.45771  1.0000 0.6110519691
C   C19       1.0  0.13160  0.95070  0.44610  1.0000 -0.3196001203
C   C20       1.0  0.86840  0.04930  0.55390  1.0000 -0.3196001203
C   C21       1.0  0.21900  0.87270  0.45800  1.0000 -0.2284978033
C   C22       1.0  0.78100  0.12730  0.54200  1.0000 -0.2284978033
C   C23       1.0  0.36420  0.93851  0.47900  1.0000 0.109592576
C   C24       1.0  0.63580  0.06149  0.52100  1.0000 0.109592576
C   C25       1.0  0.46340  0.93520  0.57990  1.0000 -0.1684325525
C   C26       1.0  0.53660  0.06480  0.42010  1.0000 -0.1684325525
C   C27       1.0  0.40280  0.00470  0.39870  1.0000 -0.161980577
C   C28       1.0  0.59720  0.99530  0.60130  1.0000 -0.161980577
C   C29       1.0  0.29640  0.35890  0.83620  1.0000 0.5979807301
C   C30       1.0  0.70360  0.64110  0.16380  1.0000 0.5979807301
C   C31       1.0  0.24730  0.42610  0.89950  1.0000 -0.3196001203
C   C32       1.0  0.75270  0.57390  0.10050  1.0000 -0.3196001203
C   C33       1.0  0.11320  0.37230  0.89640  1.0000 -0.2244051175
C   C34       1.0  0.88680  0.62770  0.10360  1.0000 -0.2244051175
C   C35       1.0  0.05730  0.44220  0.94970  1.0000 0.109592576
C   C36       1.0  0.94270  0.55780  0.05030  1.0000 0.109592576
C   C37       1.0  0.06670  0.42720  0.05670  1.0000 -0.1684325525
C   C38       1.0  0.93330  0.57280  0.94330  1.0000 -0.1684325525
C   C39       1.0  0.99070  0.51760  0.89350  1.0000 -0.1818174796
C   C40       1.0  0.00930  0.48240  0.10650  1.0000 -0.1818174796
C   C41       1.0  0.50460  0.29490  0.54180  1.0000 0.0765071137
C   C42       1.0  0.49540  0.70510  0.45820  1.0000 0.0765071137
C   C43       1.0  0.58890  0.36070  0.49220  1.0000 -0.2011979187
C   C44       1.0  0.41110  0.63930  0.50780  1.0000 -0.2011979187
C   C45       1.0  0.67500  0.46920  0.54136  1.0000 0.1415626032
C   C46       1.0  0.32500  0.53080  0.45864  1.0000 0.1415626032
C   C47       1.0  0.67110  0.50510  0.63980  1.0000 -0.2092835048
C   C48       1.0  0.32890  0.49490  0.36020  1.0000 -0.2092835048
C   C49       1.0  0.58370  0.43430  0.68510  1.0000 0.0703004709
C   C50       1.0  0.41630  0.56570  0.31490  1.0000 0.0703004709
C   C51       1.0  0.76750  0.54772  0.48930  1.0000 -0.1913593637
C   C52       1.0  0.23250  0.45228  0.51070  1.0000 -0.1913593637
C   C53       1.0  0.94630  0.46674  0.58423  1.0000 -0.131727867
C   C54       1.0  0.05370  0.53326  0.41577  1.0000 -0.131727867
C   C55       1.0  0.95300  0.58244  0.43118  1.0000 -0.131727867
C   C56       1.0  0.04700  0.41756  0.56882  1.0000 -0.131727867
N   N1        1.0  0.49155  0.14565  0.84753  1.0000 -0.2481181623
N   N2        1.0  0.50845  0.85435  0.15247  1.0000 -0.2481181623
N   N3        1.0  0.87474  0.98783  0.01228  1.0000 -0.082147848
N   N4        1.0  0.12526  0.01217  0.98772  1.0000 -0.082147848
N   N5        1.0  0.49964  0.32983  0.63717  1.0000 -0.2481181623
N   N6        1.0  0.50036  0.67017  0.36283  1.0000 -0.2481181623
N   N7        1.0  0.86374  0.49615  0.47663  1.0000 -0.0877870956
N   N8        1.0  0.13626  0.50385  0.52337  1.0000 -0.0877870956
O   O1        1.0  0.21965  0.14934  0.52195  1.0000 -0.5880906062
O   O2        1.0  0.78035  0.85066  0.47805  1.0000 -0.5880906062
O   O3        1.0  0.22163  0.01522  0.64137  1.0000 -0.5821553843
O   O4        1.0  0.77837  0.98478  0.35863  1.0000 -0.5821553843
O   O5        1.0  0.21789  0.26228  0.78443  1.0000 -0.5726659374
O   O6        1.0  0.78211  0.73772  0.21557  1.0000 -0.5726659374
O   O7        1.0  0.41045  0.40211  0.83308  1.0000 -0.6053682642
O   O8        1.0  0.58955  0.59789  0.16692  1.0000 -0.6053682642
