# DDEC6 charges by PACMAN v1.1 (https://github.com/mtap-research/PACMAN-charge/)
data_2011[Co][flu]3[ASR]2
_chemical_formula_sum              "Co4 H16 C34 O22"
_cell_length_a       10.2067
_cell_length_b       11.1297
_cell_length_c       14.0835
_cell_angle_alpha    114.16
_cell_angle_beta     108.353
_cell_angle_gamma    85.204

_symmetry_space_group_name_H-M    "P 1"
_symmetry_Int_Tables_number       1

loop_
  _symmetry_equiv_pos_as_xyz
  'x, y, z'

loop_
  _atom_site_type_symbol
  _atom_site_label
  _atom_site_symmetry_multiplicity
  _atom_site_fract_x
  _atom_site_fract_y
  _atom_site_fract_z
  _atom_site_occupancy
  _atom_site_charge
Co  Co1       1.0  0.49430  0.35465  0.49098  1.0000 1.1718107719
Co  Co2       1.0  0.50570  0.64535  0.50902  1.0000 1.1718107719
Co  Co3       1.0  0.61382  0.38064  0.30240  1.0000 1.1718107719
Co  Co4       1.0  0.38618  0.61936  0.69760  1.0000 1.1718107719
H   H1        1.0  0.07850  0.33980  0.30650  1.0000 0.1509572018
H   H2        1.0  0.92150  0.66020  0.69350  1.0000 0.1509572018
H   H3        1.0  0.79990  0.33500  0.02570  1.0000 0.1509572018
H   H4        1.0  0.20010  0.66500  0.97430  1.0000 0.1509572018
H   H5        1.0  0.21060  0.32840  0.05920  1.0000 0.1399164681
H   H6        1.0  0.78940  0.67160  0.94080  1.0000 0.1399164681
H   H7        1.0  0.14050  0.40570  0.93570  1.0000 0.1551693637
H   H8        1.0  0.85950  0.59430  0.06430  1.0000 0.1509572018
H   H9        1.0  0.02710  0.36460  0.81690  1.0000 0.1399164681
H   H10       1.0  0.97290  0.63540  0.18310  1.0000 0.1399164681
H   H11       1.0  0.21110  0.99310  0.77400  1.0000 0.1551693637
H   H12       1.0  0.78890  0.00690  0.22600  1.0000 0.1551693637
H   H13       1.0  0.41580  0.06430  0.59690  1.0000 0.1399164681
H   H14       1.0  0.58420  0.93570  0.40310  1.0000 0.1399164681
H   H15       1.0  0.22090  0.35820  0.77850  1.0000 0.1318559047
H   H16       1.0  0.77910  0.64180  0.22150  1.0000 0.1318559047
C   C1        1.0  0.31230  0.32690  0.25780  1.0000 0.5967893858
C   C2        1.0  0.68770  0.67310  0.74220  1.0000 0.5967893858
C   C3        1.0  0.16550  0.32930  0.19140  1.0000 0.0262745056
C   C4        1.0  0.83450  0.67070  0.80860  1.0000 0.0262745056
C   C5        1.0  0.05850  0.33640  0.23480  1.0000 -0.1095355269
C   C6        1.0  0.94150  0.66360  0.76520  1.0000 -0.1095355269
C   C7        1.0  0.92290  0.33870  0.17360  1.0000 0.0138941436
C   C8        1.0  0.07710  0.66130  0.82640  1.0000 0.0138941436
C   C9        1.0  0.80730  0.34940  0.22100  1.0000 0.5446205396
C   C10       1.0  0.19270  0.65060  0.77900  1.0000 0.5446205396
C   C11       1.0  0.89280  0.33580  0.06870  1.0000 -0.2345477086
C   C12       1.0  0.10720  0.66420  0.93130  1.0000 -0.2345477086
C   C13       1.0  0.00100  0.33410  0.02860  1.0000 0.249881636
C   C14       1.0  0.99900  0.66590  0.97140  1.0000 0.249881636
C   C15       1.0  0.13770  0.33020  0.08810  1.0000 -0.2461458113
C   C16       1.0  0.86230  0.66980  0.91190  1.0000 -0.2461458113
C   C17       1.0  0.06470  0.34080  0.88050  1.0000 0.1318559047
C   C18       1.0  0.93530  0.65920  0.11950  1.0000 0.1318559047
C   C19       1.0  0.20030  0.18000  0.78280  1.0000 0.249881636
C   C20       1.0  0.79970  0.82000  0.21720  1.0000 0.249881636
C   C21       1.0  0.24050  0.05150  0.75010  1.0000 -0.1886384305
C   C22       1.0  0.75950  0.94850  0.24990  1.0000 -0.1886384305
C   C23       1.0  0.32380  0.00750  0.68250  1.0000 0.0215346884
C   C24       1.0  0.67620  0.99250  0.31750  1.0000 0.0215346884
C   C25       1.0  0.37100  0.86950  0.65060  1.0000 0.5941024084
C   C26       1.0  0.62900  0.13050  0.34940  1.0000 0.5941024084
C   C27       1.0  0.36270  0.09420  0.64610  1.0000 -0.1095355269
C   C28       1.0  0.63730  0.90580  0.35390  1.0000 -0.1095355269
C   C29       1.0  0.32420  0.22370  0.68130  1.0000 0.0215346884
C   C30       1.0  0.67580  0.77630  0.31870  1.0000 0.0215346884
C   C31       1.0  0.37230  0.31860  0.64680  1.0000 0.5967893858
C   C32       1.0  0.62770  0.68140  0.35320  1.0000 0.5967893858
C   C33       1.0  0.24450  0.26870  0.75200  1.0000 -0.2461458113
C   C34       1.0  0.75550  0.73130  0.24800  1.0000 -0.2461458113
O   O1        1.0  0.33050  0.30647  0.34347  1.0000 -0.5003818017
O   O2        1.0  0.66950  0.69353  0.65653  1.0000 -0.5003818017
O   O3        1.0  0.40600  0.34522  0.22402  1.0000 -0.5378768783
O   O4        1.0  0.59400  0.65478  0.77598  1.0000 -0.5378768783
O   O5        1.0  0.68550  0.31418  0.15888  1.0000 -0.5188596786
O   O6        1.0  0.31450  0.68582  0.84112  1.0000 -0.5188596786
O   O7        1.0  0.83670  0.39381  0.32451  1.0000 -0.5188596786
O   O8        1.0  0.16330  0.60619  0.67549  1.0000 -0.5123063069
O   O9        1.0  0.95990  0.33827  0.92557  1.0000 -0.1886384305
O   O10       1.0  0.04010  0.66173  0.07443  1.0000 -0.1886384305
O   O11       1.0  0.11350  0.20986  0.84726  1.0000 -0.1886384305
O   O12       1.0  0.88650  0.79014  0.15274  1.0000 -0.1886384305
O   O13       1.0  0.42130  0.82541  0.57231  1.0000 -0.5298730921
O   O14       1.0  0.57870  0.17459  0.42769  1.0000 -0.5298730921
O   O15       1.0  0.35640  0.80828  0.70468  1.0000 -0.5378768783
O   O16       1.0  0.64360  0.19172  0.29532  1.0000 -0.5378768783
O   O17       1.0  0.38630  0.27036  0.55116  1.0000 -0.5123063069
O   O18       1.0  0.61370  0.72964  0.44884  1.0000 -0.5123063069
O   O19       1.0  0.39450  0.43733  0.71093  1.0000 -0.5298730921
O   O20       1.0  0.60550  0.56267  0.28907  1.0000 -0.5298730921
O   O21       1.0  0.60680  0.46696  0.45646  1.0000 -0.8614015322
O   O22       1.0  0.39320  0.53304  0.54354  1.0000 -0.8547513228
