# DDEC6 charges by PACMAN v1.1 (https://github.com/mtap-research/PACMAN-charge/)
data_2011[Co][dia]3[ASR]5
_chemical_formula_sum              "Co2 H36 C44 N8 O8"
_cell_length_a       11.727
_cell_length_b       11.727
_cell_length_c       14.1389
_cell_angle_alpha    67.3432
_cell_angle_beta     112.657
_cell_angle_gamma    121.535

_symmetry_space_group_name_H-M    "P 1"
_symmetry_Int_Tables_number       1

loop_
  _symmetry_equiv_pos_as_xyz
  'x, y, z'

loop_
  _atom_site_type_symbol
  _atom_site_label
  _atom_site_symmetry_multiplicity
  _atom_site_fract_x
  _atom_site_fract_y
  _atom_site_fract_z
  _atom_site_occupancy
  _atom_site_charge
Co  Co1       1.0  0.98561  0.98561  0.75000  1.0000 0.796135194
Co  Co2       1.0  0.01439  0.01439  0.25000  1.0000 0.796135194
H   H1        1.0  0.53750  0.83690  0.64820  1.0000 0.1214580873
H   H2        1.0  0.83690  0.53750  0.85180  1.0000 0.1214580873
H   H3        1.0  0.46250  0.16310  0.35180  1.0000 0.1214580873
H   H4        1.0  0.16310  0.46250  0.14820  1.0000 0.1214580873
H   H5        1.0  0.31680  0.79220  0.54750  1.0000 0.1214580873
H   H6        1.0  0.79220  0.31680  0.95250  1.0000 0.1214580873
H   H7        1.0  0.68320  0.20780  0.45250  1.0000 0.1214580873
H   H8        1.0  0.20780  0.68320  0.04750  1.0000 0.1214580873
H   H9        1.0  0.21260  0.05160  0.96450  1.0000 0.1214580873
H   H10       1.0  0.05160  0.21260  0.53550  1.0000 0.1214580873
H   H11       1.0  0.78740  0.94840  0.03550  1.0000 0.1214580873
H   H12       1.0  0.94840  0.78740  0.46450  1.0000 0.1214580873
H   H13       1.0  0.94020  0.19720  0.80440  1.0000 0.1289321837
H   H14       1.0  0.19720  0.94020  0.69560  1.0000 0.1289321837
H   H15       1.0  0.05980  0.80280  0.19560  1.0000 0.1289321837
H   H16       1.0  0.80280  0.05980  0.30440  1.0000 0.1289321837
H   H17       1.0  0.07670  0.30170  0.95560  1.0000 0.1289321837
H   H18       1.0  0.30170  0.07670  0.54440  1.0000 0.1289321837
H   H19       1.0  0.92330  0.69830  0.04440  1.0000 0.1289321837
H   H20       1.0  0.69830  0.92330  0.45560  1.0000 0.1289321837
H   H21       1.0  0.26350  0.23890  0.13450  1.0000 0.1352984229
H   H22       1.0  0.23890  0.26350  0.36550  1.0000 0.1352984229
H   H23       1.0  0.73650  0.76110  0.86550  1.0000 0.1352984229
H   H24       1.0  0.76110  0.73650  0.63450  1.0000 0.1352984229
H   H25       1.0  0.33450  0.16690  0.11880  1.0000 0.1289321837
H   H26       1.0  0.16690  0.33450  0.38120  1.0000 0.1289321837
H   H27       1.0  0.66550  0.83310  0.88120  1.0000 0.1289321837
H   H28       1.0  0.83310  0.66550  0.61880  1.0000 0.1289321837
H   H29       1.0  0.34070  0.48670  0.06580  1.0000 0.1214580873
H   H30       1.0  0.48670  0.34070  0.43420  1.0000 0.1214580873
H   H31       1.0  0.65930  0.51330  0.93420  1.0000 0.1214580873
H   H32       1.0  0.51330  0.65930  0.56580  1.0000 0.1214580873
H   H33       1.0  0.49760  0.69900  0.99350  1.0000 0.1214580873
H   H34       1.0  0.69900  0.49760  0.50650  1.0000 0.1214580873
H   H35       1.0  0.50240  0.30100  0.00650  1.0000 0.1214580873
H   H36       1.0  0.30100  0.50240  0.49350  1.0000 0.1214580873
C   C1        1.0  0.77722  0.05298  0.62391  1.0000 0.5304121742
C   C2        1.0  0.05298  0.77722  0.87609  1.0000 0.5304121742
C   C3        1.0  0.22278  0.94702  0.37609  1.0000 0.5304121742
C   C4        1.0  0.94702  0.22278  0.12391  1.0000 0.5304121742
C   C5        1.0  0.63316  0.02684  0.56092  1.0000 -0.0237980183
C   C6        1.0  0.02684  0.63316  0.93908  1.0000 -0.0237980183
C   C7        1.0  0.36684  0.97316  0.43908  1.0000 -0.0237980183
C   C8        1.0  0.97316  0.36684  0.06092  1.0000 -0.0237980183
C   C9        1.0  0.52237  0.90263  0.58849  1.0000 -0.121500718
C   C10       1.0  0.90263  0.52237  0.91151  1.0000 -0.121500718
C   C11       1.0  0.47763  0.09737  0.41151  1.0000 -0.121500718
C   C12       1.0  0.09737  0.47763  0.08849  1.0000 -0.121500718
C   C13       1.0  0.39006  0.87554  0.52829  1.0000 -0.121500718
C   C14       1.0  0.87554  0.39006  0.97171  1.0000 -0.121500718
C   C15       1.0  0.60994  0.12446  0.47171  1.0000 -0.121500718
C   C16       1.0  0.12446  0.60994  0.02829  1.0000 -0.121500718
C   C17       1.0  0.16130  0.10034  0.94304  1.0000 0.096123475
C   C18       1.0  0.10034  0.16130  0.55696  1.0000 0.096123475
C   C19       1.0  0.83870  0.89966  0.05696  1.0000 0.096123475
C   C20       1.0  0.89966  0.83870  0.44304  1.0000 0.096123475
C   C21       1.0  0.01218  0.18082  0.85548  1.0000 -0.036889332
C   C22       1.0  0.18082  0.01218  0.64452  1.0000 -0.036889332
C   C23       1.0  0.98782  0.81918  0.14452  1.0000 -0.036889332
C   C24       1.0  0.81918  0.98782  0.35548  1.0000 -0.036889332
C   C25       1.0  0.08692  0.23868  0.93897  1.0000 -0.102317805
C   C26       1.0  0.23868  0.08692  0.56103  1.0000 -0.102317805
C   C27       1.0  0.91308  0.76132  0.06103  1.0000 -0.102317805
C   C28       1.0  0.76132  0.91308  0.43897  1.0000 -0.102317805
C   C29       1.0  0.29605  0.23275  0.08389  1.0000 -0.1744358769
C   C30       1.0  0.23275  0.29605  0.41611  1.0000 -0.1744358769
C   C31       1.0  0.70395  0.76725  0.91611  1.0000 -0.1744358769
C   C32       1.0  0.76725  0.70395  0.58389  1.0000 -0.1744358769
C   C33       1.0  0.40536  0.37204  0.04424  1.0000 0.0879168114
C   C34       1.0  0.37204  0.40536  0.45576  1.0000 0.0879168114
C   C35       1.0  0.59464  0.62796  0.95576  1.0000 0.0879168114
C   C36       1.0  0.62796  0.59464  0.54424  1.0000 0.0879168114
C   C37       1.0  0.40501  0.49179  0.03940  1.0000 -0.1443003049
C   C38       1.0  0.49179  0.40501  0.46060  1.0000 -0.1443003049
C   C39       1.0  0.59499  0.50821  0.96060  1.0000 -0.1443003049
C   C40       1.0  0.50821  0.59499  0.53940  1.0000 -0.1450103453
C   C41       1.0  0.49891  0.61929  0.99580  1.0000 -0.1443003049
C   C42       1.0  0.61929  0.49891  0.50420  1.0000 -0.1443003049
C   C43       1.0  0.50109  0.38071  0.00420  1.0000 -0.1443003049
C   C44       1.0  0.38071  0.50109  0.49580  1.0000 -0.1443003049
N   N1        1.0  0.05913  0.09379  0.85771  1.0000 -0.3131303122
N   N2        1.0  0.09379  0.05913  0.64229  1.0000 -0.3131303122
N   N3        1.0  0.94087  0.90621  0.14229  1.0000 -0.3131303122
N   N4        1.0  0.90621  0.94087  0.35771  1.0000 -0.3131303122
N   N5        1.0  0.18073  0.18657  0.99424  1.0000 0.0456097381
N   N6        1.0  0.18657  0.18073  0.50576  1.0000 0.0456097381
N   N7        1.0  0.81927  0.81343  0.00576  1.0000 0.0456097381
N   N8        1.0  0.81343  0.81927  0.49424  1.0000 0.0456097381
O   O1        1.0  0.79165  0.94689  0.68690  1.0000 -0.5525821528
O   O2        1.0  0.94689  0.79165  0.81310  1.0000 -0.5525821528
O   O3        1.0  0.20835  0.05311  0.31310  1.0000 -0.5525821528
O   O4        1.0  0.05311  0.20835  0.18690  1.0000 -0.5525821528
O   O5        1.0  0.87243  0.16991  0.61086  1.0000 -0.5525821528
O   O6        1.0  0.16991  0.87243  0.88914  1.0000 -0.5525821528
O   O7        1.0  0.12757  0.83009  0.38914  1.0000 -0.5525821528
O   O8        1.0  0.83009  0.12757  0.11086  1.0000 -0.5525821528
