# DDEC6 charges by PACMAN v1.1 (https://github.com/mtap-research/PACMAN-charge/)
data_2011[Zn][nan]3[ASR]6
_chemical_formula_sum              "Zn12 H36 C54 O48"
_cell_length_a       17.5648
_cell_length_b       17.5648
_cell_length_c       17.5648
_cell_angle_alpha    118.299
_cell_angle_beta     118.299
_cell_angle_gamma    118.299

_symmetry_space_group_name_H-M    "P 1"
_symmetry_Int_Tables_number       1

loop_
  _symmetry_equiv_pos_as_xyz
  'x, y, z'

loop_
  _atom_site_type_symbol
  _atom_site_label
  _atom_site_symmetry_multiplicity
  _atom_site_fract_x
  _atom_site_fract_y
  _atom_site_fract_z
  _atom_site_occupancy
  _atom_site_charge
Zn  Zn1       1.0  0.25513  0.54603  0.26478  1.0000 0.9856947571
Zn  Zn2       1.0  0.54603  0.26478  0.25513  1.0000 0.9856947571
Zn  Zn3       1.0  0.26478  0.25513  0.54603  1.0000 0.9856947571
Zn  Zn4       1.0  0.75513  0.76478  0.04603  1.0000 0.9856947571
Zn  Zn5       1.0  0.04603  0.75513  0.76478  1.0000 0.9856947571
Zn  Zn6       1.0  0.76478  0.04603  0.75513  1.0000 0.9856947571
Zn  Zn7       1.0  0.44170  0.90616  0.56774  1.0000 0.809393685
Zn  Zn8       1.0  0.90616  0.56774  0.44170  1.0000 0.809393685
Zn  Zn9       1.0  0.56774  0.44170  0.90616  1.0000 0.809393685
Zn  Zn10      1.0  0.94170  0.06774  0.40616  1.0000 0.809393685
Zn  Zn11      1.0  0.40616  0.94170  0.06774  1.0000 0.809393685
Zn  Zn12      1.0  0.06774  0.40616  0.94170  1.0000 0.809393685
H   H1        1.0  0.49550  0.85220  0.45300  1.0000 0.4031333437
H   H2        1.0  0.85220  0.45300  0.49550  1.0000 0.4031333437
H   H3        1.0  0.45300  0.49550  0.85220  1.0000 0.4031333437
H   H4        1.0  0.99550  0.95300  0.35220  1.0000 0.4031333437
H   H5        1.0  0.35220  0.99550  0.95300  1.0000 0.4031333437
H   H6        1.0  0.95300  0.35220  0.99550  1.0000 0.4031333437
H   H7        1.0  0.41160  0.00250  0.70220  1.0000 0.3608008733
H   H8        1.0  0.00250  0.70220  0.41160  1.0000 0.3608008733
H   H9        1.0  0.70220  0.41160  0.00250  1.0000 0.3608008733
H   H10       1.0  0.91160  0.20220  0.50250  1.0000 0.3608008733
H   H11       1.0  0.50250  0.91160  0.20220  1.0000 0.3608008733
H   H12       1.0  0.20220  0.50250  0.91160  1.0000 0.3608008733
H   H13       1.0  0.41700  0.42190  0.21150  1.0000 0.1501076033
H   H14       1.0  0.42190  0.21150  0.41700  1.0000 0.1501076033
H   H15       1.0  0.21150  0.41700  0.42190  1.0000 0.1501076033
H   H16       1.0  0.91700  0.71150  0.92190  1.0000 0.1501076033
H   H17       1.0  0.92190  0.91700  0.71150  1.0000 0.1501076033
H   H18       1.0  0.71150  0.92190  0.91700  1.0000 0.1501076033
H   H19       1.0  0.53120  0.67600  0.20410  1.0000 0.1414264327
H   H20       1.0  0.67600  0.20410  0.53120  1.0000 0.1414264327
H   H21       1.0  0.20410  0.53120  0.67600  1.0000 0.1414264327
H   H22       1.0  0.03120  0.70410  0.17600  1.0000 0.1414264327
H   H23       1.0  0.17600  0.03120  0.70410  1.0000 0.1414264327
H   H24       1.0  0.70410  0.17600  0.03120  1.0000 0.1414264327
H   H25       1.0  0.67280  0.55040  0.20730  1.0000 0.1414264327
H   H26       1.0  0.55040  0.20730  0.67280  1.0000 0.1414264327
H   H27       1.0  0.20730  0.67280  0.55040  1.0000 0.1414264327
H   H28       1.0  0.17280  0.70730  0.05040  1.0000 0.1414264327
H   H29       1.0  0.05040  0.17280  0.70730  1.0000 0.1414264327
H   H30       1.0  0.70730  0.05040  0.17280  1.0000 0.1414264327
H   H31       1.0  0.63620  0.43400  0.97060  1.0000 0.1816088493
H   H32       1.0  0.43400  0.97060  0.63620  1.0000 0.1816088493
H   H33       1.0  0.97060  0.63620  0.43400  1.0000 0.1816088493
H   H34       1.0  0.13620  0.47060  0.93400  1.0000 0.1816088493
H   H35       1.0  0.93400  0.13620  0.47060  1.0000 0.1816088493
H   H36       1.0  0.47060  0.93400  0.13620  1.0000 0.1816088493
C   C1        1.0  0.54696  0.47540  0.21104  1.0000 -0.0231248496
C   C2        1.0  0.47540  0.21104  0.54696  1.0000 -0.0231248496
C   C3        1.0  0.21104  0.54696  0.47540  1.0000 -0.0231248496
C   C4        1.0  0.04696  0.71104  0.97540  1.0000 -0.0231248496
C   C5        1.0  0.97540  0.04696  0.71104  1.0000 -0.0231248496
C   C6        1.0  0.71104  0.97540  0.04696  1.0000 -0.0231248496
C   C7        1.0  0.46008  0.54765  0.20677  1.0000 -0.0276632013
C   C8        1.0  0.54765  0.20677  0.46008  1.0000 -0.0276632013
C   C9        1.0  0.20677  0.46008  0.54765  1.0000 -0.0276632013
C   C10       1.0  0.96008  0.70677  0.04765  1.0000 -0.0276632013
C   C11       1.0  0.04765  0.96008  0.70677  1.0000 -0.0276632013
C   C12       1.0  0.70677  0.04765  0.96008  1.0000 -0.0276632013
C   C13       1.0  0.61351  0.62521  0.20408  1.0000 -0.0276632013
C   C14       1.0  0.62521  0.20408  0.61351  1.0000 -0.0276632013
C   C15       1.0  0.20408  0.61351  0.62521  1.0000 -0.0276632013
C   C16       1.0  0.11351  0.70408  0.12521  1.0000 -0.0276632013
C   C17       1.0  0.12521  0.11351  0.70408  1.0000 -0.0276632013
C   C18       1.0  0.70408  0.12521  0.11351  1.0000 -0.0276632013
C   C19       1.0  0.46643  0.47292  0.21005  1.0000 -0.0898992985
C   C20       1.0  0.47292  0.21005  0.46643  1.0000 -0.0898992985
C   C21       1.0  0.21005  0.46643  0.47292  1.0000 -0.0898992985
C   C22       1.0  0.96643  0.71005  0.97292  1.0000 -0.0898992985
C   C23       1.0  0.97292  0.96643  0.71005  1.0000 -0.0898992985
C   C24       1.0  0.71005  0.97292  0.96643  1.0000 -0.0898992985
C   C25       1.0  0.53441  0.62497  0.20482  1.0000 -0.0898992985
C   C26       1.0  0.62497  0.20482  0.53441  1.0000 -0.0898992985
C   C27       1.0  0.20482  0.53441  0.62497  1.0000 -0.0898992985
C   C28       1.0  0.03441  0.70482  0.12497  1.0000 -0.0898992985
C   C29       1.0  0.12497  0.03441  0.70482  1.0000 -0.0898992985
C   C30       1.0  0.70482  0.12497  0.03441  1.0000 -0.0898992985
C   C31       1.0  0.37119  0.54470  0.20261  1.0000 0.5790130407
C   C32       1.0  0.54470  0.20261  0.37119  1.0000 0.5790130407
C   C33       1.0  0.20261  0.37119  0.54470  1.0000 0.5790130407
C   C34       1.0  0.87119  0.70261  0.04470  1.0000 0.5790130407
C   C35       1.0  0.04470  0.87119  0.70261  1.0000 0.5790130407
C   C36       1.0  0.70261  0.04470  0.87119  1.0000 0.5790130407
C   C37       1.0  0.61984  0.55013  0.20743  1.0000 -0.0898992985
C   C38       1.0  0.55013  0.20743  0.61984  1.0000 -0.0898992985
C   C39       1.0  0.20743  0.61984  0.55013  1.0000 -0.0898992985
C   C40       1.0  0.11984  0.70743  0.05013  1.0000 -0.0898992985
C   C41       1.0  0.05013  0.11984  0.70743  1.0000 -0.0898992985
C   C42       1.0  0.70743  0.05013  0.11984  1.0000 -0.0898992985
C   C43       1.0  0.70164  0.71545  0.21111  1.0000 0.572335284
C   C44       1.0  0.71545  0.21111  0.70164  1.0000 0.572335284
C   C45       1.0  0.21111  0.70164  0.71545  1.0000 0.572335284
C   C46       1.0  0.20164  0.71111  0.21545  1.0000 0.572335284
C   C47       1.0  0.21545  0.20164  0.71111  1.0000 0.572335284
C   C48       1.0  0.71111  0.21545  0.20164  1.0000 0.572335284
C   C49       1.0  0.56327  0.40357  0.22306  1.0000 0.5790130407
C   C50       1.0  0.40357  0.22306  0.56327  1.0000 0.5790130407
C   C51       1.0  0.22306  0.56327  0.40357  1.0000 0.5790130407
C   C52       1.0  0.06327  0.72306  0.90357  1.0000 0.5790130407
C   C53       1.0  0.90357  0.06327  0.72306  1.0000 0.5790130407
C   C54       1.0  0.72306  0.90357  0.06327  1.0000 0.5790130407
O   O1        1.0  0.49293  0.83510  0.49787  1.0000 -0.8434917221
O   O2        1.0  0.83510  0.49787  0.49293  1.0000 -0.8434917221
O   O3        1.0  0.49787  0.49293  0.83510  1.0000 -0.8434917221
O   O4        1.0  0.99293  0.99787  0.33510  1.0000 -0.8434917221
O   O5        1.0  0.33510  0.99293  0.99787  1.0000 -0.8434917221
O   O6        1.0  0.99787  0.33510  0.99293  1.0000 -0.8434917221
O   O7        1.0  0.33019  0.50047  0.23234  1.0000 -0.5061939845
O   O8        1.0  0.50047  0.23234  0.33019  1.0000 -0.5061939845
O   O9        1.0  0.23234  0.33019  0.50047  1.0000 -0.5061939845
O   O10       1.0  0.83019  0.73234  0.00047  1.0000 -0.5061939845
O   O11       1.0  0.00047  0.83019  0.73234  1.0000 -0.5061939845
O   O12       1.0  0.73234  0.00047  0.83019  1.0000 -0.5061939845
O   O13       1.0  0.33931  0.58294  0.16685  1.0000 -0.5375485808
O   O14       1.0  0.58294  0.16685  0.33931  1.0000 -0.5375485808
O   O15       1.0  0.16685  0.33931  0.58294  1.0000 -0.5375485808
O   O16       1.0  0.83931  0.66685  0.08294  1.0000 -0.5375485808
O   O17       1.0  0.08294  0.83931  0.66685  1.0000 -0.5375485808
O   O18       1.0  0.66685  0.08294  0.83931  1.0000 -0.5375485808
O   O19       1.0  0.49333  0.33362  0.22345  1.0000 -0.5061939845
O   O20       1.0  0.33362  0.22345  0.49333  1.0000 -0.5061939845
O   O21       1.0  0.22345  0.49333  0.33362  1.0000 -0.5061939845
O   O22       1.0  0.99333  0.72345  0.83362  1.0000 -0.5061939845
O   O23       1.0  0.83362  0.99333  0.72345  1.0000 -0.5061939845
O   O24       1.0  0.72345  0.83362  0.99333  1.0000 -0.5061939845
O   O25       1.0  0.64333  0.41445  0.23112  1.0000 -0.52138697
O   O26       1.0  0.41445  0.23112  0.64333  1.0000 -0.52138697
O   O27       1.0  0.23112  0.64333  0.41445  1.0000 -0.52138697
O   O28       1.0  0.14333  0.73112  0.91445  1.0000 -0.52138697
O   O29       1.0  0.91445  0.14333  0.73112  1.0000 -0.52138697
O   O30       1.0  0.73112  0.91445  0.14333  1.0000 -0.52138697
O   O31       1.0  0.38880  0.97573  0.63297  1.0000 -0.573651581
O   O32       1.0  0.97573  0.63297  0.38880  1.0000 -0.573651581
O   O33       1.0  0.63297  0.38880  0.97573  1.0000 -0.573651581
O   O34       1.0  0.88880  0.13297  0.47573  1.0000 -0.573651581
O   O35       1.0  0.47573  0.88880  0.13297  1.0000 -0.573651581
O   O36       1.0  0.13297  0.47573  0.88880  1.0000 -0.573651581
O   O37       1.0  0.75761  0.70102  0.19387  1.0000 -0.5459504018
O   O38       1.0  0.70102  0.19387  0.75761  1.0000 -0.5459504018
O   O39       1.0  0.19387  0.75761  0.70102  1.0000 -0.5459504018
O   O40       1.0  0.25761  0.69387  0.20102  1.0000 -0.5459504018
O   O41       1.0  0.20102  0.25761  0.69387  1.0000 -0.5459504018
O   O42       1.0  0.69387  0.20102  0.25761  1.0000 -0.5459504018
O   O43       1.0  0.71678  0.80796  0.23876  1.0000 -0.52138697
O   O44       1.0  0.80796  0.23876  0.71678  1.0000 -0.52138697
O   O45       1.0  0.23876  0.71678  0.80796  1.0000 -0.52138697
O   O46       1.0  0.21678  0.73876  0.30796  1.0000 -0.52138697
O   O47       1.0  0.30796  0.21678  0.73876  1.0000 -0.52138697
O   O48       1.0  0.73876  0.30796  0.21678  1.0000 -0.52138697
