# DDEC6 charges by PACMAN v1.1 (https://github.com/mtap-research/PACMAN-charge/)
data_2011[Cu][pts]3[ASR]3
_chemical_formula_sum              "Cu8 H64 C112 O40"
_cell_length_a       15.3862
_cell_length_b       15.3862
_cell_length_c       20.808
_cell_angle_alpha    85.3516
_cell_angle_beta     94.6484
_cell_angle_gamma    117.138

_symmetry_space_group_name_H-M    "P 1"
_symmetry_Int_Tables_number       1

loop_
  _symmetry_equiv_pos_as_xyz
  'x, y, z'

loop_
  _atom_site_type_symbol
  _atom_site_label
  _atom_site_symmetry_multiplicity
  _atom_site_fract_x
  _atom_site_fract_y
  _atom_site_fract_z
  _atom_site_occupancy
  _atom_site_charge
Cu  Cu1       1.0  0.99215  0.01033  0.68631  1.0000 0.8616258115
Cu  Cu2       1.0  0.01033  0.99215  0.81369  1.0000 0.8616258115
Cu  Cu3       1.0  0.00785  0.98967  0.31369  1.0000 0.8616258115
Cu  Cu4       1.0  0.98967  0.00785  0.18631  1.0000 0.8616258115
Cu  Cu5       1.0  0.55865  0.95879  0.50305  1.0000 0.8268519849
Cu  Cu6       1.0  0.95879  0.55865  0.99695  1.0000 0.8268519849
Cu  Cu7       1.0  0.44135  0.04121  0.49695  1.0000 0.8268519849
Cu  Cu8       1.0  0.04121  0.44135  0.00305  1.0000 0.8268519849
H   H1        1.0  0.97090  0.69270  0.82110  1.0000 0.1293201757
H   H2        1.0  0.69270  0.97090  0.67890  1.0000 0.1293201757
H   H3        1.0  0.02910  0.30730  0.17890  1.0000 0.1293201757
H   H4        1.0  0.30730  0.02910  0.32110  1.0000 0.1293201757
H   H5        1.0  0.94870  0.53450  0.80930  1.0000 0.1379200429
H   H6        1.0  0.53450  0.94870  0.69070  1.0000 0.1379200429
H   H7        1.0  0.05130  0.46550  0.19070  1.0000 0.1379200429
H   H8        1.0  0.46550  0.05130  0.30930  1.0000 0.1379200429
H   H9        1.0  0.92060  0.72280  0.63100  1.0000 0.1233080103
H   H10       1.0  0.72280  0.92060  0.86900  1.0000 0.1233080103
H   H11       1.0  0.07940  0.27720  0.36900  1.0000 0.1233080103
H   H12       1.0  0.27720  0.07940  0.13100  1.0000 0.1233080103
H   H13       1.0  0.89750  0.56470  0.61750  1.0000 0.1293201757
H   H14       1.0  0.56470  0.89750  0.88250  1.0000 0.1293201757
H   H15       1.0  0.10250  0.43530  0.38250  1.0000 0.1293201757
H   H16       1.0  0.43530  0.10250  0.11750  1.0000 0.1293201757
H   H17       1.0  0.74490  0.42650  0.65470  1.0000 0.1293201757
H   H18       1.0  0.42650  0.74490  0.84530  1.0000 0.1293201757
H   H19       1.0  0.25510  0.57350  0.34530  1.0000 0.1293201757
H   H20       1.0  0.57350  0.25510  0.15470  1.0000 0.1293201757
H   H21       1.0  0.79580  0.15560  0.63210  1.0000 0.1293201757
H   H22       1.0  0.15560  0.79580  0.86790  1.0000 0.1293201757
H   H23       1.0  0.20420  0.84440  0.36790  1.0000 0.1293201757
H   H24       1.0  0.84440  0.20420  0.13210  1.0000 0.1293201757
H   H25       1.0  0.13360  0.72380  0.70460  1.0000 0.1293201757
H   H26       1.0  0.72380  0.13360  0.79540  1.0000 0.1293201757
H   H27       1.0  0.86640  0.27620  0.29540  1.0000 0.1293201757
H   H28       1.0  0.27620  0.86640  0.20460  1.0000 0.1293201757
H   H29       1.0  0.10530  0.45710  0.85040  1.0000 0.1379200429
H   H30       1.0  0.45710  0.10530  0.64960  1.0000 0.1379200429
H   H31       1.0  0.89470  0.54290  0.14960  1.0000 0.1379200429
H   H32       1.0  0.54290  0.89470  0.35040  1.0000 0.1379200429
H   H33       1.0  0.23890  0.85250  0.63930  1.0000 0.1293201757
H   H34       1.0  0.85250  0.23890  0.86070  1.0000 0.1293201757
H   H35       1.0  0.76110  0.14750  0.36070  1.0000 0.1293201757
H   H36       1.0  0.14750  0.76110  0.13930  1.0000 0.1293201757
H   H37       1.0  0.11380  0.31860  0.66330  1.0000 0.1293201757
H   H38       1.0  0.31860  0.11380  0.83670  1.0000 0.1293201757
H   H39       1.0  0.88620  0.68140  0.33670  1.0000 0.1293201757
H   H40       1.0  0.68140  0.88620  0.16330  1.0000 0.1293201757
H   H41       1.0  0.05850  0.29190  0.85100  1.0000 0.1293201757
H   H42       1.0  0.29190  0.05850  0.64900  1.0000 0.1293201757
H   H43       1.0  0.94150  0.70810  0.14900  1.0000 0.1293201757
H   H44       1.0  0.70810  0.94150  0.35100  1.0000 0.1293201757
H   H45       1.0  0.91360  0.28820  0.68480  1.0000 0.1293201757
H   H46       1.0  0.28820  0.91360  0.81520  1.0000 0.1293201757
H   H47       1.0  0.08640  0.71180  0.31520  1.0000 0.1293201757
H   H48       1.0  0.71180  0.08640  0.18480  1.0000 0.1293201757
H   H49       1.0  0.32220  0.60940  0.71880  1.0000 0.1293201757
H   H50       1.0  0.60940  0.32220  0.78120  1.0000 0.1293201757
H   H51       1.0  0.67780  0.39060  0.28120  1.0000 0.1293201757
H   H52       1.0  0.39060  0.67780  0.21880  1.0000 0.1293201757
H   H53       1.0  0.62740  0.29240  0.60220  1.0000 0.1233080103
H   H54       1.0  0.29240  0.62740  0.89780  1.0000 0.1233080103
H   H55       1.0  0.37260  0.70760  0.39780  1.0000 0.1233080103
H   H56       1.0  0.70760  0.37260  0.10220  1.0000 0.1233080103
H   H57       1.0  0.42450  0.73430  0.65190  1.0000 0.1233080103
H   H58       1.0  0.73430  0.42450  0.84810  1.0000 0.1233080103
H   H59       1.0  0.57550  0.26570  0.34810  1.0000 0.1233080103
H   H60       1.0  0.26570  0.57550  0.15190  1.0000 0.1293201757
H   H61       1.0  0.15960  0.48340  0.66190  1.0000 0.1379200429
H   H62       1.0  0.48340  0.15960  0.83810  1.0000 0.1379200429
H   H63       1.0  0.84040  0.51660  0.33810  1.0000 0.1379200429
H   H64       1.0  0.51660  0.84040  0.16190  1.0000 0.1379200429
C   C1        1.0  0.96220  0.82560  0.73480  1.0000 0.5797062576
C   C2        1.0  0.82560  0.96220  0.76520  1.0000 0.5797062576
C   C3        1.0  0.03780  0.17440  0.26520  1.0000 0.5797062576
C   C4        1.0  0.17440  0.03780  0.23480  1.0000 0.5797062576
C   C5        1.0  0.94670  0.72370  0.72650  1.0000 -0.0472442526
C   C6        1.0  0.72370  0.94670  0.77350  1.0000 -0.0472442526
C   C7        1.0  0.05330  0.27630  0.27350  1.0000 -0.0472442526
C   C8        1.0  0.27630  0.05330  0.22650  1.0000 -0.0472442526
C   C9        1.0  0.95590  0.66690  0.78040  1.0000 -0.0782601931
C   C10       1.0  0.66690  0.95590  0.71960  1.0000 -0.0782601931
C   C11       1.0  0.04410  0.33310  0.21960  1.0000 -0.0782601931
C   C12       1.0  0.33310  0.04410  0.28040  1.0000 -0.0782601931
C   C13       1.0  0.94250  0.57210  0.77350  1.0000 -0.2009256968
C   C14       1.0  0.57210  0.94250  0.72650  1.0000 -0.2009256968
C   C15       1.0  0.05750  0.42790  0.22650  1.0000 -0.2009256968
C   C16       1.0  0.42790  0.05750  0.27350  1.0000 -0.2009256968
C   C17       1.0  0.92570  0.68490  0.66680  1.0000 -0.0782601931
C   C18       1.0  0.68490  0.92570  0.83320  1.0000 -0.0782601931
C   C19       1.0  0.07430  0.31510  0.33320  1.0000 -0.0782601931
C   C20       1.0  0.31510  0.07430  0.16680  1.0000 -0.0782601931
C   C21       1.0  0.91180  0.59020  0.65830  1.0000 -0.2302523567
C   C22       1.0  0.59020  0.91180  0.84170  1.0000 -0.2302523567
C   C23       1.0  0.08820  0.40980  0.34170  1.0000 -0.2302523567
C   C24       1.0  0.40980  0.08820  0.15830  1.0000 -0.2302523567
C   C25       1.0  0.92010  0.53470  0.71290  1.0000 0.2607064555
C   C26       1.0  0.53470  0.92010  0.78710  1.0000 0.2607064555
C   C27       1.0  0.07990  0.46530  0.28710  1.0000 0.2607064555
C   C28       1.0  0.46530  0.07990  0.21290  1.0000 0.2607064555
C   C29       1.0  0.84100  0.37060  0.67410  1.0000 0.2607064555
C   C30       1.0  0.37060  0.84100  0.82590  1.0000 0.2607064555
C   C31       1.0  0.15900  0.62940  0.32590  1.0000 0.2607064555
C   C32       1.0  0.62940  0.15900  0.17410  1.0000 0.2607064555
C   C33       1.0  0.75540  0.37240  0.64990  1.0000 -0.2302523567
C   C34       1.0  0.37240  0.75540  0.85010  1.0000 -0.2302523567
C   C35       1.0  0.24460  0.62760  0.35010  1.0000 -0.2302523567
C   C36       1.0  0.62760  0.24460  0.14990  1.0000 -0.2302523567
C   C37       1.0  0.04930  0.18090  0.75660  1.0000 0.5797062576
C   C38       1.0  0.18090  0.04930  0.74340  1.0000 0.5797062576
C   C39       1.0  0.95070  0.81910  0.24340  1.0000 0.5797062576
C   C40       1.0  0.81910  0.95070  0.25660  1.0000 0.5797062576
C   C41       1.0  0.78570  0.20990  0.63620  1.0000 -0.0782601931
C   C42       1.0  0.20990  0.78570  0.86380  1.0000 -0.0782601931
C   C43       1.0  0.21430  0.79010  0.36380  1.0000 -0.0782601931
C   C44       1.0  0.79010  0.21430  0.13620  1.0000 -0.0782601931
C   C45       1.0  0.62520  0.12660  0.57420  1.0000 0.5700232894
C   C46       1.0  0.12660  0.62520  0.92580  1.0000 0.5700232894
C   C47       1.0  0.37480  0.87340  0.42580  1.0000 0.5700232894
C   C48       1.0  0.87340  0.37480  0.07420  1.0000 0.5700232894
C   C49       1.0  0.40520  0.88300  0.58970  1.0000 0.5627161771
C   C50       1.0  0.88300  0.40520  0.91030  1.0000 0.5627161771
C   C51       1.0  0.59480  0.11700  0.41030  1.0000 0.5627161771
C   C52       1.0  0.11700  0.59480  0.08970  1.0000 0.5627161771
C   C53       1.0  0.08100  0.28800  0.75720  1.0000 -0.0472442526
C   C54       1.0  0.28800  0.08100  0.74280  1.0000 -0.0472442526
C   C55       1.0  0.91900  0.71200  0.24280  1.0000 -0.0472442526
C   C56       1.0  0.71200  0.91900  0.25720  1.0000 -0.0472442526
C   C57       1.0  0.19220  0.72620  0.69380  1.0000 -0.1947930842
C   C58       1.0  0.72620  0.19220  0.80620  1.0000 -0.1947930842
C   C59       1.0  0.80780  0.27380  0.30620  1.0000 -0.1947930842
C   C60       1.0  0.27380  0.80780  0.19380  1.0000 -0.1947930842
C   C61       1.0  0.10610  0.42870  0.81280  1.0000 -0.2009256968
C   C62       1.0  0.42870  0.10610  0.68720  1.0000 -0.2009256968
C   C63       1.0  0.89390  0.57130  0.18720  1.0000 -0.2009256968
C   C64       1.0  0.57130  0.89390  0.31280  1.0000 -0.2009256968
C   C65       1.0  0.21740  0.65360  0.71680  1.0000 0.2466048808
C   C66       1.0  0.65360  0.21740  0.78320  1.0000 0.2466048808
C   C67       1.0  0.78260  0.34640  0.28320  1.0000 0.2466048808
C   C68       1.0  0.34640  0.78260  0.21680  1.0000 0.2466048808
C   C69       1.0  0.25500  0.80280  0.65430  1.0000 -0.0782601931
C   C70       1.0  0.80280  0.25500  0.84570  1.0000 -0.0782601931
C   C71       1.0  0.74500  0.19720  0.34570  1.0000 -0.0782601931
C   C72       1.0  0.19720  0.74500  0.15430  1.0000 -0.0782601931
C   C73       1.0  0.34130  0.80550  0.63720  1.0000 -0.0352297235
C   C74       1.0  0.80550  0.34130  0.86280  1.0000 -0.0352297235
C   C75       1.0  0.65870  0.19450  0.36280  1.0000 -0.0352297235
C   C76       1.0  0.19450  0.65870  0.13720  1.0000 -0.0352297235
C   C77       1.0  0.69940  0.21060  0.61040  1.0000 -0.0472442526
C   C78       1.0  0.21060  0.69940  0.88960  1.0000 -0.0472442526
C   C79       1.0  0.30060  0.78940  0.38960  1.0000 -0.0472442526
C   C80       1.0  0.78940  0.30060  0.11040  1.0000 -0.0472442526
C   C81       1.0  0.11170  0.34670  0.70070  1.0000 -0.0782601931
C   C82       1.0  0.34670  0.11170  0.79930  1.0000 -0.0782601931
C   C83       1.0  0.88830  0.65330  0.29930  1.0000 -0.0782601931
C   C84       1.0  0.65330  0.88830  0.20070  1.0000 -0.0782601931
C   C85       1.0  0.07870  0.33030  0.81310  1.0000 -0.0782601931
C   C86       1.0  0.33030  0.07870  0.68690  1.0000 -0.0782601931
C   C87       1.0  0.92130  0.66970  0.18690  1.0000 -0.0782601931
C   C88       1.0  0.66970  0.92130  0.31310  1.0000 -0.0782601931
C   C89       1.0  0.85620  0.28920  0.66780  1.0000 -0.2009256968
C   C90       1.0  0.28920  0.85620  0.83220  1.0000 -0.2009256968
C   C91       1.0  0.14380  0.71080  0.33220  1.0000 -0.2009256968
C   C92       1.0  0.71080  0.14380  0.16780  1.0000 -0.2009256968
C   C93       1.0  0.30470  0.65750  0.70190  1.0000 -0.2144070952
C   C94       1.0  0.65750  0.30470  0.79810  1.0000 -0.2144070952
C   C95       1.0  0.69530  0.34250  0.29810  1.0000 -0.2144070952
C   C96       1.0  0.34250  0.69530  0.20190  1.0000 -0.2144070952
C   C97       1.0  0.68530  0.29190  0.61840  1.0000 -0.068231219
C   C98       1.0  0.29190  0.68530  0.88160  1.0000 -0.068231219
C   C99       1.0  0.31470  0.70810  0.38160  1.0000 -0.068231219
C   C100      1.0  0.70810  0.31470  0.11840  1.0000 -0.068231219
C   C101      1.0  0.36590  0.73230  0.66220  1.0000 -0.0782601931
C   C102      1.0  0.73230  0.36590  0.83780  1.0000 -0.0782601931
C   C103      1.0  0.63410  0.26770  0.33780  1.0000 -0.0782601931
C   C104      1.0  0.26770  0.63410  0.16220  1.0000 -0.0782601931
C   C105      1.0  0.13510  0.48570  0.75560  1.0000 0.2607064555
C   C106      1.0  0.48570  0.13510  0.74440  1.0000 0.2607064555
C   C107      1.0  0.86490  0.51430  0.24440  1.0000 0.2607064555
C   C108      1.0  0.51430  0.86490  0.25560  1.0000 0.2607064555
C   C109      1.0  0.13880  0.44480  0.69970  1.0000 -0.2187504038
C   C110      1.0  0.44480  0.13880  0.80030  1.0000 -0.2187504038
C   C111      1.0  0.86120  0.55520  0.30030  1.0000 -0.2187504038
C   C112      1.0  0.55520  0.86120  0.19970  1.0000 -0.2187504038
O   O1        1.0  0.95273  0.87227  0.68387  1.0000 -0.509542037
O   O2        1.0  0.87227  0.95273  0.81613  1.0000 -0.509542037
O   O3        1.0  0.04727  0.12773  0.31613  1.0000 -0.509542037
O   O4        1.0  0.12773  0.04727  0.18387  1.0000 -0.509542037
O   O5        1.0  0.98360  0.85800  0.79056  1.0000 -0.5373279541
O   O6        1.0  0.85800  0.98360  0.70944  1.0000 -0.5373279541
O   O7        1.0  0.01640  0.14200  0.20944  1.0000 -0.5373279541
O   O8        1.0  0.14200  0.01640  0.29056  1.0000 -0.5373279541
O   O9        1.0  0.91561  0.44359  0.70920  1.0000 -0.2144070952
O   O10       1.0  0.44359  0.91561  0.79080  1.0000 -0.2144070952
O   O11       1.0  0.08439  0.55641  0.29080  1.0000 -0.2144070952
O   O12       1.0  0.55641  0.08439  0.20920  1.0000 -0.2144070952
O   O13       1.0  0.48022  0.87778  0.57460  1.0000 -0.509542037
O   O14       1.0  0.87778  0.48022  0.92540  1.0000 -0.509542037
O   O15       1.0  0.51978  0.12222  0.42540  1.0000 -0.509542037
O   O16       1.0  0.12222  0.51978  0.07460  1.0000 -0.509542037
O   O17       1.0  0.54623  0.13017  0.55547  1.0000 -0.5373279541
O   O18       1.0  0.13017  0.54623  0.94453  1.0000 -0.5373279541
O   O19       1.0  0.45377  0.86983  0.44453  1.0000 -0.5373279541
O   O20       1.0  0.86983  0.45377  0.05547  1.0000 -0.5373279541
O   O21       1.0  0.03892  0.14708  0.70129  1.0000 -0.5299365013
O   O22       1.0  0.14708  0.03892  0.79871  1.0000 -0.5299365013
O   O23       1.0  0.96108  0.85292  0.29871  1.0000 -0.5299365013
O   O24       1.0  0.85292  0.96108  0.20129  1.0000 -0.5299365013
O   O25       1.0  0.03403  0.13117  0.80937  1.0000 -0.5185597628
O   O26       1.0  0.13117  0.03403  0.69063  1.0000 -0.5185597628
O   O27       1.0  0.96597  0.86883  0.19063  1.0000 -0.5185597628
O   O28       1.0  0.86883  0.96597  0.30937  1.0000 -0.5185597628
O   O29       1.0  0.64583  0.05857  0.56333  1.0000 -0.509542037
O   O30       1.0  0.05857  0.64583  0.93667  1.0000 -0.509542037
O   O31       1.0  0.35417  0.94143  0.43667  1.0000 -0.509542037
O   O32       1.0  0.94143  0.35417  0.06333  1.0000 -0.509542037
O   O33       1.0  0.37784  0.94636  0.56814  1.0000 -0.5185597628
O   O34       1.0  0.94636  0.37784  0.93186  1.0000 -0.5185597628
O   O35       1.0  0.62216  0.05364  0.43186  1.0000 -0.5185597628
O   O36       1.0  0.05364  0.62216  0.06814  1.0000 -0.5185597628
O   O37       1.0  0.15319  0.58201  0.75810  1.0000 -0.2187504038
O   O38       1.0  0.58201  0.15319  0.74190  1.0000 -0.2187504038
O   O39       1.0  0.84681  0.41799  0.24190  1.0000 -0.2187504038
O   O40       1.0  0.41799  0.84681  0.25810  1.0000 -0.2187504038
