# DDEC6 charges by PACMAN v1.1 (https://github.com/mtap-research/PACMAN-charge/)
data_2011[Zn][nan]3[ASR]16
_chemical_formula_sum              "Zn12 H60 C78 N36 O24"
_cell_length_a       19.1847
_cell_length_b       19.1847
_cell_length_c       19.1847
_cell_angle_alpha    117.903
_cell_angle_beta     117.903
_cell_angle_gamma    117.903

_symmetry_space_group_name_H-M    "P 1"
_symmetry_Int_Tables_number       1

loop_
  _symmetry_equiv_pos_as_xyz
  'x, y, z'

loop_
  _atom_site_type_symbol
  _atom_site_label
  _atom_site_symmetry_multiplicity
  _atom_site_fract_x
  _atom_site_fract_y
  _atom_site_fract_z
  _atom_site_occupancy
  _atom_site_charge
Zn  Zn1       1.0  0.14765  0.69243  0.09869  1.0000 0.6958464977
Zn  Zn2       1.0  0.69243  0.09869  0.14765  1.0000 0.6958464977
Zn  Zn3       1.0  0.09869  0.14765  0.69243  1.0000 0.6958464977
Zn  Zn4       1.0  0.85235  0.30757  0.90131  1.0000 0.6958464977
Zn  Zn5       1.0  0.30757  0.90131  0.85235  1.0000 0.6958464977
Zn  Zn6       1.0  0.90131  0.85235  0.30757  1.0000 0.6958464977
Zn  Zn7       1.0  0.54035  0.05363  0.35258  1.0000 0.7057631609
Zn  Zn8       1.0  0.05363  0.35258  0.54035  1.0000 0.7057631609
Zn  Zn9       1.0  0.35258  0.54035  0.05363  1.0000 0.7057631609
Zn  Zn10      1.0  0.45965  0.94637  0.64742  1.0000 0.7057631609
Zn  Zn11      1.0  0.94637  0.64742  0.45965  1.0000 0.7057631609
Zn  Zn12      1.0  0.64742  0.45965  0.94637  1.0000 0.7057631609
H   H1        1.0  0.85970  0.62130  0.81010  1.0000 0.1189313403
H   H2        1.0  0.62130  0.81010  0.85970  1.0000 0.1189313403
H   H3        1.0  0.81010  0.85970  0.62130  1.0000 0.1189313403
H   H4        1.0  0.14030  0.37870  0.18990  1.0000 0.1189313403
H   H5        1.0  0.37870  0.18990  0.14030  1.0000 0.1189313403
H   H6        1.0  0.18990  0.14030  0.37870  1.0000 0.1189313403
H   H7        1.0  0.59900  0.35410  0.52470  1.0000 0.1189313403
H   H8        1.0  0.35410  0.52470  0.59900  1.0000 0.1189313403
H   H9        1.0  0.52470  0.59900  0.35410  1.0000 0.1189313403
H   H10       1.0  0.40100  0.64590  0.47530  1.0000 0.1189313403
H   H11       1.0  0.64590  0.47530  0.40100  1.0000 0.1189313403
H   H12       1.0  0.47530  0.40100  0.64590  1.0000 0.1189313403
H   H13       1.0  0.56700  0.26770  0.36230  1.0000 0.1189313403
H   H14       1.0  0.26770  0.36230  0.56700  1.0000 0.1189313403
H   H15       1.0  0.36230  0.56700  0.26770  1.0000 0.1189313403
H   H16       1.0  0.43300  0.73230  0.63770  1.0000 0.1189313403
H   H17       1.0  0.73230  0.63770  0.43300  1.0000 0.1189313403
H   H18       1.0  0.63770  0.43300  0.73230  1.0000 0.1189313403
H   H19       1.0  0.79660  0.44620  0.48430  1.0000 0.1128320314
H   H20       1.0  0.44620  0.48430  0.79660  1.0000 0.1128320314
H   H21       1.0  0.48430  0.79660  0.44620  1.0000 0.1128320314
H   H22       1.0  0.20340  0.55380  0.51570  1.0000 0.1128320314
H   H23       1.0  0.55380  0.51570  0.20340  1.0000 0.1128320314
H   H24       1.0  0.51570  0.20340  0.55380  1.0000 0.1128320314
H   H25       1.0  0.22610  0.94620  0.04520  1.0000 0.1383439597
H   H26       1.0  0.94620  0.04520  0.22610  1.0000 0.1383439597
H   H27       1.0  0.04520  0.22610  0.94620  1.0000 0.1383439597
H   H28       1.0  0.77390  0.05380  0.95480  1.0000 0.1383439597
H   H29       1.0  0.05380  0.95480  0.77390  1.0000 0.1383439597
H   H30       1.0  0.95480  0.77390  0.05380  1.0000 0.1383439597
H   H31       1.0  0.14170  0.88970  0.05110  1.0000 0.1383439597
H   H32       1.0  0.88970  0.05110  0.14170  1.0000 0.1383439597
H   H33       1.0  0.05110  0.14170  0.88970  1.0000 0.1383439597
H   H34       1.0  0.85830  0.11030  0.94890  1.0000 0.1383439597
H   H35       1.0  0.11030  0.94890  0.85830  1.0000 0.1383439597
H   H36       1.0  0.94890  0.85830  0.11030  1.0000 0.1383439597
H   H37       1.0  0.18090  0.53300  0.04520  1.0000 0.1290879743
H   H38       1.0  0.53300  0.04520  0.18090  1.0000 0.1290879743
H   H39       1.0  0.04520  0.18090  0.53300  1.0000 0.1290879743
H   H40       1.0  0.81910  0.46700  0.95480  1.0000 0.1290879743
H   H41       1.0  0.46700  0.95480  0.81910  1.0000 0.1290879743
H   H42       1.0  0.95480  0.81910  0.46700  1.0000 0.1290879743
H   H43       1.0  0.56850  0.88870  0.27480  1.0000 0.1128320314
H   H44       1.0  0.88870  0.27480  0.56850  1.0000 0.1128320314
H   H45       1.0  0.27480  0.56850  0.88870  1.0000 0.1128320314
H   H46       1.0  0.43150  0.11130  0.72520  1.0000 0.1128320314
H   H47       1.0  0.11130  0.72520  0.43150  1.0000 0.1128320314
H   H48       1.0  0.72520  0.43150  0.11130  1.0000 0.1128320314
H   H49       1.0  0.62100  0.08250  0.55770  1.0000 0.1128320314
H   H50       1.0  0.08250  0.55770  0.62100  1.0000 0.1128320314
H   H51       1.0  0.55770  0.62100  0.08250  1.0000 0.1128320314
H   H52       1.0  0.37900  0.91750  0.44230  1.0000 0.1128320314
H   H53       1.0  0.91750  0.44230  0.37900  1.0000 0.1128320314
H   H54       1.0  0.44230  0.37900  0.91750  1.0000 0.1128320314
H   H55       1.0  0.87740  0.44950  0.73410  1.0000 0.1189313403
H   H56       1.0  0.44950  0.73410  0.87740  1.0000 0.1189313403
H   H57       1.0  0.73410  0.87740  0.44950  1.0000 0.1189313403
H   H58       1.0  0.12260  0.55050  0.26590  1.0000 0.1189313403
H   H59       1.0  0.55050  0.26590  0.12260  1.0000 0.1189313403
H   H60       1.0  0.26590  0.12260  0.55050  1.0000 0.1189313403
C   C1        1.0  0.96882  0.64183  0.72335  1.0000 -0.0821606297
C   C2        1.0  0.64183  0.72335  0.96882  1.0000 -0.0821606297
C   C3        1.0  0.72335  0.96882  0.64183  1.0000 -0.0821606297
C   C4        1.0  0.03118  0.35817  0.27665  1.0000 -0.0821606297
C   C5        1.0  0.35817  0.27665  0.03118  1.0000 -0.0821606297
C   C6        1.0  0.27665  0.03118  0.35817  1.0000 -0.0821606297
C   C7        1.0  0.98996  0.69508  0.82296  1.0000 0.1482537472
C   C8        1.0  0.69508  0.82296  0.98996  1.0000 0.1482537472
C   C9        1.0  0.82296  0.98996  0.69508  1.0000 0.1482537472
C   C10       1.0  0.01004  0.30492  0.17704  1.0000 0.1482537472
C   C11       1.0  0.30492  0.17704  0.01004  1.0000 0.1482537472
C   C12       1.0  0.17704  0.01004  0.30492  1.0000 0.1482537472
C   C13       1.0  0.84872  0.58642  0.74586  1.0000 -0.1625288977
C   C14       1.0  0.58642  0.74586  0.84872  1.0000 -0.1625288977
C   C15       1.0  0.74586  0.84872  0.58642  1.0000 -0.1625288977
C   C16       1.0  0.15128  0.41358  0.25414  1.0000 -0.1625288977
C   C17       1.0  0.41358  0.25414  0.15128  1.0000 -0.1625288977
C   C18       1.0  0.25414  0.15128  0.41358  1.0000 -0.1625288977
C   C19       1.0  0.69131  0.42609  0.57370  1.0000 -0.0896020088
C   C20       1.0  0.42609  0.57370  0.69131  1.0000 -0.0896020088
C   C21       1.0  0.57370  0.69131  0.42609  1.0000 -0.0896020088
C   C22       1.0  0.30869  0.57391  0.42630  1.0000 -0.0896020088
C   C23       1.0  0.57391  0.42630  0.30869  1.0000 -0.0896020088
C   C24       1.0  0.42630  0.30869  0.57391  1.0000 -0.0896020088
C   C25       1.0  0.67209  0.37436  0.47695  1.0000 -0.1065742042
C   C26       1.0  0.37436  0.47695  0.67209  1.0000 -0.1065742042
C   C27       1.0  0.47695  0.67209  0.37436  1.0000 -0.1065742042
C   C28       1.0  0.32791  0.62564  0.52305  1.0000 -0.1065742042
C   C29       1.0  0.62564  0.52305  0.32791  1.0000 -0.1065742042
C   C30       1.0  0.52305  0.32791  0.62564  1.0000 -0.1065742042
C   C31       1.0  0.80955  0.48107  0.55018  1.0000 -0.1200693998
C   C32       1.0  0.48107  0.55018  0.80955  1.0000 -0.1200693998
C   C33       1.0  0.55018  0.80955  0.48107  1.0000 -0.1200693998
C   C34       1.0  0.19045  0.51893  0.44982  1.0000 -0.1200693998
C   C35       1.0  0.51893  0.44982  0.19045  1.0000 -0.1200693998
C   C36       1.0  0.44982  0.19045  0.51893  1.0000 -0.1200693998
C   C37       1.0  0.10950  0.74785  0.78955  1.0000 0.5516332384
C   C38       1.0  0.74785  0.78955  0.10950  1.0000 0.5516332384
C   C39       1.0  0.78955  0.10950  0.74785  1.0000 0.5516332384
C   C40       1.0  0.89050  0.25215  0.21045  1.0000 0.5516332384
C   C41       1.0  0.25215  0.21045  0.89050  1.0000 0.5516332384
C   C42       1.0  0.21045  0.89050  0.25215  1.0000 0.5516332384
C   C43       1.0  0.15717  0.86318  0.01055  1.0000 -0.396279842
C   C44       1.0  0.86318  0.01055  0.15717  1.0000 -0.396279842
C   C45       1.0  0.01055  0.15717  0.86318  1.0000 -0.396279842
C   C46       1.0  0.84283  0.13682  0.98945  1.0000 -0.396279842
C   C47       1.0  0.13682  0.98945  0.84283  1.0000 -0.396279842
C   C48       1.0  0.98945  0.84283  0.13682  1.0000 -0.396279842
C   C49       1.0  0.24711  0.87301  0.08928  1.0000 0.6554891464
C   C50       1.0  0.87301  0.08928  0.24711  1.0000 0.6554891464
C   C51       1.0  0.08928  0.24711  0.87301  1.0000 0.6554891464
C   C52       1.0  0.75289  0.12699  0.91072  1.0000 0.6554891464
C   C53       1.0  0.12699  0.91072  0.75289  1.0000 0.6554891464
C   C54       1.0  0.91072  0.75289  0.12699  1.0000 0.6554891464
C   C55       1.0  0.26831  0.62981  0.10518  1.0000 0.1571976762
C   C56       1.0  0.62981  0.10518  0.26831  1.0000 0.1571976762
C   C57       1.0  0.10518  0.26831  0.62981  1.0000 0.1571976762
C   C58       1.0  0.73169  0.37019  0.89482  1.0000 0.1571976762
C   C59       1.0  0.37019  0.89482  0.73169  1.0000 0.1571976762
C   C60       1.0  0.89482  0.73169  0.37019  1.0000 0.1571976762
C   C61       1.0  0.47846  0.82252  0.22972  1.0000 0.1290879743
C   C62       1.0  0.82252  0.22972  0.47846  1.0000 0.1290879743
C   C63       1.0  0.22972  0.47846  0.82252  1.0000 0.1290879743
C   C64       1.0  0.52154  0.17748  0.77028  1.0000 0.1290879743
C   C65       1.0  0.17748  0.77028  0.52154  1.0000 0.1290879743
C   C66       1.0  0.77028  0.52154  0.17748  1.0000 0.1290879743
C   C67       1.0  0.70305  0.18906  0.63039  1.0000 0.1482537472
C   C68       1.0  0.18906  0.63039  0.70305  1.0000 0.1482537472
C   C69       1.0  0.63039  0.70305  0.18906  1.0000 0.1482537472
C   C70       1.0  0.29695  0.81094  0.36961  1.0000 0.1482537472
C   C71       1.0  0.81094  0.36961  0.29695  1.0000 0.1482537472
C   C72       1.0  0.36961  0.29695  0.81094  1.0000 0.1482537472
C   C73       1.0  0.84133  0.38739  0.72548  1.0000 0.1571976762
C   C74       1.0  0.38739  0.72548  0.84133  1.0000 0.1571976762
C   C75       1.0  0.72548  0.84133  0.38739  1.0000 0.1571976762
C   C76       1.0  0.15867  0.61261  0.27452  1.0000 0.1571976762
C   C77       1.0  0.61261  0.27452  0.15867  1.0000 0.1571976762
C   C78       1.0  0.27452  0.15867  0.61261  1.0000 0.1571976762
N   N1        1.0  0.43689  0.85850  0.24251  1.0000 -0.1902790756
N   N2        1.0  0.85850  0.24251  0.43689  1.0000 -0.1902790756
N   N3        1.0  0.24251  0.43689  0.85850  1.0000 -0.1902790756
N   N4        1.0  0.56311  0.14150  0.75749  1.0000 -0.1902790756
N   N5        1.0  0.14150  0.75749  0.56311  1.0000 -0.1902790756
N   N6        1.0  0.75749  0.56311  0.14150  1.0000 -0.1902790756
N   N7        1.0  0.29886  0.73199  0.16055  1.0000 -0.1902790756
N   N8        1.0  0.73199  0.16055  0.29886  1.0000 -0.1902790756
N   N9        1.0  0.16055  0.29886  0.73199  1.0000 -0.1902790756
N   N10       1.0  0.70114  0.26801  0.83945  1.0000 -0.1902790756
N   N11       1.0  0.26801  0.83945  0.70114  1.0000 -0.1902790756
N   N12       1.0  0.83945  0.70114  0.26801  1.0000 -0.1902790756
N   N13       1.0  0.37667  0.67954  0.14419  1.0000 -0.3277756575
N   N14       1.0  0.67954  0.14419  0.37667  1.0000 -0.3244434003
N   N15       1.0  0.14419  0.37667  0.67954  1.0000 -0.3244434003
N   N16       1.0  0.62333  0.32046  0.85581  1.0000 -0.3244434003
N   N17       1.0  0.32046  0.85581  0.62333  1.0000 -0.3277756575
N   N18       1.0  0.85581  0.62333  0.32046  1.0000 -0.3244434003
N   N19       1.0  0.92124  0.45242  0.85324  1.0000 -0.1828988298
N   N20       1.0  0.45242  0.85324  0.92124  1.0000 -0.1828988298
N   N21       1.0  0.85324  0.92124  0.45242  1.0000 -0.1828988298
N   N22       1.0  0.07876  0.54758  0.14676  1.0000 -0.1828988298
N   N23       1.0  0.54758  0.14676  0.07876  1.0000 -0.1828988298
N   N24       1.0  0.14676  0.07876  0.54758  1.0000 -0.1828988298
N   N25       1.0  0.83163  0.32284  0.79133  1.0000 -0.1975513402
N   N26       1.0  0.32284  0.79133  0.83163  1.0000 -0.1975513402
N   N27       1.0  0.79133  0.83163  0.32284  1.0000 -0.1975513402
N   N28       1.0  0.16837  0.67716  0.20867  1.0000 -0.1975513402
N   N29       1.0  0.67716  0.20867  0.16837  1.0000 -0.1975513402
N   N30       1.0  0.20867  0.16837  0.67716  1.0000 -0.1975513402
N   N31       1.0  0.70234  0.22162  0.58204  1.0000 -0.3277756575
N   N32       1.0  0.22162  0.58204  0.70234  1.0000 -0.3277756575
N   N33       1.0  0.58204  0.70234  0.22162  1.0000 -0.3277756575
N   N34       1.0  0.29766  0.77838  0.41796  1.0000 -0.3277756575
N   N35       1.0  0.77838  0.41796  0.29766  1.0000 -0.3277756575
N   N36       1.0  0.41796  0.29766  0.77838  1.0000 -0.3277756575
O   O1        1.0  0.07398  0.69942  0.68750  1.0000 -0.5554343466
O   O2        1.0  0.69942  0.68750  0.07398  1.0000 -0.5554343466
O   O3        1.0  0.68750  0.07398  0.69942  1.0000 -0.5554343466
O   O4        1.0  0.92602  0.30058  0.31250  1.0000 -0.5554343466
O   O5        1.0  0.30058  0.31250  0.92602  1.0000 -0.5554343466
O   O6        1.0  0.31250  0.92602  0.30058  1.0000 -0.5554343466
O   O7        1.0  0.25577  0.87932  0.93931  1.0000 -0.532408059
O   O8        1.0  0.87932  0.93931  0.25577  1.0000 -0.532408059
O   O9        1.0  0.93931  0.25577  0.87932  1.0000 -0.532408059
O   O10       1.0  0.74423  0.12068  0.06069  1.0000 -0.532408059
O   O11       1.0  0.12068  0.06069  0.74423  1.0000 -0.532408059
O   O12       1.0  0.06069  0.74423  0.12068  1.0000 -0.532408059
O   O13       1.0  0.40421  0.01562  0.23147  1.0000 -0.543970466
O   O14       1.0  0.01562  0.23147  0.40421  1.0000 -0.543970466
O   O15       1.0  0.23147  0.40421  0.01562  1.0000 -0.543970466
O   O16       1.0  0.59579  0.98438  0.76853  1.0000 -0.543970466
O   O17       1.0  0.98438  0.76853  0.59579  1.0000 -0.543970466
O   O18       1.0  0.76853  0.59579  0.98438  1.0000 -0.543970466
O   O19       1.0  0.16600  0.74607  0.01653  1.0000 -0.5653542284
O   O20       1.0  0.74607  0.01653  0.16600  1.0000 -0.5653542284
O   O21       1.0  0.01653  0.16600  0.74607  1.0000 -0.5653542284
O   O22       1.0  0.83400  0.25393  0.98347  1.0000 -0.5653542284
O   O23       1.0  0.25393  0.98347  0.83400  1.0000 -0.5653542284
O   O24       1.0  0.98347  0.83400  0.25393  1.0000 -0.5653542284
