# DDEC6 charges by PACMAN v1.1 (https://github.com/mtap-research/PACMAN-charge/)
data_2011[Zn][pcu]3[ASR]6
_chemical_formula_sum              "Zn8 H48 C102 O28 F36"
_cell_length_a       17.899
_cell_length_b       7.542
_cell_length_c       28.997
_cell_angle_alpha    90
_cell_angle_beta     125.408
_cell_angle_gamma    90

_symmetry_space_group_name_H-M    "P 1"
_symmetry_Int_Tables_number       1

loop_
  _symmetry_equiv_pos_as_xyz
  'x, y, z'

loop_
  _atom_site_type_symbol
  _atom_site_label
  _atom_site_symmetry_multiplicity
  _atom_site_fract_x
  _atom_site_fract_y
  _atom_site_fract_z
  _atom_site_occupancy
  _atom_site_charge
Zn  Zn1       1.0  0.45122  0.47332  0.03041  1.0000 0.9886185193
Zn  Zn2       1.0  0.54878  0.47332  0.46959  1.0000 0.9886185193
Zn  Zn3       1.0  0.54878  0.52668  0.96959  1.0000 0.9886185193
Zn  Zn4       1.0  0.45122  0.52668  0.53041  1.0000 0.9886185193
Zn  Zn5       1.0  0.57764  0.79009  0.08732  1.0000 0.9761142844
Zn  Zn6       1.0  0.42236  0.79009  0.41268  1.0000 0.9761142844
Zn  Zn7       1.0  0.42236  0.20991  0.91268  1.0000 0.9761142844
Zn  Zn8       1.0  0.57764  0.20991  0.58732  1.0000 0.9761142844
H   H1        1.0  0.82370  0.04980  0.21460  1.0000 0.1206535397
H   H2        1.0  0.17630  0.04980  0.28540  1.0000 0.1206535397
H   H3        1.0  0.17630  0.95020  0.78540  1.0000 0.1206535397
H   H4        1.0  0.82370  0.95020  0.71460  1.0000 0.1206535397
H   H5        1.0  0.94800  0.23050  0.27050  1.0000 0.1206535397
H   H6        1.0  0.05200  0.23050  0.22950  1.0000 0.1206535397
H   H7        1.0  0.05200  0.76950  0.72950  1.0000 0.1206535397
H   H8        1.0  0.94800  0.76950  0.77050  1.0000 0.1206535397
H   H9        1.0  0.85200  0.56240  0.13980  1.0000 0.1206535397
H   H10       1.0  0.14800  0.56240  0.36020  1.0000 0.1206535397
H   H11       1.0  0.14800  0.43760  0.86020  1.0000 0.1206535397
H   H12       1.0  0.85200  0.43760  0.63980  1.0000 0.1206535397
H   H13       1.0  0.25540  0.55750  0.25860  1.0000 0.1293883512
H   H14       1.0  0.74460  0.55750  0.24140  1.0000 0.1293883512
H   H15       1.0  0.74460  0.44250  0.74140  1.0000 0.1293883512
H   H16       1.0  0.25540  0.44250  0.75860  1.0000 0.1293883512
H   H17       1.0  0.16550  0.42630  0.17140  1.0000 0.1206535397
H   H18       1.0  0.83450  0.42630  0.32860  1.0000 0.1206535397
H   H19       1.0  0.83450  0.57370  0.82860  1.0000 0.1206535397
H   H20       1.0  0.16550  0.57370  0.67140  1.0000 0.1206535397
H   H21       1.0  0.32370  0.99490  0.23250  1.0000 0.1293883512
H   H22       1.0  0.67630  0.99490  0.26750  1.0000 0.1293883512
H   H23       1.0  0.67630  0.00510  0.76750  1.0000 0.1293883512
H   H24       1.0  0.32370  0.00510  0.73250  1.0000 0.1293883512
H   H25       1.0  0.41210  0.12410  0.32020  1.0000 0.1293883512
H   H26       1.0  0.58790  0.12410  0.17980  1.0000 0.1293883512
H   H27       1.0  0.58790  0.87590  0.67980  1.0000 0.1293883512
H   H28       1.0  0.41210  0.87590  0.82020  1.0000 0.1293883512
H   H29       1.0  0.31790  0.22840  0.14190  1.0000 0.1293883512
H   H30       1.0  0.68210  0.22840  0.35810  1.0000 0.1293883512
H   H31       1.0  0.68210  0.77160  0.85810  1.0000 0.1293883512
H   H32       1.0  0.31790  0.77160  0.64190  1.0000 0.1293883512
H   H33       1.0  0.41080  0.12150  0.11800  1.0000 0.1293883512
H   H34       1.0  0.58920  0.12150  0.38200  1.0000 0.1293883512
H   H35       1.0  0.58920  0.87850  0.88200  1.0000 0.1293883512
H   H36       1.0  0.41080  0.87850  0.61800  1.0000 0.1293883512
H   H37       1.0  0.27360  0.66280  0.07210  1.0000 0.1293883512
H   H38       1.0  0.72640  0.66280  0.42790  1.0000 0.1293883512
H   H39       1.0  0.72640  0.33720  0.92790  1.0000 0.1293883512
H   H40       1.0  0.27360  0.33720  0.57210  1.0000 0.1293883512
H   H41       1.0  0.17860  0.77420  0.09380  1.0000 0.1206535397
H   H42       1.0  0.82140  0.77420  0.40620  1.0000 0.1206535397
H   H43       1.0  0.82140  0.22580  0.90620  1.0000 0.1206535397
H   H44       1.0  0.17860  0.22580  0.59380  1.0000 0.1206535397
H   H45       1.0  0.72990  0.37610  0.08440  1.0000 0.1293883512
H   H46       1.0  0.27010  0.37610  0.41560  1.0000 0.1293883512
H   H47       1.0  0.27010  0.62390  0.91560  1.0000 0.1293883512
H   H48       1.0  0.72990  0.62390  0.58440  1.0000 0.1293883512
C   C1        1.0  0.41500  0.80220  0.07980  1.0000 0.5942286367
C   C2        1.0  0.58500  0.80220  0.42020  1.0000 0.5942286367
C   C3        1.0  0.58500  0.19780  0.92020  1.0000 0.5942286367
C   C4        1.0  0.41500  0.19780  0.57980  1.0000 0.5942286367
C   C5        1.0  0.68670  0.06710  0.10650  1.0000 0.5430646801
C   C6        1.0  0.31330  0.06710  0.39350  1.0000 0.5430646801
C   C7        1.0  0.31330  0.93290  0.89350  1.0000 0.5430646801
C   C8        1.0  0.68670  0.93290  0.60650  1.0000 0.5430646801
C   C9        1.0  0.76500  0.19030  0.14300  1.0000 -0.0129774267
C   C10       1.0  0.23500  0.19030  0.35700  1.0000 -0.0129774267
C   C11       1.0  0.23500  0.80970  0.85700  1.0000 -0.0129774267
C   C12       1.0  0.76500  0.80970  0.64300  1.0000 -0.0129774267
C   C13       1.0  0.83010  0.15160  0.19910  1.0000 -0.087710047
C   C14       1.0  0.16990  0.15160  0.30090  1.0000 -0.087710047
C   C15       1.0  0.16990  0.84840  0.80090  1.0000 -0.087710047
C   C16       1.0  0.83010  0.84840  0.69910  1.0000 -0.087710047
C   C17       1.0  0.90450  0.26020  0.23280  1.0000 -0.1377997794
C   C18       1.0  0.09550  0.26020  0.26720  1.0000 -0.1377997794
C   C19       1.0  0.09550  0.73980  0.76720  1.0000 -0.1377997794
C   C20       1.0  0.90450  0.73980  0.73280  1.0000 -0.1377997794
C   C21       1.0  0.91520  0.41340  0.21100  1.0000 0.0735351194
C   C22       1.0  0.08480  0.41340  0.28900  1.0000 0.0735351194
C   C23       1.0  0.08480  0.58660  0.78900  1.0000 0.0735351194
C   C24       1.0  0.91520  0.58660  0.71100  1.0000 0.0735351194
C   C25       1.0  0.84760  0.45750  0.15490  1.0000 -0.1377997794
C   C26       1.0  0.15240  0.45750  0.34510  1.0000 -0.1377997794
C   C27       1.0  0.15240  0.54250  0.84510  1.0000 -0.1377997794
C   C28       1.0  0.84760  0.54250  0.65490  1.0000 -0.1377997794
C   C29       1.0  0.00000  0.52900  0.25000  1.0000 -0.278495047
C   C30       1.0  0.00000  0.47100  0.75000  1.0000 -0.278495047
C   C31       1.0  0.02370  0.64990  0.21700  1.0000 0.660712025
C   C32       1.0  0.97630  0.64990  0.28300  1.0000 0.660712025
C   C33       1.0  0.97630  0.35010  0.78300  1.0000 0.660712025
C   C34       1.0  0.02370  0.35010  0.71700  1.0000 0.660712025
C   C35       1.0  0.40020  0.44120  0.35520  1.0000 0.5836145544
C   C36       1.0  0.59980  0.44120  0.14480  1.0000 0.5836145544
C   C37       1.0  0.59980  0.55880  0.64480  1.0000 0.5836145544
C   C38       1.0  0.40020  0.55880  0.85520  1.0000 0.5836145544
C   C39       1.0  0.34410  0.35450  0.29910  1.0000 -0.0315103091
C   C40       1.0  0.65590  0.35450  0.20090  1.0000 -0.0315103091
C   C41       1.0  0.65590  0.64550  0.70090  1.0000 -0.0315103091
C   C42       1.0  0.34410  0.64550  0.79910  1.0000 -0.0315103091
C   C43       1.0  0.26930  0.44360  0.25350  1.0000 -0.077911557
C   C44       1.0  0.73070  0.44360  0.24650  1.0000 -0.077911557
C   C45       1.0  0.73070  0.55640  0.74650  1.0000 -0.077911557
C   C46       1.0  0.26930  0.55640  0.75350  1.0000 -0.077911557
C   C47       1.0  0.21560  0.36550  0.20120  1.0000 -0.1614354549
C   C48       1.0  0.78440  0.36550  0.29880  1.0000 -0.1614354549
C   C49       1.0  0.78440  0.63450  0.79880  1.0000 -0.1614354549
C   C50       1.0  0.21560  0.63450  0.70120  1.0000 -0.1614354549
C   C51       1.0  0.23570  0.19710  0.19250  1.0000 0.0857196601
C   C52       1.0  0.76430  0.19710  0.30750  1.0000 0.0857196601
C   C53       1.0  0.76430  0.80290  0.80750  1.0000 0.0847781116
C   C54       1.0  0.23570  0.80290  0.69250  1.0000 0.0847781116
C   C55       1.0  0.30960  0.10860  0.23770  1.0000 -0.1377997794
C   C56       1.0  0.69040  0.10860  0.26230  1.0000 -0.1377997794
C   C57       1.0  0.69040  0.89140  0.76230  1.0000 -0.1377997794
C   C58       1.0  0.30960  0.89140  0.73770  1.0000 -0.1377997794
C   C59       1.0  0.36280  0.18630  0.29020  1.0000 -0.077911557
C   C60       1.0  0.63720  0.18630  0.20980  1.0000 -0.077911557
C   C61       1.0  0.63720  0.81370  0.70980  1.0000 -0.077911557
C   C62       1.0  0.36280  0.81370  0.79020  1.0000 -0.077911557
C   C63       1.0  0.17620  0.09920  0.13500  1.0000 -0.278495047
C   C64       1.0  0.82380  0.09920  0.36500  1.0000 -0.278495047
C   C65       1.0  0.82380  0.90080  0.86500  1.0000 -0.278495047
C   C66       1.0  0.17620  0.90080  0.63500  1.0000 -0.278495047
C   C67       1.0  0.11860  0.96080  0.14100  1.0000 0.660712025
C   C68       1.0  0.88140  0.96080  0.35900  1.0000 0.660712025
C   C69       1.0  0.88140  0.03920  0.85900  1.0000 0.660712025
C   C70       1.0  0.11860  0.03920  0.64100  1.0000 0.660712025
C   C71       1.0  0.10950  0.22340  0.08580  1.0000 0.660712025
C   C72       1.0  0.89050  0.22340  0.41420  1.0000 0.660712025
C   C73       1.0  0.89050  0.77660  0.91420  1.0000 0.660712025
C   C74       1.0  0.10950  0.77660  0.58580  1.0000 0.660712025
C   C75       1.0  0.23780  0.01460  0.12030  1.0000 0.0735351194
C   C76       1.0  0.76220  0.01460  0.37970  1.0000 0.0735351194
C   C77       1.0  0.76220  0.98540  0.87970  1.0000 0.0735351194
C   C78       1.0  0.23780  0.98540  0.62030  1.0000 0.0735351194
C   C79       1.0  0.30840  0.11420  0.12740  1.0000 -0.1329600362
C   C80       1.0  0.69160  0.11420  0.37260  1.0000 -0.1329600362
C   C81       1.0  0.69160  0.88580  0.87260  1.0000 -0.1329600362
C   C82       1.0  0.30840  0.88580  0.62740  1.0000 -0.1329600362
C   C83       1.0  0.36470  0.05030  0.11370  1.0000 -0.077911557
C   C84       1.0  0.63530  0.05030  0.38630  1.0000 -0.077911557
C   C85       1.0  0.63530  0.94970  0.88630  1.0000 -0.077911557
C   C86       1.0  0.36470  0.94970  0.61370  1.0000 -0.077911557
C   C87       1.0  0.35270  0.87760  0.09330  1.0000 -0.0129774267
C   C88       1.0  0.64730  0.87760  0.40670  1.0000 -0.0129774267
C   C89       1.0  0.64730  0.12240  0.90670  1.0000 -0.0129774267
C   C90       1.0  0.35270  0.12240  0.59330  1.0000 -0.0129774267
C   C91       1.0  0.28270  0.77760  0.08610  1.0000 -0.087710047
C   C92       1.0  0.71730  0.77760  0.41390  1.0000 -0.087710047
C   C93       1.0  0.71730  0.22240  0.91390  1.0000 -0.087710047
C   C94       1.0  0.28270  0.22240  0.58610  1.0000 -0.087710047
C   C95       1.0  0.22580  0.84420  0.09920  1.0000 -0.1488595268
C   C96       1.0  0.77420  0.84420  0.40080  1.0000 -0.1488595268
C   C97       1.0  0.77420  0.15580  0.90080  1.0000 -0.1488595268
C   C98       1.0  0.22580  0.15580  0.59920  1.0000 -0.1488595268
C   C99       1.0  0.77430  0.34580  0.12190  1.0000 -0.077911557
C   C100      1.0  0.22570  0.34580  0.37810  1.0000 -0.077911557
C   C101      1.0  0.22570  0.65420  0.87810  1.0000 -0.077911557
C   C102      1.0  0.77430  0.65420  0.62190  1.0000 -0.077911557
O   O1        1.0  0.39540  0.65490  0.05658  1.0000 -0.5422926283
O   O2        1.0  0.60460  0.65490  0.44342  1.0000 -0.5422926283
O   O3        1.0  0.60460  0.34510  0.94342  1.0000 -0.5422926283
O   O4        1.0  0.39540  0.34510  0.55658  1.0000 -0.5422926283
O   O5        1.0  0.48330  0.89490  0.09284  1.0000 -0.508635137
O   O6        1.0  0.51670  0.89490  0.40716  1.0000 -0.508635137
O   O7        1.0  0.51670  0.10510  0.90716  1.0000 -0.508635137
O   O8        1.0  0.48330  0.10510  0.59284  1.0000 -0.508635137
O   O9        1.0  0.68820  0.92360  0.12922  1.0000 -0.5303150302
O   O10       1.0  0.31180  0.92360  0.37078  1.0000 -0.5303150302
O   O11       1.0  0.31180  0.07640  0.87078  1.0000 -0.5303150302
O   O12       1.0  0.68820  0.07640  0.62922  1.0000 -0.5303150302
O   O13       1.0  0.62690  0.10500  0.05672  1.0000 -0.4353602266
O   O14       1.0  0.37310  0.10500  0.44328  1.0000 -0.4353602266
O   O15       1.0  0.37310  0.89500  0.94328  1.0000 -0.4353602266
O   O16       1.0  0.62690  0.89500  0.55672  1.0000 -0.4353602266
O   O17       1.0  0.37490  0.59050  0.35899  1.0000 -0.5303150302
O   O18       1.0  0.62510  0.59050  0.14101  1.0000 -0.5303150302
O   O19       1.0  0.62510  0.40950  0.64101  1.0000 -0.5303150302
O   O20       1.0  0.37490  0.40950  0.85899  1.0000 -0.5303150302
O   O21       1.0  0.46780  0.35970  0.39528  1.0000 -0.5037995613
O   O22       1.0  0.53220  0.35970  0.10472  1.0000 -0.5037995613
O   O23       1.0  0.53220  0.64030  0.60472  1.0000 -0.5037995613
O   O24       1.0  0.46780  0.64030  0.89528  1.0000 -0.5037995613
O   O25       1.0  0.50930  0.67300  0.01295  1.0000 -0.8374275303
O   O26       1.0  0.49070  0.67300  0.48705  1.0000 -0.8332746958
O   O27       1.0  0.49070  0.32700  0.98705  1.0000 -0.8332746958
O   O28       1.0  0.50930  0.32700  0.51295  1.0000 -0.8332746958
F   F1        1.0  0.02570  0.55770  0.17885  1.0000 -0.1811629197
F   F2        1.0  0.97430  0.55770  0.32115  1.0000 -0.1811629197
F   F3        1.0  0.97430  0.44230  0.82115  1.0000 -0.1811629197
F   F4        1.0  0.02570  0.44230  0.67885  1.0000 -0.1811629197
F   F5        1.0  0.96410  0.78190  0.18947  1.0000 -0.1908909669
F   F6        1.0  0.03590  0.78190  0.31053  1.0000 -0.1908909669
F   F7        1.0  0.03590  0.21810  0.81053  1.0000 -0.1908909669
F   F8        1.0  0.96410  0.21810  0.68947  1.0000 -0.1908909669
F   F9        1.0  0.10510  0.72370  0.25070  1.0000 -0.1811629197
F   F10       1.0  0.89490  0.72370  0.24930  1.0000 -0.1811629197
F   F11       1.0  0.89490  0.27630  0.74930  1.0000 -0.1811629197
F   F12       1.0  0.10510  0.27630  0.75070  1.0000 -0.1811629197
F   F13       1.0  0.17050  0.83010  0.17583  1.0000 -0.1908909669
F   F14       1.0  0.82950  0.83010  0.32417  1.0000 -0.1908909669
F   F15       1.0  0.82950  0.16990  0.82417  1.0000 -0.1908909669
F   F16       1.0  0.17050  0.16990  0.67583  1.0000 -0.1908909669
F   F17       1.0  0.07690  0.03450  0.16212  1.0000 -0.1908909669
F   F18       1.0  0.92310  0.03450  0.33788  1.0000 -0.1908909669
F   F19       1.0  0.92310  0.96550  0.83788  1.0000 -0.1908909669
F   F20       1.0  0.07690  0.96550  0.66212  1.0000 -0.1908909669
F   F21       1.0  0.05330  0.88700  0.09211  1.0000 -0.196139363
F   F22       1.0  0.94670  0.88700  0.40789  1.0000 -0.1908909669
F   F23       1.0  0.94670  0.11300  0.90789  1.0000 -0.1908909669
F   F24       1.0  0.05330  0.11300  0.59211  1.0000 -0.1908909669
F   F25       1.0  0.15160  0.36440  0.08331  1.0000 -0.1908909669
F   F26       1.0  0.84840  0.36440  0.41669  1.0000 -0.1908909669
F   F27       1.0  0.84840  0.63560  0.91669  1.0000 -0.1908909669
F   F28       1.0  0.15160  0.63560  0.58331  1.0000 -0.1908909669
F   F29       1.0  0.04180  0.28450  0.08827  1.0000 -0.196139363
F   F30       1.0  0.95820  0.28450  0.41173  1.0000 -0.196139363
F   F31       1.0  0.95820  0.71550  0.91173  1.0000 -0.196139363
F   F32       1.0  0.04180  0.71550  0.58827  1.0000 -0.196139363
F   F33       1.0  0.06930  0.14290  0.03616  1.0000 -0.1908909669
F   F34       1.0  0.93070  0.14290  0.46384  1.0000 -0.1908909669
F   F35       1.0  0.93070  0.85710  0.96384  1.0000 -0.1908909669
F   F36       1.0  0.06930  0.85710  0.53616  1.0000 -0.1908909669
