# DDEC6 charges by PACMAN v1.1 (https://github.com/mtap-research/PACMAN-charge/)
data_2011[CuW][dia]3[ASR]2
_chemical_formula_sum              "Cu12 H80 W4 C100 S12 Br4 N20"
_cell_length_a       14.9547
_cell_length_b       14.9547
_cell_length_c       17.9319
_cell_angle_alpha    85.4538
_cell_angle_beta     94.5462
_cell_angle_gamma    90.8813

_symmetry_space_group_name_H-M    "P 1"
_symmetry_Int_Tables_number       1

loop_
  _symmetry_equiv_pos_as_xyz
  'x, y, z'

loop_
  _atom_site_type_symbol
  _atom_site_label
  _atom_site_symmetry_multiplicity
  _atom_site_fract_x
  _atom_site_fract_y
  _atom_site_fract_z
  _atom_site_occupancy
  _atom_site_charge
Cu  Cu1       1.0  0.90847  0.27109  0.97362  1.0000 0.2869889832
Cu  Cu2       1.0  0.27109  0.90847  0.52638  1.0000 0.2838979757
Cu  Cu3       1.0  0.78421  0.31059  0.14348  1.0000 0.3082447446
Cu  Cu4       1.0  0.31059  0.78421  0.35652  1.0000 0.3082447446
Cu  Cu5       1.0  0.69711  0.12621  0.01649  1.0000 0.3175034991
Cu  Cu6       1.0  0.12621  0.69711  0.48351  1.0000 0.3175034991
Cu  Cu7       1.0  0.09153  0.72891  0.02638  1.0000 0.2838979757
Cu  Cu8       1.0  0.72891  0.09153  0.47362  1.0000 0.2869889832
Cu  Cu9       1.0  0.21579  0.68941  0.85652  1.0000 0.3082447446
Cu  Cu10      1.0  0.68941  0.21579  0.64348  1.0000 0.3082447446
Cu  Cu11      1.0  0.30289  0.87379  0.98351  1.0000 0.3175034991
Cu  Cu12      1.0  0.87379  0.30289  0.51649  1.0000 0.3175034991
H   H1        1.0  0.07360  0.38540  0.92820  1.0000 0.0989416422
H   H2        1.0  0.38540  0.07360  0.57180  1.0000 0.0989416422
H   H3        1.0  0.12150  0.46270  0.82230  1.0000 0.1210174805
H   H4        1.0  0.46270  0.12150  0.67770  1.0000 0.1210174805
H   H5        1.0  0.91500  0.35760  0.70110  1.0000 0.1291002993
H   H6        1.0  0.35760  0.91500  0.79890  1.0000 0.1291002993
H   H7        1.0  0.86850  0.28510  0.81060  1.0000 0.0989416422
H   H8        1.0  0.28510  0.86850  0.68940  1.0000 0.0989416422
H   H9        1.0  0.18410  0.45870  0.69680  1.0000 0.1210174805
H   H10       1.0  0.45870  0.18410  0.80320  1.0000 0.1210174805
H   H11       1.0  0.21570  0.55190  0.59310  1.0000 0.0812952124
H   H12       1.0  0.55190  0.21570  0.90690  1.0000 0.0812952124
H   H13       1.0  0.96200  0.59280  0.53740  1.0000 0.0989416422
H   H14       1.0  0.59280  0.96200  0.96260  1.0000 0.0989416422
H   H15       1.0  0.92090  0.50010  0.63650  1.0000 0.1291002993
H   H16       1.0  0.50010  0.92090  0.86350  1.0000 0.1291002993
H   H17       1.0  0.34680  0.92060  0.22870  1.0000 0.0910877234
H   H18       1.0  0.92060  0.34680  0.27130  1.0000 0.0910877234
H   H19       1.0  0.27070  0.02410  0.14690  1.0000 0.1291002993
H   H20       1.0  0.02410  0.27070  0.35310  1.0000 0.1291002993
H   H21       1.0  0.04080  0.93100  0.22730  1.0000 0.1291002993
H   H22       1.0  0.93100  0.04080  0.27270  1.0000 0.1291002993
H   H23       1.0  0.12150  0.83390  0.30980  1.0000 0.0989416422
H   H24       1.0  0.83390  0.12150  0.19020  1.0000 0.0989416422
H   H25       1.0  0.18960  0.15280  0.11730  1.0000 0.1291002993
H   H26       1.0  0.15280  0.18960  0.38270  1.0000 0.1291002993
H   H27       1.0  0.10370  0.25490  0.04160  1.0000 0.0910877234
H   H28       1.0  0.25490  0.10370  0.45840  1.0000 0.0910877234
H   H29       1.0  0.90190  0.08710  0.03210  1.0000 0.0910877234
H   H30       1.0  0.08710  0.90190  0.46790  1.0000 0.0910877234
H   H31       1.0  0.98320  0.97880  0.11060  1.0000 0.1291002993
H   H32       1.0  0.97880  0.98320  0.38940  1.0000 0.1291002993
H   H33       1.0  0.70160  0.34440  0.29170  1.0000 0.0989416422
H   H34       1.0  0.34440  0.70160  0.20830  1.0000 0.0989416422
H   H35       1.0  0.60210  0.44410  0.33400  1.0000 0.1210174805
H   H36       1.0  0.44410  0.60210  0.16600  1.0000 0.1210174805
H   H37       1.0  0.59950  0.58470  0.13220  1.0000 0.1291002993
H   H38       1.0  0.58470  0.59950  0.36780  1.0000 0.1291002993
H   H39       1.0  0.70780  0.48880  0.10010  1.0000 0.0910877234
H   H40       1.0  0.48880  0.70780  0.39990  1.0000 0.0910877234
H   H41       1.0  0.92640  0.61460  0.07180  1.0000 0.0989416422
H   H42       1.0  0.61460  0.92640  0.42820  1.0000 0.0989416422
H   H43       1.0  0.87850  0.53730  0.17770  1.0000 0.1210174805
H   H44       1.0  0.53730  0.87850  0.32230  1.0000 0.1210174805
H   H45       1.0  0.08500  0.64240  0.29890  1.0000 0.1291002993
H   H46       1.0  0.64240  0.08500  0.20110  1.0000 0.1291002993
H   H47       1.0  0.13150  0.71490  0.18940  1.0000 0.0989416422
H   H48       1.0  0.71490  0.13150  0.31060  1.0000 0.0989416422
H   H49       1.0  0.81590  0.54130  0.30320  1.0000 0.1210174805
H   H50       1.0  0.54130  0.81590  0.19680  1.0000 0.1210174805
H   H51       1.0  0.78430  0.44810  0.40690  1.0000 0.0812952124
H   H52       1.0  0.44810  0.78430  0.09310  1.0000 0.0812952124
H   H53       1.0  0.03800  0.40720  0.46260  1.0000 0.0989416422
H   H54       1.0  0.40720  0.03800  0.03740  1.0000 0.0989416422
H   H55       1.0  0.07910  0.49990  0.36350  1.0000 0.1291002993
H   H56       1.0  0.49990  0.07910  0.13650  1.0000 0.1291002993
H   H57       1.0  0.65320  0.07940  0.77130  1.0000 0.0910877234
H   H58       1.0  0.07940  0.65320  0.72870  1.0000 0.0910877234
H   H59       1.0  0.72930  0.97590  0.85310  1.0000 0.1291002993
H   H60       1.0  0.97590  0.72930  0.64690  1.0000 0.1291002993
H   H61       1.0  0.95920  0.06900  0.77270  1.0000 0.1291002993
H   H62       1.0  0.06900  0.95920  0.72730  1.0000 0.1291002993
H   H63       1.0  0.87850  0.16610  0.69020  1.0000 0.0989416422
H   H64       1.0  0.16610  0.87850  0.80980  1.0000 0.0989416422
H   H65       1.0  0.81040  0.84720  0.88270  1.0000 0.1291002993
H   H66       1.0  0.84720  0.81040  0.61730  1.0000 0.1291002993
H   H67       1.0  0.89630  0.74510  0.95840  1.0000 0.0910877234
H   H68       1.0  0.74510  0.89630  0.54160  1.0000 0.0910877234
H   H69       1.0  0.09810  0.91290  0.96790  1.0000 0.0910877234
H   H70       1.0  0.91290  0.09810  0.53210  1.0000 0.0910877234
H   H71       1.0  0.01680  0.02120  0.88940  1.0000 0.1291002993
H   H72       1.0  0.02120  0.01680  0.61060  1.0000 0.1291002993
H   H73       1.0  0.29840  0.65560  0.70830  1.0000 0.0989416422
H   H74       1.0  0.65560  0.29840  0.79170  1.0000 0.0989416422
H   H75       1.0  0.39790  0.55590  0.66600  1.0000 0.1210174805
H   H76       1.0  0.55590  0.39790  0.83400  1.0000 0.1210174805
H   H77       1.0  0.40050  0.41530  0.86780  1.0000 0.1291002993
H   H78       1.0  0.41530  0.40050  0.63220  1.0000 0.1291002993
H   H79       1.0  0.29220  0.51120  0.89990  1.0000 0.0910877234
H   H80       1.0  0.51120  0.29220  0.60010  1.0000 0.0910877234
W   W1        1.0  0.73489  0.30473  0.99674  1.0000 0.6823917922
W   W2        1.0  0.30473  0.73489  0.50326  1.0000 0.6823917922
W   W3        1.0  0.26511  0.69527  0.00326  1.0000 0.6823917922
W   W4        1.0  0.69527  0.26511  0.49674  1.0000 0.6899755097
C   C1        1.0  0.04010  0.38030  0.88150  1.0000 0.0605514542
C   C2        1.0  0.38030  0.04010  0.61850  1.0000 0.0605514542
C   C3        1.0  0.06920  0.42600  0.81850  1.0000 -0.1979778406
C   C4        1.0  0.42600  0.06920  0.68150  1.0000 -0.1979778406
C   C5        1.0  0.02280  0.41900  0.74960  1.0000 0.1090629867
C   C6        1.0  0.41900  0.02280  0.75040  1.0000 0.1090629867
C   C7        1.0  0.94820  0.36520  0.74760  1.0000 -0.1721273565
C   C8        1.0  0.36520  0.94820  0.75240  1.0000 -0.1721273565
C   C9        1.0  0.92120  0.32160  0.81320  1.0000 0.0812952124
C   C10       1.0  0.32160  0.92120  0.68680  1.0000 0.0812952124
C   C11       1.0  0.04820  0.47100  0.68080  1.0000 0.1090629867
C   C12       1.0  0.47100  0.04820  0.81920  1.0000 0.1090629867
C   C13       1.0  0.13660  0.48620  0.66520  1.0000 -0.2068861217
C   C14       1.0  0.48620  0.13660  0.83480  1.0000 -0.2068861217
C   C15       1.0  0.15470  0.54230  0.60280  1.0000 0.0673369321
C   C16       1.0  0.54230  0.15470  0.89720  1.0000 0.0673369321
C   C17       1.0  0.00800  0.56540  0.57070  1.0000 0.0605514542
C   C18       1.0  0.56540  0.00800  0.92930  1.0000 0.0605514542
C   C19       1.0  0.98270  0.51090  0.62990  1.0000 -0.1915288711
C   C20       1.0  0.51090  0.98270  0.87010  1.0000 -0.1915288711
C   C21       1.0  0.28350  0.92310  0.22910  1.0000 0.0673369321
C   C22       1.0  0.92310  0.28350  0.27090  1.0000 0.0673369321
C   C23       1.0  0.23860  0.98500  0.17970  1.0000 -0.1764052489
C   C24       1.0  0.98500  0.23860  0.32030  1.0000 -0.1764052489
C   C25       1.0  0.14590  0.98990  0.17820  1.0000 0.1090629867
C   C26       1.0  0.98990  0.14590  0.32180  1.0000 0.1090629867
C   C27       1.0  0.10430  0.93090  0.22720  1.0000 -0.1915288711
C   C28       1.0  0.93090  0.10430  0.27280  1.0000 -0.1915288711
C   C29       1.0  0.15290  0.87210  0.27570  1.0000 0.0673369321
C   C30       1.0  0.87210  0.15290  0.22430  1.0000 0.0673369321
C   C31       1.0  0.09560  0.05540  0.12500  1.0000 0.0989416422
C   C32       1.0  0.05540  0.09560  0.37500  1.0000 0.0989416422
C   C33       1.0  0.12950  0.13750  0.10150  1.0000 -0.1915288711
C   C34       1.0  0.13750  0.12950  0.39850  1.0000 -0.1915288711
C   C35       1.0  0.07800  0.19820  0.05560  1.0000 0.0673369321
C   C36       1.0  0.19820  0.07800  0.44440  1.0000 0.0673369321
C   C37       1.0  0.96140  0.10120  0.05040  1.0000 0.0812952124
C   C38       1.0  0.10120  0.96140  0.44960  1.0000 0.0812952124
C   C39       1.0  0.00970  0.03550  0.09780  1.0000 -0.1915288711
C   C40       1.0  0.03550  0.00970  0.40220  1.0000 -0.1915288711
C   C41       1.0  0.68250  0.39530  0.25980  1.0000 0.0673369321
C   C42       1.0  0.39530  0.68250  0.24020  1.0000 0.0673369321
C   C43       1.0  0.62150  0.45370  0.28480  1.0000 -0.1979778406
C   C44       1.0  0.45370  0.62150  0.21520  1.0000 -0.1979778406
C   C45       1.0  0.58950  0.52550  0.23760  1.0000 0.0989416422
C   C46       1.0  0.52550  0.58950  0.26240  1.0000 0.0989416422
C   C47       1.0  0.62100  0.53720  0.16700  1.0000 -0.1979778406
C   C48       1.0  0.53720  0.62100  0.33300  1.0000 -0.1979778406
C   C49       1.0  0.68460  0.47860  0.14790  1.0000 0.0605514542
C   C50       1.0  0.47860  0.68460  0.35210  1.0000 0.0605514542
C   C51       1.0  0.95990  0.61970  0.11850  1.0000 0.0605514542
C   C52       1.0  0.61970  0.95990  0.38150  1.0000 0.0605514542
C   C53       1.0  0.93080  0.57400  0.18150  1.0000 -0.1979778406
C   C54       1.0  0.57400  0.93080  0.31850  1.0000 -0.1979778406
C   C55       1.0  0.97720  0.58100  0.25040  1.0000 0.1090629867
C   C56       1.0  0.58100  0.97720  0.24960  1.0000 0.1090629867
C   C57       1.0  0.05180  0.63480  0.25240  1.0000 -0.1721273565
C   C58       1.0  0.63480  0.05180  0.24760  1.0000 -0.1721273565
C   C59       1.0  0.07880  0.67840  0.18680  1.0000 0.0812952124
C   C60       1.0  0.67840  0.07880  0.31320  1.0000 0.0812952124
C   C61       1.0  0.95180  0.52900  0.31920  1.0000 0.1090629867
C   C62       1.0  0.52900  0.95180  0.18080  1.0000 0.1090629867
C   C63       1.0  0.86340  0.51380  0.33480  1.0000 -0.2068861217
C   C64       1.0  0.51380  0.86340  0.16520  1.0000 -0.2068861217
C   C65       1.0  0.84530  0.45770  0.39720  1.0000 0.0673369321
C   C66       1.0  0.45770  0.84530  0.10280  1.0000 0.0673369321
C   C67       1.0  0.99200  0.43460  0.42930  1.0000 0.0605514542
C   C68       1.0  0.43460  0.99200  0.07070  1.0000 0.0605514542
C   C69       1.0  0.01730  0.48910  0.37010  1.0000 -0.1915288711
C   C70       1.0  0.48910  0.01730  0.12990  1.0000 -0.1915288711
C   C71       1.0  0.71650  0.07690  0.77090  1.0000 0.0673369321
C   C72       1.0  0.07690  0.71650  0.72910  1.0000 0.0673369321
C   C73       1.0  0.76140  0.01500  0.82030  1.0000 -0.1764052489
C   C74       1.0  0.01500  0.76140  0.67970  1.0000 -0.1764052489
C   C75       1.0  0.85410  0.01010  0.82180  1.0000 0.1090629867
C   C76       1.0  0.01010  0.85410  0.67820  1.0000 0.1090629867
C   C77       1.0  0.89570  0.06910  0.77280  1.0000 -0.1915288711
C   C78       1.0  0.06910  0.89570  0.72720  1.0000 -0.1915288711
C   C79       1.0  0.84710  0.12790  0.72430  1.0000 0.0673369321
C   C80       1.0  0.12790  0.84710  0.77570  1.0000 0.0673369321
C   C81       1.0  0.90440  0.94460  0.87500  1.0000 0.0989416422
C   C82       1.0  0.94460  0.90440  0.62500  1.0000 0.0989416422
C   C83       1.0  0.87050  0.86250  0.89850  1.0000 -0.1915288711
C   C84       1.0  0.86250  0.87050  0.60150  1.0000 -0.1915288711
C   C85       1.0  0.92200  0.80180  0.94440  1.0000 0.0673369321
C   C86       1.0  0.80180  0.92200  0.55560  1.0000 0.0673369321
C   C87       1.0  0.03860  0.89880  0.94960  1.0000 0.0812952124
C   C88       1.0  0.89880  0.03860  0.55040  1.0000 0.0812952124
C   C89       1.0  0.99030  0.96450  0.90220  1.0000 -0.1915288711
C   C90       1.0  0.96450  0.99030  0.59780  1.0000 -0.1915288711
C   C91       1.0  0.31750  0.60470  0.74020  1.0000 0.0673369321
C   C92       1.0  0.60470  0.31750  0.75980  1.0000 0.0673369321
C   C93       1.0  0.37850  0.54630  0.71520  1.0000 -0.1979778406
C   C94       1.0  0.54630  0.37850  0.78480  1.0000 -0.1979778406
C   C95       1.0  0.41050  0.47450  0.76240  1.0000 0.0989416422
C   C96       1.0  0.47450  0.41050  0.73760  1.0000 0.0989416422
C   C97       1.0  0.37900  0.46280  0.83300  1.0000 -0.1979778406
C   C98       1.0  0.46280  0.37900  0.66700  1.0000 -0.1979778406
C   C99       1.0  0.31540  0.52140  0.85210  1.0000 0.0605514542
C   C100      1.0  0.52140  0.31540  0.64790  1.0000 0.0605514542
S   S1        1.0  0.85748  0.37722  0.04570  1.0000 -0.5320510172
S   S2        1.0  0.37722  0.85748  0.45430  1.0000 -0.5320510172
S   S3        1.0  0.66231  0.23525  0.09107  1.0000 -0.5044575387
S   S4        1.0  0.23525  0.66231  0.40893  1.0000 -0.5044575387
S   S5        1.0  0.78066  0.19898  0.92639  1.0000 -0.5169422978
S   S6        1.0  0.19898  0.78066  0.57361  1.0000 -0.5169422978
S   S7        1.0  0.14252  0.62278  0.95430  1.0000 -0.5320510172
S   S8        1.0  0.62278  0.14252  0.54570  1.0000 -0.5320510172
S   S9        1.0  0.33769  0.76475  0.90893  1.0000 -0.5044575387
S   S10       1.0  0.76475  0.33769  0.59107  1.0000 -0.5044575387
S   S11       1.0  0.21934  0.80102  0.07361  1.0000 -0.5169422978
S   S12       1.0  0.80102  0.21934  0.42639  1.0000 -0.5169422978
Br  Br1       1.0  0.74701  0.98095  0.07607  1.0000 -0.560220828
Br  Br2       1.0  0.98095  0.74701  0.42393  1.0000 -0.560220828
Br  Br3       1.0  0.25299  0.01905  0.92393  1.0000 -0.560220828
Br  Br4       1.0  0.01905  0.25299  0.57607  1.0000 -0.560220828
N   N1        1.0  0.96580  0.32860  0.87970  1.0000 -0.1915288711
N   N2        1.0  0.32860  0.96580  0.62030  1.0000 -0.1915288711
N   N3        1.0  0.09360  0.58300  0.55630  1.0000 -0.1979778406
N   N4        1.0  0.58300  0.09360  0.94370  1.0000 -0.1979778406
N   N5        1.0  0.24300  0.86500  0.27830  1.0000 -0.2068861217
N   N6        1.0  0.86500  0.24300  0.22170  1.0000 -0.2068861217
N   N7        1.0  0.99460  0.18100  0.03000  1.0000 -0.1915288711
N   N8        1.0  0.18100  0.99460  0.47000  1.0000 -0.1915288711
N   N9        1.0  0.71490  0.40870  0.19270  1.0000 -0.1915288711
N   N10       1.0  0.40870  0.71490  0.30730  1.0000 -0.1915288711
N   N11       1.0  0.03420  0.67140  0.12030  1.0000 -0.1915288711
N   N12       1.0  0.67140  0.03420  0.37970  1.0000 -0.1915288711
N   N13       1.0  0.90640  0.41700  0.44370  1.0000 -0.1979778406
N   N14       1.0  0.41700  0.90640  0.05630  1.0000 -0.1979778406
N   N15       1.0  0.75700  0.13500  0.72170  1.0000 -0.2068861217
N   N16       1.0  0.13500  0.75700  0.77830  1.0000 -0.2068861217
N   N17       1.0  0.00540  0.81900  0.97000  1.0000 -0.1915288711
N   N18       1.0  0.81900  0.00540  0.53000  1.0000 -0.1915288711
N   N19       1.0  0.28510  0.59130  0.80730  1.0000 -0.1915288711
N   N20       1.0  0.59130  0.28510  0.69270  1.0000 -0.1915288711
