# DDEC6 charges by PACMAN v1.1 (https://github.com/mtap-research/PACMAN-charge/)
data_2011[Cd][nuc]3[ASR]1
_chemical_formula_sum              "Cd4 H144 C192 N48"
_cell_length_a       15.9506
_cell_length_b       15.9506
_cell_length_c       21.125
_cell_angle_alpha    90
_cell_angle_beta     90
_cell_angle_gamma    90

_symmetry_space_group_name_H-M    "P 1"
_symmetry_Int_Tables_number       1

loop_
  _symmetry_equiv_pos_as_xyz
  'x, y, z'

loop_
  _atom_site_type_symbol
  _atom_site_label
  _atom_site_symmetry_multiplicity
  _atom_site_fract_x
  _atom_site_fract_y
  _atom_site_fract_z
  _atom_site_occupancy
  _atom_site_charge
Cd  Cd1       1.0  0.94053  0.05947  0.75000  1.0000 0.6370684494
Cd  Cd2       1.0  0.05947  0.94053  0.25000  1.0000 0.6370684494
Cd  Cd3       1.0  0.44053  0.44053  0.00000  1.0000 0.6370684494
Cd  Cd4       1.0  0.55947  0.55947  0.50000  1.0000 0.6370684494
H   H1        1.0  0.00530  0.23760  0.82330  1.0000 0.0930155455
H   H2        1.0  0.99470  0.76240  0.32330  1.0000 0.0930155455
H   H3        1.0  0.26240  0.50530  0.07330  1.0000 0.0930155455
H   H4        1.0  0.73760  0.49470  0.57330  1.0000 0.0930155455
H   H5        1.0  0.49470  0.73760  0.42670  1.0000 0.0930155455
H   H6        1.0  0.50530  0.26240  0.92670  1.0000 0.0930155455
H   H7        1.0  0.23760  0.00530  0.17670  1.0000 0.0930155455
H   H8        1.0  0.76240  0.99470  0.67670  1.0000 0.0930155455
H   H9        1.0  0.09510  0.34950  0.81480  1.0000 0.1294303283
H   H10       1.0  0.90490  0.65050  0.31480  1.0000 0.1294303283
H   H11       1.0  0.15050  0.59510  0.06480  1.0000 0.1294303283
H   H12       1.0  0.84950  0.40490  0.56480  1.0000 0.1294303283
H   H13       1.0  0.40490  0.84950  0.43520  1.0000 0.1294303283
H   H14       1.0  0.59510  0.15050  0.93520  1.0000 0.1294303283
H   H15       1.0  0.34950  0.09510  0.18520  1.0000 0.1294303283
H   H16       1.0  0.65050  0.90490  0.68520  1.0000 0.1294303283
H   H17       1.0  0.15760  0.26320  0.64200  1.0000 0.1294303283
H   H18       1.0  0.84240  0.73680  0.14200  1.0000 0.1294303283
H   H19       1.0  0.23680  0.65760  0.89200  1.0000 0.1294303283
H   H20       1.0  0.76320  0.34240  0.39200  1.0000 0.1294303283
H   H21       1.0  0.34240  0.76320  0.60800  1.0000 0.1294303283
H   H22       1.0  0.65760  0.23680  0.10800  1.0000 0.1294303283
H   H23       1.0  0.26320  0.15760  0.35800  1.0000 0.1294303283
H   H24       1.0  0.73680  0.84240  0.85800  1.0000 0.1294303283
H   H25       1.0  0.06040  0.15470  0.65880  1.0000 0.100694361
H   H26       1.0  0.93960  0.84530  0.15880  1.0000 0.100694361
H   H27       1.0  0.34530  0.56040  0.90880  1.0000 0.100694361
H   H28       1.0  0.65470  0.43960  0.40880  1.0000 0.100694361
H   H29       1.0  0.43960  0.65470  0.59120  1.0000 0.100694361
H   H30       1.0  0.56040  0.34530  0.09120  1.0000 0.100694361
H   H31       1.0  0.15470  0.06040  0.34120  1.0000 0.100694361
H   H32       1.0  0.84530  0.93960  0.84120  1.0000 0.100694361
H   H33       1.0  0.16610  0.46040  0.79270  1.0000 0.1101580779
H   H34       1.0  0.83390  0.53960  0.29270  1.0000 0.1101580779
H   H35       1.0  0.03960  0.66610  0.04270  1.0000 0.1101580779
H   H36       1.0  0.96040  0.33390  0.54270  1.0000 0.1101580779
H   H37       1.0  0.33390  0.96040  0.45730  1.0000 0.1101580779
H   H38       1.0  0.66610  0.03960  0.95730  1.0000 0.1101580779
H   H39       1.0  0.46040  0.16610  0.20730  1.0000 0.1101580779
H   H40       1.0  0.53960  0.83390  0.70730  1.0000 0.1101580779
H   H41       1.0  0.26330  0.56700  0.77820  1.0000 0.1101580779
H   H42       1.0  0.73670  0.43300  0.27820  1.0000 0.1101580779
H   H43       1.0  0.93300  0.76330  0.02820  1.0000 0.1101580779
H   H44       1.0  0.06700  0.23670  0.52820  1.0000 0.1101580779
H   H45       1.0  0.23670  0.06700  0.47180  1.0000 0.1101580779
H   H46       1.0  0.76330  0.93300  0.97180  1.0000 0.1101580779
H   H47       1.0  0.56700  0.26330  0.22180  1.0000 0.1101580779
H   H48       1.0  0.43300  0.73670  0.72180  1.0000 0.1101580779
H   H49       1.0  0.37760  0.54510  0.71010  1.0000 0.1101580779
H   H50       1.0  0.62240  0.45490  0.21010  1.0000 0.1101580779
H   H51       1.0  0.95490  0.87760  0.96010  1.0000 0.1101580779
H   H52       1.0  0.04510  0.12240  0.46010  1.0000 0.1101580779
H   H53       1.0  0.12240  0.04510  0.53990  1.0000 0.1101580779
H   H54       1.0  0.87760  0.95490  0.03990  1.0000 0.1101580779
H   H55       1.0  0.54510  0.37760  0.28990  1.0000 0.1101580779
H   H56       1.0  0.45490  0.62240  0.78990  1.0000 0.1101580779
H   H57       1.0  0.27830  0.32310  0.65640  1.0000 0.1101580779
H   H58       1.0  0.72170  0.67690  0.15640  1.0000 0.1101580779
H   H59       1.0  0.17690  0.77830  0.90640  1.0000 0.1101580779
H   H60       1.0  0.82310  0.22170  0.40640  1.0000 0.1101580779
H   H61       1.0  0.22170  0.82310  0.59360  1.0000 0.1101580779
H   H62       1.0  0.77830  0.17690  0.09360  1.0000 0.1101580779
H   H63       1.0  0.32310  0.27830  0.34360  1.0000 0.1101580779
H   H64       1.0  0.67690  0.72170  0.84360  1.0000 0.1101580779
H   H65       1.0  0.49440  0.29980  0.45810  1.0000 0.1101580779
H   H66       1.0  0.50560  0.70020  0.95810  1.0000 0.1101580779
H   H67       1.0  0.20020  0.99440  0.70810  1.0000 0.1101580779
H   H68       1.0  0.79980  0.00560  0.20810  1.0000 0.1101580779
H   H69       1.0  0.00560  0.79980  0.79190  1.0000 0.1101580779
H   H70       1.0  0.99440  0.20020  0.29190  1.0000 0.1101580779
H   H71       1.0  0.29980  0.49440  0.54190  1.0000 0.1101580779
H   H72       1.0  0.70020  0.50560  0.04190  1.0000 0.1101580779
H   H73       1.0  0.58120  0.19670  0.41230  1.0000 0.1101580779
H   H74       1.0  0.41880  0.80330  0.91230  1.0000 0.1101580779
H   H75       1.0  0.30330  0.08120  0.66230  1.0000 0.1101580779
H   H76       1.0  0.69670  0.91880  0.16230  1.0000 0.1101580779
H   H77       1.0  0.91880  0.69670  0.83770  1.0000 0.1101580779
H   H78       1.0  0.08120  0.30330  0.33770  1.0000 0.1101580779
H   H79       1.0  0.19670  0.58120  0.58770  1.0000 0.1101580779
H   H80       1.0  0.80330  0.41880  0.08770  1.0000 0.1101580779
H   H81       1.0  0.69850  0.15030  0.46710  1.0000 0.0930155455
H   H82       1.0  0.30150  0.84970  0.96710  1.0000 0.0930155455
H   H83       1.0  0.34970  0.19850  0.71710  1.0000 0.0930155455
H   H84       1.0  0.65030  0.80150  0.21710  1.0000 0.0930155455
H   H85       1.0  0.80150  0.65030  0.78290  1.0000 0.0930155455
H   H86       1.0  0.19850  0.34970  0.28290  1.0000 0.0930155455
H   H87       1.0  0.15030  0.69850  0.53290  1.0000 0.0930155455
H   H88       1.0  0.84970  0.30150  0.03290  1.0000 0.0930155455
H   H89       1.0  0.64510  0.31290  0.60990  1.0000 0.1101580779
H   H90       1.0  0.35490  0.68710  0.10990  1.0000 0.1101580779
H   H91       1.0  0.18710  0.14510  0.85990  1.0000 0.1101580779
H   H92       1.0  0.81290  0.85490  0.35990  1.0000 0.1101580779
H   H93       1.0  0.85490  0.81290  0.64010  1.0000 0.1101580779
H   H94       1.0  0.14510  0.18710  0.14010  1.0000 0.1101580779
H   H95       1.0  0.31290  0.64510  0.39010  1.0000 0.1101580779
H   H96       1.0  0.68710  0.35490  0.89010  1.0000 0.1101580779
H   H97       1.0  0.78120  0.08710  0.53210  1.0000 0.12299168
H   H98       1.0  0.21880  0.91290  0.03210  1.0000 0.12299168
H   H99       1.0  0.41290  0.28120  0.78210  1.0000 0.12299168
H   H100      1.0  0.58710  0.71880  0.28210  1.0000 0.12299168
H   H101      1.0  0.71880  0.58710  0.71790  1.0000 0.12299168
H   H102      1.0  0.28120  0.41290  0.21790  1.0000 0.12299168
H   H103      1.0  0.08710  0.78120  0.46790  1.0000 0.12299168
H   H104      1.0  0.91290  0.21880  0.96790  1.0000 0.12299168
H   H105      1.0  0.88520  0.03970  0.59710  1.0000 0.100694361
H   H106      1.0  0.11480  0.96030  0.09710  1.0000 0.100694361
H   H107      1.0  0.46030  0.38520  0.84710  1.0000 0.100694361
H   H108      1.0  0.53970  0.61480  0.34710  1.0000 0.100694361
H   H109      1.0  0.61480  0.53970  0.65290  1.0000 0.100694361
H   H110      1.0  0.38520  0.46030  0.15290  1.0000 0.100694361
H   H111      1.0  0.03970  0.88520  0.40290  1.0000 0.100694361
H   H112      1.0  0.96030  0.11480  0.90290  1.0000 0.100694361
H   H113      1.0  0.86760  0.23000  0.70730  1.0000 0.0930155455
H   H114      1.0  0.13240  0.77000  0.20730  1.0000 0.0930155455
H   H115      1.0  0.27000  0.36760  0.95730  1.0000 0.0930155455
H   H116      1.0  0.73000  0.63240  0.45730  1.0000 0.0930155455
H   H117      1.0  0.63240  0.73000  0.54270  1.0000 0.0930155455
H   H118      1.0  0.36760  0.27000  0.04270  1.0000 0.0930155455
H   H119      1.0  0.23000  0.86760  0.29270  1.0000 0.0930155455
H   H120      1.0  0.77000  0.13240  0.79270  1.0000 0.0930155455
H   H121      1.0  0.76100  0.29060  0.64480  1.0000 0.1294303283
H   H122      1.0  0.23900  0.70940  0.14480  1.0000 0.1294303283
H   H123      1.0  0.20940  0.26100  0.89480  1.0000 0.1294303283
H   H124      1.0  0.79060  0.73900  0.39480  1.0000 0.1294303283
H   H125      1.0  0.73900  0.79060  0.60520  1.0000 0.1294303283
H   H126      1.0  0.26100  0.20940  0.10520  1.0000 0.1294303283
H   H127      1.0  0.29060  0.76100  0.35520  1.0000 0.1294303283
H   H128      1.0  0.70940  0.23900  0.85520  1.0000 0.1294303283
H   H129      1.0  0.44610  0.23420  0.60320  1.0000 0.2617123116
H   H130      1.0  0.55390  0.76580  0.10320  1.0000 0.2617123116
H   H131      1.0  0.26580  0.94610  0.85320  1.0000 0.2617123116
H   H132      1.0  0.73420  0.05390  0.35320  1.0000 0.2617123116
H   H133      1.0  0.05390  0.73420  0.64680  1.0000 0.2617123116
H   H134      1.0  0.94610  0.26580  0.14680  1.0000 0.2617123116
H   H135      1.0  0.23420  0.44610  0.39680  1.0000 0.2617123116
H   H136      1.0  0.76580  0.55390  0.89680  1.0000 0.2617123116
H   H137      1.0  0.44510  0.26180  0.67030  1.0000 0.2488439668
H   H138      1.0  0.55490  0.73820  0.17030  1.0000 0.2488439668
H   H139      1.0  0.23820  0.94510  0.92030  1.0000 0.2488439668
H   H140      1.0  0.76180  0.05490  0.42030  1.0000 0.2488439668
H   H141      1.0  0.05490  0.76180  0.57970  1.0000 0.2488439668
H   H142      1.0  0.94510  0.23820  0.07970  1.0000 0.2488439668
H   H143      1.0  0.26180  0.44510  0.32970  1.0000 0.2488439668
H   H144      1.0  0.73820  0.55490  0.82970  1.0000 0.2488439668
C   C1        1.0  0.03750  0.24290  0.78570  1.0000 0.0557113763
C   C2        1.0  0.96250  0.75710  0.28570  1.0000 0.0557113763
C   C3        1.0  0.25710  0.53750  0.03570  1.0000 0.0557113763
C   C4        1.0  0.74290  0.46250  0.53570  1.0000 0.0557113763
C   C5        1.0  0.46250  0.74290  0.46430  1.0000 0.0557113763
C   C6        1.0  0.53750  0.25710  0.96430  1.0000 0.0557113763
C   C7        1.0  0.24290  0.03750  0.21430  1.0000 0.0557113763
C   C8        1.0  0.75710  0.96250  0.71430  1.0000 0.0557113763
C   C9        1.0  0.09130  0.30980  0.78140  1.0000 -0.2217197578
C   C10       1.0  0.90870  0.69020  0.28140  1.0000 -0.2217197578
C   C11       1.0  0.19020  0.59130  0.03140  1.0000 -0.2217197578
C   C12       1.0  0.80980  0.40870  0.53140  1.0000 -0.2217197578
C   C13       1.0  0.40870  0.80980  0.46860  1.0000 -0.2217197578
C   C14       1.0  0.59130  0.19020  0.96860  1.0000 -0.2217197578
C   C15       1.0  0.30980  0.09130  0.21860  1.0000 -0.2217197578
C   C16       1.0  0.69020  0.90870  0.71860  1.0000 -0.2217197578
C   C17       1.0  0.14010  0.31820  0.72750  1.0000 0.1101580779
C   C18       1.0  0.85990  0.68180  0.22750  1.0000 0.1101580779
C   C19       1.0  0.18180  0.64010  0.97750  1.0000 0.1101580779
C   C20       1.0  0.81820  0.35990  0.47750  1.0000 0.1101580779
C   C21       1.0  0.35990  0.81820  0.52250  1.0000 0.1101580779
C   C22       1.0  0.64010  0.18180  0.02250  1.0000 0.1101580779
C   C23       1.0  0.31820  0.14010  0.27250  1.0000 0.1101580779
C   C24       1.0  0.68180  0.85990  0.77250  1.0000 0.1101580779
C   C25       1.0  0.12760  0.25990  0.68080  1.0000 -0.2217197578
C   C26       1.0  0.87240  0.74010  0.18080  1.0000 -0.2217197578
C   C27       1.0  0.24010  0.62760  0.93080  1.0000 -0.2217197578
C   C28       1.0  0.75990  0.37240  0.43080  1.0000 -0.2217197578
C   C29       1.0  0.37240  0.75990  0.56920  1.0000 -0.2217197578
C   C30       1.0  0.62760  0.24010  0.06920  1.0000 -0.2217197578
C   C31       1.0  0.25990  0.12760  0.31920  1.0000 -0.2217197578
C   C32       1.0  0.74010  0.87240  0.81920  1.0000 -0.2217197578
C   C33       1.0  0.06910  0.19470  0.69140  1.0000 0.0842169587
C   C34       1.0  0.93090  0.80530  0.19140  1.0000 0.0842169587
C   C35       1.0  0.30530  0.56910  0.94140  1.0000 0.0842169587
C   C36       1.0  0.69470  0.43090  0.44140  1.0000 0.0842169587
C   C37       1.0  0.43090  0.69470  0.55860  1.0000 0.0842169587
C   C38       1.0  0.56910  0.30530  0.05860  1.0000 0.0842169587
C   C39       1.0  0.19470  0.06910  0.30860  1.0000 0.0842169587
C   C40       1.0  0.80530  0.93090  0.80860  1.0000 0.0842169587
C   C41       1.0  0.20740  0.38270  0.72220  1.0000 0.0689249857
C   C42       1.0  0.79260  0.61730  0.22220  1.0000 0.0689249857
C   C43       1.0  0.11730  0.70740  0.97220  1.0000 0.0689249857
C   C44       1.0  0.88270  0.29260  0.47220  1.0000 0.0689249857
C   C45       1.0  0.29260  0.88270  0.52780  1.0000 0.0689249857
C   C46       1.0  0.70740  0.11730  0.02780  1.0000 0.0689249857
C   C47       1.0  0.38270  0.20740  0.27780  1.0000 0.0689249857
C   C48       1.0  0.61730  0.79260  0.77780  1.0000 0.0689249857
C   C49       1.0  0.20810  0.45460  0.76110  1.0000 -0.1612366056
C   C50       1.0  0.79190  0.54540  0.26110  1.0000 -0.1612366056
C   C51       1.0  0.04540  0.70810  0.01110  1.0000 -0.1612366056
C   C52       1.0  0.95460  0.29190  0.51110  1.0000 -0.1612366056
C   C53       1.0  0.29190  0.95460  0.48890  1.0000 -0.1612366056
C   C54       1.0  0.70810  0.04540  0.98890  1.0000 -0.1612366056
C   C55       1.0  0.45460  0.20810  0.23890  1.0000 -0.1612366056
C   C56       1.0  0.54540  0.79190  0.73890  1.0000 -0.1612366056
C   C57       1.0  0.26770  0.51650  0.75470  1.0000 -0.1198958691
C   C58       1.0  0.73230  0.48350  0.25470  1.0000 -0.1198958691
C   C59       1.0  0.98350  0.76770  0.00470  1.0000 -0.1198958691
C   C60       1.0  0.01650  0.23230  0.50470  1.0000 -0.1198958691
C   C61       1.0  0.23230  0.01650  0.49530  1.0000 -0.1198958691
C   C62       1.0  0.76770  0.98350  0.99530  1.0000 -0.1198958691
C   C63       1.0  0.51650  0.26770  0.24530  1.0000 -0.1198958691
C   C64       1.0  0.48350  0.73230  0.74530  1.0000 -0.1198958691
C   C65       1.0  0.33450  0.50410  0.71330  1.0000 -0.1612366056
C   C66       1.0  0.66550  0.49590  0.21330  1.0000 -0.1612366056
C   C67       1.0  0.99590  0.83450  0.96330  1.0000 -0.1612366056
C   C68       1.0  0.00410  0.16550  0.46330  1.0000 -0.1612366056
C   C69       1.0  0.16550  0.00410  0.53670  1.0000 -0.1612366056
C   C70       1.0  0.83450  0.99590  0.03670  1.0000 -0.1612366056
C   C71       1.0  0.50410  0.33450  0.28670  1.0000 -0.1612366056
C   C72       1.0  0.49590  0.66550  0.78670  1.0000 -0.1612366056
C   C73       1.0  0.33830  0.43230  0.67680  1.0000 0.0280642229
C   C74       1.0  0.66170  0.56770  0.17680  1.0000 0.0280642229
C   C75       1.0  0.06770  0.83830  0.92680  1.0000 0.0280642229
C   C76       1.0  0.93230  0.16170  0.42680  1.0000 0.0280642229
C   C77       1.0  0.16170  0.93230  0.57320  1.0000 0.0280642229
C   C78       1.0  0.83830  0.06770  0.07320  1.0000 0.0280642229
C   C79       1.0  0.43230  0.33830  0.32320  1.0000 0.0280642229
C   C80       1.0  0.56770  0.66170  0.82320  1.0000 0.0280642229
C   C81       1.0  0.27500  0.37230  0.68160  1.0000 -0.2006800148
C   C82       1.0  0.72500  0.62770  0.18160  1.0000 -0.2006800148
C   C83       1.0  0.12770  0.77500  0.93160  1.0000 -0.2006800148
C   C84       1.0  0.87230  0.22500  0.43160  1.0000 -0.2006800148
C   C85       1.0  0.22500  0.87230  0.56840  1.0000 -0.2006800148
C   C86       1.0  0.77500  0.12770  0.06840  1.0000 -0.2006800148
C   C87       1.0  0.37230  0.27500  0.31840  1.0000 -0.2006800148
C   C88       1.0  0.62770  0.72500  0.81840  1.0000 -0.2006800148
C   C89       1.0  0.40680  0.42350  0.63390  1.0000 0.163261297
C   C90       1.0  0.59320  0.57650  0.13390  1.0000 0.163261297
C   C91       1.0  0.07650  0.90680  0.88390  1.0000 0.163261297
C   C92       1.0  0.92350  0.09320  0.38390  1.0000 0.163261297
C   C93       1.0  0.09320  0.92350  0.61610  1.0000 0.163261297
C   C94       1.0  0.90680  0.07650  0.11610  1.0000 0.163261297
C   C95       1.0  0.42350  0.40680  0.36610  1.0000 0.163261297
C   C96       1.0  0.57650  0.59320  0.86610  1.0000 0.163261297
C   C97       1.0  0.50440  0.37530  0.57030  1.0000 0.1735015464
C   C98       1.0  0.49560  0.62470  0.07030  1.0000 0.1735015464
C   C99       1.0  0.12470  0.00440  0.82030  1.0000 0.1735015464
C   C100      1.0  0.87530  0.99560  0.32030  1.0000 0.1735015464
C   C101      1.0  0.99560  0.87530  0.67970  1.0000 0.1735015464
C   C102      1.0  0.00440  0.12470  0.17970  1.0000 0.1735015464
C   C103      1.0  0.37530  0.50440  0.42970  1.0000 0.1735015464
C   C104      1.0  0.62470  0.49560  0.92970  1.0000 0.1735015464
C   C105      1.0  0.56030  0.31060  0.53950  1.0000 0.0221710576
C   C106      1.0  0.43970  0.68940  0.03950  1.0000 0.0221710576
C   C107      1.0  0.18940  0.06030  0.78950  1.0000 0.0221710576
C   C108      1.0  0.81060  0.93970  0.28950  1.0000 0.0221710576
C   C109      1.0  0.93970  0.81060  0.71050  1.0000 0.0221710576
C   C110      1.0  0.06030  0.18940  0.21050  1.0000 0.0221710576
C   C111      1.0  0.31060  0.56030  0.46050  1.0000 0.0221710576
C   C112      1.0  0.68940  0.43970  0.96050  1.0000 0.0221710576
C   C113      1.0  0.54200  0.27970  0.48040  1.0000 -0.1612366056
C   C114      1.0  0.45800  0.72030  0.98040  1.0000 -0.1708527457
C   C115      1.0  0.22030  0.04200  0.73040  1.0000 -0.1612366056
C   C116      1.0  0.77970  0.95800  0.23040  1.0000 -0.1612366056
C   C117      1.0  0.95800  0.77970  0.76960  1.0000 -0.1708527457
C   C118      1.0  0.04200  0.22030  0.26960  1.0000 -0.1612366056
C   C119      1.0  0.27970  0.54200  0.51960  1.0000 -0.1612366056
C   C120      1.0  0.72030  0.45800  0.01960  1.0000 -0.1612366056
C   C121      1.0  0.59370  0.21850  0.45300  1.0000 -0.1033218961
C   C122      1.0  0.40630  0.78150  0.95300  1.0000 -0.1033218961
C   C123      1.0  0.28150  0.09370  0.70300  1.0000 -0.1033218961
C   C124      1.0  0.71850  0.90630  0.20300  1.0000 -0.1033218961
C   C125      1.0  0.90630  0.71850  0.79700  1.0000 -0.1033218961
C   C126      1.0  0.09370  0.28150  0.29700  1.0000 -0.1033218961
C   C127      1.0  0.21850  0.59370  0.54700  1.0000 -0.1033218961
C   C128      1.0  0.78150  0.40630  0.04700  1.0000 -0.1033218961
C   C129      1.0  0.66230  0.19070  0.48570  1.0000 -0.1708527457
C   C130      1.0  0.33770  0.80930  0.98570  1.0000 -0.1708527457
C   C131      1.0  0.30930  0.16230  0.73570  1.0000 -0.1708527457
C   C132      1.0  0.69070  0.83770  0.23570  1.0000 -0.1708527457
C   C133      1.0  0.83770  0.69070  0.76430  1.0000 -0.1708527457
C   C134      1.0  0.16230  0.30930  0.26430  1.0000 -0.1708527457
C   C135      1.0  0.19070  0.66230  0.51430  1.0000 -0.1708527457
C   C136      1.0  0.80930  0.33770  0.01430  1.0000 -0.1708527457
C   C137      1.0  0.67960  0.22190  0.54750  1.0000 0.0689249857
C   C138      1.0  0.32040  0.77810  0.04750  1.0000 0.0689249857
C   C139      1.0  0.27810  0.17960  0.79750  1.0000 0.0689249857
C   C140      1.0  0.72190  0.82040  0.29750  1.0000 0.0689249857
C   C141      1.0  0.82040  0.72190  0.70250  1.0000 0.0689249857
C   C142      1.0  0.17960  0.27810  0.20250  1.0000 0.0689249857
C   C143      1.0  0.22190  0.67960  0.45250  1.0000 0.0689249857
C   C144      1.0  0.77810  0.32040  0.95250  1.0000 0.0689249857
C   C145      1.0  0.63010  0.28610  0.57140  1.0000 -0.2006800148
C   C146      1.0  0.36990  0.71390  0.07140  1.0000 -0.2006800148
C   C147      1.0  0.21390  0.13010  0.82140  1.0000 -0.2006800148
C   C148      1.0  0.78610  0.86990  0.32140  1.0000 -0.2006800148
C   C149      1.0  0.86990  0.78610  0.67860  1.0000 -0.2006800148
C   C150      1.0  0.13010  0.21390  0.17860  1.0000 -0.2006800148
C   C151      1.0  0.28610  0.63010  0.42860  1.0000 -0.2006800148
C   C152      1.0  0.71390  0.36990  0.92860  1.0000 -0.2006800148
C   C153      1.0  0.75180  0.19040  0.58330  1.0000 0.1101580779
C   C154      1.0  0.24820  0.80960  0.08330  1.0000 0.1101580779
C   C155      1.0  0.30960  0.25180  0.83330  1.0000 0.1101580779
C   C156      1.0  0.69040  0.74820  0.33333  1.0000 0.1101580779
C   C157      1.0  0.74820  0.69040  0.66667  1.0000 0.1101580779
C   C158      1.0  0.25180  0.30960  0.16670  1.0000 0.1101580779
C   C159      1.0  0.19040  0.75180  0.41670  1.0000 0.1101580779
C   C160      1.0  0.80960  0.24820  0.91670  1.0000 0.1101580779
C   C161      1.0  0.79470  0.11780  0.56930  1.0000 -0.2217197578
C   C162      1.0  0.20530  0.88220  0.06930  1.0000 -0.2217197578
C   C163      1.0  0.38220  0.29470  0.81930  1.0000 -0.2217197578
C   C164      1.0  0.61780  0.70530  0.31930  1.0000 -0.2217197578
C   C165      1.0  0.70530  0.61780  0.68070  1.0000 -0.2217197578
C   C166      1.0  0.29470  0.38220  0.18070  1.0000 -0.2217197578
C   C167      1.0  0.11780  0.79470  0.43070  1.0000 -0.2217197578
C   C168      1.0  0.88220  0.20530  0.93070  1.0000 -0.2217197578
C   C169      1.0  0.85670  0.08970  0.60870  1.0000 0.0557113763
C   C170      1.0  0.14330  0.91030  0.10870  1.0000 0.0557113763
C   C171      1.0  0.41030  0.35670  0.85870  1.0000 0.0557113763
C   C172      1.0  0.58970  0.64330  0.35870  1.0000 0.0557113763
C   C173      1.0  0.64330  0.58970  0.64130  1.0000 0.0557113763
C   C174      1.0  0.35670  0.41030  0.14130  1.0000 0.0557113763
C   C175      1.0  0.08970  0.85670  0.39130  1.0000 0.0557113763
C   C176      1.0  0.91030  0.14330  0.89130  1.0000 0.0557113763
C   C177      1.0  0.84690  0.19940  0.67200  1.0000 0.0533489798
C   C178      1.0  0.15310  0.80060  0.17200  1.0000 0.0533489798
C   C179      1.0  0.30060  0.34690  0.92200  1.0000 0.0533489798
C   C180      1.0  0.69940  0.65310  0.42200  1.0000 0.0533489798
C   C181      1.0  0.65310  0.69940  0.57800  1.0000 0.0533489798
C   C182      1.0  0.34690  0.30060  0.07800  1.0000 0.0533489798
C   C183      1.0  0.19940  0.84690  0.32800  1.0000 0.0533489798
C   C184      1.0  0.80060  0.15310  0.82800  1.0000 0.0533489798
C   C185      1.0  0.78250  0.23660  0.63500  1.0000 -0.2312416874
C   C186      1.0  0.21750  0.76340  0.13500  1.0000 -0.2312416874
C   C187      1.0  0.26340  0.28250  0.88500  1.0000 -0.2312416874
C   C188      1.0  0.73660  0.71750  0.38500  1.0000 -0.2312416874
C   C189      1.0  0.71750  0.73660  0.61500  1.0000 -0.2312416874
C   C190      1.0  0.28250  0.26340  0.11500  1.0000 -0.2312416874
C   C191      1.0  0.23660  0.78250  0.36500  1.0000 -0.2312416874
C   C192      1.0  0.76340  0.21750  0.86500  1.0000 -0.2312416874
N   N1        1.0  0.02750  0.18700  0.74260  1.0000 -0.2217197578
N   N2        1.0  0.97250  0.81300  0.24260  1.0000 -0.2217197578
N   N3        1.0  0.31300  0.52750  0.99260  1.0000 -0.2217197578
N   N4        1.0  0.68700  0.47250  0.49260  1.0000 -0.2217197578
N   N5        1.0  0.47250  0.68700  0.50740  1.0000 -0.2217197578
N   N6        1.0  0.52750  0.31300  0.00740  1.0000 -0.2217197578
N   N7        1.0  0.18700  0.02750  0.25740  1.0000 -0.2217197578
N   N8        1.0  0.81300  0.97250  0.75740  1.0000 -0.2217197578
N   N9        1.0  0.44630  0.48740  0.60710  1.0000 -0.2800140168
N   N10       1.0  0.55370  0.51260  0.10710  1.0000 -0.2800140168
N   N11       1.0  0.01260  0.94630  0.85710  1.0000 -0.2800140168
N   N12       1.0  0.98740  0.05370  0.35710  1.0000 -0.2800140168
N   N13       1.0  0.05370  0.98740  0.64290  1.0000 -0.2800140168
N   N14       1.0  0.94630  0.01260  0.14290  1.0000 -0.2800140168
N   N15       1.0  0.48740  0.44630  0.39290  1.0000 -0.2800140168
N   N16       1.0  0.51260  0.55370  0.89290  1.0000 -0.2800140168
N   N17       1.0  0.50730  0.45650  0.56710  1.0000 -0.2312416874
N   N18       1.0  0.49270  0.54350  0.06710  1.0000 -0.2312416874
N   N19       1.0  0.04350  0.00730  0.81710  1.0000 -0.2312416874
N   N20       1.0  0.95650  0.99270  0.31710  1.0000 -0.2312416874
N   N21       1.0  0.99270  0.95650  0.68290  1.0000 -0.2312416874
N   N22       1.0  0.00730  0.04350  0.18290  1.0000 -0.2312416874
N   N23       1.0  0.45650  0.50730  0.43290  1.0000 -0.2312416874
N   N24       1.0  0.54350  0.49270  0.93290  1.0000 -0.2312416874
N   N25       1.0  0.44600  0.35290  0.61150  1.0000 0.0689249857
N   N26       1.0  0.55400  0.64710  0.11150  1.0000 0.0689249857
N   N27       1.0  0.14710  0.94600  0.86150  1.0000 0.0689249857
N   N28       1.0  0.85290  0.05400  0.36150  1.0000 0.0689249857
N   N29       1.0  0.05400  0.85290  0.63850  1.0000 0.0689249857
N   N30       1.0  0.94600  0.14710  0.13850  1.0000 0.0689249857
N   N31       1.0  0.35290  0.44600  0.38850  1.0000 0.0689249857
N   N32       1.0  0.64710  0.55400  0.88850  1.0000 0.0689249857
N   N33       1.0  0.42400  0.27170  0.63100  1.0000 -0.5128304969
N   N34       1.0  0.57600  0.72830  0.13100  1.0000 -0.5128304969
N   N35       1.0  0.22830  0.92400  0.88100  1.0000 -0.5128304969
N   N36       1.0  0.77170  0.07600  0.38100  1.0000 -0.5128304969
N   N37       1.0  0.07600  0.77170  0.61900  1.0000 -0.5128304969
N   N38       1.0  0.92400  0.22830  0.11900  1.0000 -0.5128304969
N   N39       1.0  0.27170  0.42400  0.36900  1.0000 -0.5128304969
N   N40       1.0  0.72830  0.57600  0.86900  1.0000 -0.5128304969
N   N41       1.0  0.87940  0.12630  0.66080  1.0000 -0.2312416874
N   N42       1.0  0.12060  0.87370  0.16080  1.0000 -0.2312416874
N   N43       1.0  0.37370  0.37940  0.91080  1.0000 -0.2312416874
N   N44       1.0  0.62630  0.62060  0.41080  1.0000 -0.2312416874
N   N45       1.0  0.62060  0.62630  0.58920  1.0000 -0.2312416874
N   N46       1.0  0.37940  0.37370  0.08920  1.0000 -0.2312416874
N   N47       1.0  0.12630  0.87940  0.33920  1.0000 -0.2312416874
N   N48       1.0  0.87370  0.12060  0.83920  1.0000 -0.2312416874
