# DDEC6 charges by PACMAN v1.1 (https://github.com/mtap-research/PACMAN-charge/)
data_2011[Cd][nan]3[ASR]6
_chemical_formula_sum              "Cd6 H44 C64 O32"
_cell_length_a       6.77
_cell_length_b       17.773
_cell_length_c       14.465
_cell_angle_alpha    90
_cell_angle_beta     91.276
_cell_angle_gamma    90

_symmetry_space_group_name_H-M    "P 1"
_symmetry_Int_Tables_number       1

loop_
  _symmetry_equiv_pos_as_xyz
  'x, y, z'

loop_
  _atom_site_type_symbol
  _atom_site_label
  _atom_site_symmetry_multiplicity
  _atom_site_fract_x
  _atom_site_fract_y
  _atom_site_fract_z
  _atom_site_occupancy
  _atom_site_charge
Cd  Cd1       1.0  0.00000  0.50000  0.00000  1.0000 1.0488515645
Cd  Cd2       1.0  0.50000  0.00000  0.00000  1.0000 1.0488515645
Cd  Cd3       1.0  0.55700  0.46745  0.86316  1.0000 1.0265673249
Cd  Cd4       1.0  0.94300  0.96745  0.13684  1.0000 1.0265673249
Cd  Cd5       1.0  0.44300  0.53255  0.13684  1.0000 1.0265673249
Cd  Cd6       1.0  0.05700  0.03255  0.86316  1.0000 1.0265673249
H   H1        1.0  0.13270  0.26040  0.02260  1.0000 0.1301290258
H   H2        1.0  0.36730  0.76040  0.97740  1.0000 0.1301290258
H   H3        1.0  0.86730  0.73960  0.97740  1.0000 0.1301290258
H   H4        1.0  0.63270  0.23960  0.02260  1.0000 0.1301290258
H   H5        1.0  0.27340  0.09440  0.20000  1.0000 0.1301290258
H   H6        1.0  0.22660  0.59440  0.80000  1.0000 0.1301290258
H   H7        1.0  0.72660  0.90560  0.80000  1.0000 0.1301290258
H   H8        1.0  0.77340  0.40560  0.20000  1.0000 0.1301290258
H   H9        1.0  0.33900  0.31060  0.27750  1.0000 0.1397289037
H   H10       1.0  0.16100  0.81060  0.72250  1.0000 0.1397289037
H   H11       1.0  0.66100  0.68940  0.72250  1.0000 0.1397289037
H   H12       1.0  0.83900  0.18940  0.27750  1.0000 0.1397289037
H   H13       1.0  0.49880  0.07960  0.31200  1.0000 0.1163731813
H   H14       1.0  0.00120  0.57960  0.68800  1.0000 0.1163731813
H   H15       1.0  0.50120  0.92040  0.68800  1.0000 0.1163731813
H   H16       1.0  0.99880  0.42040  0.31200  1.0000 0.1163731813
H   H17       1.0  0.29780  0.07630  0.36440  1.0000 0.1109123993
H   H18       1.0  0.20220  0.57630  0.63560  1.0000 0.1109123993
H   H19       1.0  0.70220  0.92370  0.63560  1.0000 0.1109123993
H   H20       1.0  0.79780  0.42370  0.36440  1.0000 0.1109123993
H   H21       1.0  0.80690  0.07720  0.39470  1.0000 0.1301290258
H   H22       1.0  0.69310  0.57720  0.60530  1.0000 0.1301290258
H   H23       1.0  0.19310  0.92280  0.60530  1.0000 0.1301290258
H   H24       1.0  0.30690  0.42280  0.39470  1.0000 0.1301290258
H   H25       1.0  0.97780  0.06490  0.53780  1.0000 0.1109123993
H   H26       1.0  0.52220  0.56490  0.46220  1.0000 0.1109123993
H   H27       1.0  0.02220  0.93510  0.46220  1.0000 0.1109123993
H   H28       1.0  0.47780  0.43510  0.53780  1.0000 0.1109123993
H   H29       1.0  0.47470  0.10150  0.67360  1.0000 0.1301290258
H   H30       1.0  0.02530  0.60150  0.32640  1.0000 0.1301290258
H   H31       1.0  0.52530  0.89850  0.32640  1.0000 0.1301290258
H   H32       1.0  0.97470  0.39850  0.67360  1.0000 0.1301290258
H   H33       1.0  0.31460  0.12960  0.53400  1.0000 0.1301290258
H   H34       1.0  0.18540  0.62960  0.46600  1.0000 0.1301290258
H   H35       1.0  0.68540  0.87040  0.46600  1.0000 0.1301290258
H   H36       1.0  0.81460  0.37040  0.53400  1.0000 0.1301290258
H   H37       1.0  0.97760  0.38860  0.88700  1.0000 0.2808191627
H   H38       1.0  0.52240  0.88860  0.11300  1.0000 0.2808191627
H   H39       1.0  0.02240  0.61140  0.11300  1.0000 0.2808191627
H   H40       1.0  0.47760  0.11140  0.88700  1.0000 0.2808191627
H   H41       1.0  0.01730  0.43720  0.83060  1.0000 0.3060126379
H   H42       1.0  0.48270  0.93720  0.16940  1.0000 0.3060126379
H   H43       1.0  0.98270  0.56280  0.16940  1.0000 0.3060126379
H   H44       1.0  0.51730  0.06280  0.83060  1.0000 0.3060126379
C   C1        1.0  0.23740  0.29890  0.14750  1.0000 -0.0205597477
C   C2        1.0  0.26260  0.79890  0.85250  1.0000 -0.0205597477
C   C3        1.0  0.76260  0.70110  0.85250  1.0000 -0.0205597477
C   C4        1.0  0.73740  0.20110  0.14750  1.0000 -0.0205597477
C   C5        1.0  0.18120  0.24490  0.08020  1.0000 -0.1152300686
C   C6        1.0  0.31880  0.74490  0.91980  1.0000 -0.1152300686
C   C7        1.0  0.81880  0.75510  0.91980  1.0000 -0.1126170606
C   C8        1.0  0.68120  0.25510  0.08020  1.0000 -0.1126170606
C   C9        1.0  0.19830  0.16910  0.10000  1.0000 -0.0205597477
C   C10       1.0  0.30170  0.66910  0.90000  1.0000 -0.0205597477
C   C11       1.0  0.80170  0.83090  0.90000  1.0000 -0.0205597477
C   C12       1.0  0.69830  0.33090  0.10000  1.0000 -0.0205597477
C   C13       1.0  0.26430  0.14550  0.18680  1.0000 -0.2136677951
C   C14       1.0  0.23570  0.64550  0.81320  1.0000 -0.2136677951
C   C15       1.0  0.73570  0.85450  0.81320  1.0000 -0.2136677951
C   C16       1.0  0.76430  0.35450  0.18680  1.0000 -0.2136677951
C   C17       1.0  0.31630  0.19780  0.25360  1.0000 0.2542760297
C   C18       1.0  0.18370  0.69780  0.74640  1.0000 0.2542760297
C   C19       1.0  0.68370  0.80220  0.74640  1.0000 0.2542760297
C   C20       1.0  0.81630  0.30220  0.25360  1.0000 0.2542760297
C   C21       1.0  0.30300  0.27530  0.23280  1.0000 -0.1933074743
C   C22       1.0  0.19700  0.77530  0.76720  1.0000 -0.1933074743
C   C23       1.0  0.69700  0.72470  0.76720  1.0000 -0.1933074743
C   C24       1.0  0.80300  0.22470  0.23280  1.0000 -0.1933074743
C   C25       1.0  0.22690  0.38000  0.12250  1.0000 0.5834805518
C   C26       1.0  0.27310  0.88000  0.87750  1.0000 0.5834805518
C   C27       1.0  0.77310  0.62000  0.87750  1.0000 0.5834805518
C   C28       1.0  0.72690  0.12000  0.12250  1.0000 0.5834805518
C   C29       1.0  0.14320  0.11410  0.02810  1.0000 0.5679978281
C   C30       1.0  0.35680  0.61410  0.97190  1.0000 0.5679978281
C   C31       1.0  0.85680  0.88590  0.97190  1.0000 0.5679978281
C   C32       1.0  0.64320  0.38590  0.02810  1.0000 0.5679978281
C   C33       1.0  0.85200  0.07300  0.70900  1.0000 0.5459264069
C   C34       1.0  0.64800  0.57300  0.29100  1.0000 0.5459264069
C   C35       1.0  0.14800  0.92700  0.29100  1.0000 0.5459264069
C   C36       1.0  0.35200  0.42700  0.70900  1.0000 0.5459264069
C   C37       1.0  0.74100  0.08810  0.62010  1.0000 -0.0360672521
C   C38       1.0  0.75900  0.58810  0.37990  1.0000 -0.0360672521
C   C39       1.0  0.25900  0.91190  0.37990  1.0000 -0.0360672521
C   C40       1.0  0.24100  0.41190  0.62010  1.0000 -0.0360672521
C   C41       1.0  0.42200  0.10280  0.36020  1.0000 -0.0599459289
C   C42       1.0  0.07800  0.60280  0.63980  1.0000 -0.0599459289
C   C43       1.0  0.57800  0.89720  0.63980  1.0000 -0.0599459289
C   C44       1.0  0.92200  0.39720  0.36020  1.0000 -0.0599459289
C   C45       1.0  0.53400  0.09890  0.45100  1.0000 0.0993748344
C   C46       1.0  0.96600  0.59890  0.54900  1.0000 0.0993748344
C   C47       1.0  0.46600  0.90110  0.54900  1.0000 0.0993748344
C   C48       1.0  0.03400  0.40110  0.45100  1.0000 0.0993748344
C   C49       1.0  0.74200  0.08310  0.45020  1.0000 -0.1552682967
C   C50       1.0  0.75800  0.58310  0.54980  1.0000 -0.1552682967
C   C51       1.0  0.25800  0.91690  0.54980  1.0000 -0.1531968713
C   C52       1.0  0.24200  0.41690  0.45020  1.0000 -0.1552682967
C   C53       1.0  0.84400  0.07660  0.53590  1.0000 -0.1126170606
C   C54       1.0  0.65600  0.57660  0.46410  1.0000 -0.1126170606
C   C55       1.0  0.15600  0.92340  0.46410  1.0000 -0.1126170606
C   C56       1.0  0.34400  0.42340  0.53590  1.0000 -0.1126170606
C   C57       1.0  0.54400  0.10060  0.61870  1.0000 -0.0951948762
C   C58       1.0  0.95600  0.60060  0.38130  1.0000 -0.0951948762
C   C59       1.0  0.45600  0.89940  0.38130  1.0000 -0.0951948762
C   C60       1.0  0.04400  0.39940  0.61870  1.0000 -0.0951948762
C   C61       1.0  0.44400  0.11240  0.53430  1.0000 -0.1385721416
C   C62       1.0  0.05600  0.61240  0.46570  1.0000 -0.1385721416
C   C63       1.0  0.55600  0.88760  0.46570  1.0000 -0.1385721416
C   C64       1.0  0.94400  0.38760  0.53430  1.0000 -0.1385721416
O   O1        1.0  0.13420  0.39670  0.04920  1.0000 -0.5706643016
O   O2        1.0  0.36580  0.89670  0.95080  1.0000 -0.5706643016
O   O3        1.0  0.86580  0.60330  0.95080  1.0000 -0.5706643016
O   O4        1.0  0.63420  0.10330  0.04920  1.0000 -0.5706643016
O   O5        1.0  0.92220  0.42830  0.86640  1.0000 -0.6598849744
O   O6        1.0  0.57780  0.92830  0.13360  1.0000 -0.6598849744
O   O7        1.0  0.07780  0.57170  0.13360  1.0000 -0.6598849744
O   O8        1.0  0.42220  0.07170  0.86640  1.0000 -0.6598849744
O   O9        1.0  0.31550  0.42510  0.17620  1.0000 -0.5558265299
O   O10       1.0  0.18450  0.92510  0.82380  1.0000 -0.5558265299
O   O11       1.0  0.68450  0.57490  0.82380  1.0000 -0.5558265299
O   O12       1.0  0.81550  0.07490  0.17620  1.0000 -0.5558265299
O   O13       1.0  0.18060  0.04200  0.04090  1.0000 -0.6530103684
O   O14       1.0  0.31940  0.54200  0.95910  1.0000 -0.6530103684
O   O15       1.0  0.81940  0.95800  0.95910  1.0000 -0.6530103684
O   O16       1.0  0.68060  0.45800  0.04090  1.0000 -0.6530103684
O   O17       1.0  0.06520  0.13510  0.95270  1.0000 -0.4926086814
O   O18       1.0  0.43480  0.63510  0.04730  1.0000 -0.4926086814
O   O19       1.0  0.93480  0.86490  0.04730  1.0000 -0.4926086814
O   O20       1.0  0.56520  0.36490  0.95270  1.0000 -0.4926086814
O   O21       1.0  0.38870  0.17860  0.33950  1.0000 -0.1531968713
O   O22       1.0  0.11130  0.67860  0.66050  1.0000 -0.1531968713
O   O23       1.0  0.61130  0.82140  0.66050  1.0000 -0.1531968713
O   O24       1.0  0.88870  0.32140  0.33950  1.0000 -0.1531968713
O   O25       1.0  0.76300  0.04810  0.77780  1.0000 -0.5493714065
O   O26       1.0  0.73700  0.54810  0.22220  1.0000 -0.5493714065
O   O27       1.0  0.23700  0.95190  0.22220  1.0000 -0.5493714065
O   O28       1.0  0.26300  0.45190  0.77780  1.0000 -0.5493714065
O   O29       1.0  0.03620  0.07900  0.71250  1.0000 -0.5237234086
O   O30       1.0  0.46380  0.57900  0.28750  1.0000 -0.5237234086
O   O31       1.0  0.96380  0.92100  0.28750  1.0000 -0.5237234086
O   O32       1.0  0.53620  0.42100  0.71250  1.0000 -0.5237234086
