# DDEC6 charges by PACMAN v1.1 (https://github.com/mtap-research/PACMAN-charge/)
data_2011[Dy][flu]3[ASR]1
_chemical_formula_sum              "Dy2 H14 C30 O14"
_cell_length_a       9.341
_cell_length_b       9.813
_cell_length_c       11.395
_cell_angle_alpha    94.247
_cell_angle_beta     99.087
_cell_angle_gamma    111.259

_symmetry_space_group_name_H-M    "P 1"
_symmetry_Int_Tables_number       1

loop_
  _symmetry_equiv_pos_as_xyz
  'x, y, z'

loop_
  _atom_site_type_symbol
  _atom_site_label
  _atom_site_symmetry_multiplicity
  _atom_site_fract_x
  _atom_site_fract_y
  _atom_site_fract_z
  _atom_site_occupancy
  _atom_site_charge
Dy  Dy1       1.0  0.77815  0.54517  0.98729  1.0000 2.0673991271
Dy  Dy2       1.0  0.22185  0.45483  0.01271  1.0000 2.0673991271
H   H1        1.0  0.43250  0.39280  0.57850  1.0000 0.113693399
H   H2        1.0  0.56750  0.60720  0.42150  1.0000 0.113693399
H   H3        1.0  0.34580  0.27280  0.38240  1.0000 0.149418337
H   H4        1.0  0.65420  0.72720  0.61760  1.0000 0.149418337
H   H5        1.0  0.67940  0.10310  0.43330  1.0000 0.129853455
H   H6        1.0  0.32060  0.89690  0.56670  1.0000 0.129853455
H   H7        1.0  0.76920  0.22690  0.62280  1.0000 0.1195468583
H   H8        1.0  0.23080  0.77310  0.37720  1.0000 0.1195468583
H   H9        1.0  0.69700  0.29020  0.22350  1.0000 0.1424631554
H   H10       1.0  0.30300  0.70980  0.77650  1.0000 0.1424631554
H   H11       1.0  0.82240  0.00120  0.03940  1.0000 0.1424631554
H   H12       1.0  0.17760  0.99880  0.96060  1.0000 0.1424631554
H   H13       1.0  0.41980  0.85950  0.16280  1.0000 0.1424631554
H   H14       1.0  0.58020  0.14050  0.83720  1.0000 0.1424631554
C   C1        1.0  0.67570  0.41170  0.74420  1.0000 0.555186791
C   C2        1.0  0.32430  0.58830  0.25580  1.0000 0.555186791
C   C3        1.0  0.61560  0.32850  0.62340  1.0000 -0.0695473052
C   C4        1.0  0.38440  0.67150  0.37660  1.0000 -0.0695473052
C   C5        1.0  0.48440  0.33710  0.54870  1.0000 -0.0695473052
C   C6        1.0  0.51560  0.66290  0.45130  1.0000 -0.0695473052
C   C7        1.0  0.43070  0.26390  0.43120  1.0000 -0.2088294945
C   C8        1.0  0.56930  0.73610  0.56880  1.0000 -0.2088294945
C   C9        1.0  0.50480  0.17880  0.38870  1.0000 0.2559632488
C   C10       1.0  0.49520  0.82120  0.61130  1.0000 0.2559632488
C   C11       1.0  0.63170  0.16340  0.46210  1.0000 -0.2191442422
C   C12       1.0  0.36830  0.83660  0.53790  1.0000 -0.2191442422
C   C13       1.0  0.68420  0.23710  0.57510  1.0000 -0.061602006
C   C14       1.0  0.31580  0.76290  0.42490  1.0000 -0.061602006
C   C15       1.0  0.54870  0.07820  0.20730  1.0000 0.2266278022
C   C16       1.0  0.45130  0.92180  0.79270  1.0000 0.2266278022
C   C17       1.0  0.67800  0.19390  0.19130  1.0000 -0.2191442422
C   C18       1.0  0.32200  0.80610  0.80870  1.0000 -0.2191442422
C   C19       1.0  0.77960  0.16460  0.12630  1.0000 -0.0028771985
C   C20       1.0  0.22040  0.83540  0.87370  1.0000 -0.0028771985
C   C21       1.0  0.75070  0.02110  0.07880  1.0000 -0.1211226604
C   C22       1.0  0.24930  0.97890  0.92120  1.0000 -0.1211226604
C   C23       1.0  0.61520  0.90690  0.08990  1.0000 -0.0141027629
C   C24       1.0  0.38480  0.09310  0.91010  1.0000 -0.0141027629
C   C25       1.0  0.51140  0.93510  0.15500  1.0000 -0.1913707576
C   C26       1.0  0.48860  0.06490  0.84500  1.0000 -0.1913707576
C   C27       1.0  0.91960  0.28860  0.10300  1.0000 0.6330103703
C   C28       1.0  0.08040  0.71140  0.89700  1.0000 0.6330103703
C   C29       1.0  0.57880  0.75270  0.03160  1.0000 0.6531818338
C   C30       1.0  0.42120  0.24730  0.96840  1.0000 0.6531818338
O   O1        1.0  0.62130  0.50480  0.78100  1.0000 -0.6190315954
O   O2        1.0  0.37870  0.49520  0.21900  1.0000 -0.6190315954
O   O3        1.0  0.78160  0.38990  0.81450  1.0000 -0.6362278632
O   O4        1.0  0.21840  0.61010  0.18550  1.0000 -0.6362278632
O   O5        1.0  0.90360  0.40460  0.07570  1.0000 -0.7210616938
O   O6        1.0  0.09640  0.59540  0.92430  1.0000 -0.7210616938
O   O7        1.0  0.04680  0.27060  0.10790  1.0000 -0.6190315954
O   O8        1.0  0.95320  0.72940  0.89210  1.0000 -0.6190315954
O   O9        1.0  0.44790  0.65550  0.03030  1.0000 -0.6832122675
O   O10       1.0  0.55210  0.34450  0.96970  1.0000 -0.6832122675
O   O11       1.0  0.68700  0.73100  0.99020  1.0000 -0.6665882043
O   O12       1.0  0.31300  0.26900  0.00980  1.0000 -0.6665882043
O   O13       1.0  0.44420  0.10510  0.27350  1.0000 -0.2088294945
O   O14       1.0  0.55580  0.89490  0.72650  1.0000 -0.2088294945
