# DDEC6 charges by PACMAN v1.1 (https://github.com/mtap-research/PACMAN-charge/)
data_2011[Cu][ssb]3[ASR]1
_chemical_formula_sum              "Cu12 H64 C144 N16 O32"
_cell_length_a       22.4291
_cell_length_b       22.4291
_cell_length_c       22.4291
_cell_angle_alpha    130.965
_cell_angle_beta     130.965
_cell_angle_gamma    71.8695

_symmetry_space_group_name_H-M    "P 1"
_symmetry_Int_Tables_number       1

loop_
  _symmetry_equiv_pos_as_xyz
  'x, y, z'

loop_
  _atom_site_type_symbol
  _atom_site_label
  _atom_site_symmetry_multiplicity
  _atom_site_fract_x
  _atom_site_fract_y
  _atom_site_fract_z
  _atom_site_occupancy
  _atom_site_charge
Cu  Cu1       1.0  0.49377  0.06025  0.99922  1.0000 0.9074734324
Cu  Cu2       1.0  0.06103  0.49455  0.00078  1.0000 0.9074734324
Cu  Cu3       1.0  0.06025  0.06103  0.56648  1.0000 0.9074734324
Cu  Cu4       1.0  0.49455  0.49377  0.43352  1.0000 0.9074734324
Cu  Cu5       1.0  0.50623  0.93975  0.00078  1.0000 0.9074734324
Cu  Cu6       1.0  0.93897  0.50545  0.99922  1.0000 0.9074734324
Cu  Cu7       1.0  0.93975  0.93897  0.43352  1.0000 0.9074734324
Cu  Cu8       1.0  0.50545  0.50623  0.56648  1.0000 0.9074734324
Cu  Cu9       1.0  0.28760  0.99870  0.28630  1.0000 0.5616384992
Cu  Cu10      1.0  0.71240  0.00130  0.71370  1.0000 0.5616384992
Cu  Cu11      1.0  0.99870  0.71240  0.71110  1.0000 0.5616384992
Cu  Cu12      1.0  0.00130  0.28760  0.28890  1.0000 0.5616384992
H   H1        1.0  0.50690  0.23840  0.26070  1.0000 0.1389025279
H   H2        1.0  0.97770  0.24620  0.73930  1.0000 0.1389025279
H   H3        1.0  0.23840  0.97770  0.73150  1.0000 0.1389025279
H   H4        1.0  0.24620  0.50690  0.26850  1.0000 0.1389025279
H   H5        1.0  0.49310  0.76160  0.73930  1.0000 0.1389025279
H   H6        1.0  0.02230  0.75380  0.26070  1.0000 0.1389025279
H   H7        1.0  0.76160  0.02230  0.26850  1.0000 0.1389025279
H   H8        1.0  0.75380  0.49310  0.73150  1.0000 0.1389025279
H   H9        1.0  0.43350  0.25560  0.40090  1.0000 0.1310778981
H   H10       1.0  0.85470  0.03260  0.59910  1.0000 0.1310778981
H   H11       1.0  0.25560  0.85470  0.82210  1.0000 0.1310778981
H   H12       1.0  0.03260  0.43350  0.17790  1.0000 0.1310778981
H   H13       1.0  0.56650  0.74440  0.59910  1.0000 0.1310778981
H   H14       1.0  0.14530  0.96740  0.40090  1.0000 0.1310778981
H   H15       1.0  0.74440  0.14530  0.17790  1.0000 0.1310778981
H   H16       1.0  0.96740  0.56650  0.82210  1.0000 0.1310778981
H   H17       1.0  0.42770  0.03300  0.17650  1.0000 0.1310778981
H   H18       1.0  0.85650  0.25120  0.82350  1.0000 0.1310778981
H   H19       1.0  0.03300  0.85650  0.60530  1.0000 0.1310778981
H   H20       1.0  0.25120  0.42770  0.39470  1.0000 0.1310778981
H   H21       1.0  0.57230  0.96700  0.82350  1.0000 0.1310778981
H   H22       1.0  0.14350  0.74880  0.17650  1.0000 0.1310778981
H   H23       1.0  0.96700  0.14350  0.39470  1.0000 0.1310778981
H   H24       1.0  0.74880  0.57230  0.60530  1.0000 0.1310778981
H   H25       1.0  0.54390  0.17980  0.48130  1.0000 0.1310778981
H   H26       1.0  0.69850  0.06260  0.51870  1.0000 0.1310778981
H   H27       1.0  0.17980  0.69850  0.63590  1.0000 0.1310778981
H   H28       1.0  0.06260  0.54390  0.36410  1.0000 0.1310778981
H   H29       1.0  0.45610  0.82020  0.51870  1.0000 0.1310778981
H   H30       1.0  0.30150  0.93740  0.48130  1.0000 0.1310778981
H   H31       1.0  0.82020  0.30150  0.36410  1.0000 0.1310778981
H   H32       1.0  0.93740  0.45610  0.63590  1.0000 0.1310778981
H   H33       1.0  0.28030  0.06630  0.10480  1.0000 0.1310778981
H   H34       1.0  0.96150  0.17550  0.89520  1.0000 0.1310778981
H   H35       1.0  0.06630  0.96150  0.78600  1.0000 0.1310778981
H   H36       1.0  0.17550  0.28030  0.21400  1.0000 0.1310778981
H   H37       1.0  0.71970  0.93370  0.89520  1.0000 0.1310778981
H   H38       1.0  0.03850  0.82450  0.10480  1.0000 0.1310778981
H   H39       1.0  0.93370  0.03850  0.21400  1.0000 0.1310778981
H   H40       1.0  0.82450  0.71970  0.78600  1.0000 0.1310778981
H   H41       1.0  0.50130  0.09220  0.59350  1.0000 0.1389025279
H   H42       1.0  0.49870  0.90780  0.40650  1.0000 0.1389025279
H   H43       1.0  0.09220  0.49870  0.59090  1.0000 0.1389025279
H   H44       1.0  0.90780  0.50130  0.40910  1.0000 0.1389025279
H   H45       1.0  0.05640  0.91980  0.97620  1.0000 0.1310778981
H   H46       1.0  0.94360  0.08020  0.02380  1.0000 0.1310778981
H   H47       1.0  0.91980  0.94360  0.86340  1.0000 0.1310778981
H   H48       1.0  0.08020  0.05640  0.13660  1.0000 0.1310778981
H   H49       1.0  0.57960  0.16030  0.59970  1.0000 0.1389025279
H   H50       1.0  0.56060  0.97990  0.40030  1.0000 0.1389025279
H   H51       1.0  0.16030  0.56060  0.58070  1.0000 0.1389025279
H   H52       1.0  0.97990  0.57960  0.41930  1.0000 0.1389025279
H   H53       1.0  0.42040  0.83970  0.40030  1.0000 0.1389025279
H   H54       1.0  0.43940  0.02010  0.59970  1.0000 0.1389025279
H   H55       1.0  0.83970  0.43940  0.41930  1.0000 0.1389025279
H   H56       1.0  0.02010  0.42040  0.58070  1.0000 0.1389025279
H   H57       1.0  0.14070  0.97890  0.97240  1.0000 0.1310778981
H   H58       1.0  0.00650  0.16830  0.02760  1.0000 0.1310778981
H   H59       1.0  0.97890  0.00650  0.83820  1.0000 0.1310778981
H   H60       1.0  0.16830  0.14070  0.16180  1.0000 0.1310778981
H   H61       1.0  0.85930  0.02110  0.02760  1.0000 0.1310778981
H   H62       1.0  0.99350  0.83170  0.97240  1.0000 0.1310778981
H   H63       1.0  0.02110  0.99350  0.16180  1.0000 0.1310778981
H   H64       1.0  0.83170  0.85930  0.83820  1.0000 0.1310778981
C   C1        1.0  0.48280  0.07800  0.13520  1.0000 0.5968430885
C   C2        1.0  0.94280  0.34760  0.86480  1.0000 0.5968430885
C   C3        1.0  0.07800  0.94280  0.59520  1.0000 0.5968430885
C   C4        1.0  0.34760  0.48280  0.40480  1.0000 0.5968430885
C   C5        1.0  0.51720  0.92200  0.86480  1.0000 0.5968430885
C   C6        1.0  0.05720  0.65240  0.13520  1.0000 0.5968430885
C   C7        1.0  0.92200  0.05720  0.40480  1.0000 0.5968430885
C   C8        1.0  0.65240  0.51720  0.59520  1.0000 0.5968430885
C   C9        1.0  0.48730  0.34540  0.40850  1.0000 0.5852969536
C   C10       1.0  0.93690  0.07880  0.59150  1.0000 0.5852969536
C   C11       1.0  0.34540  0.93690  0.85810  1.0000 0.5852969536
C   C12       1.0  0.07880  0.48730  0.14190  1.0000 0.5852969536
C   C13       1.0  0.51270  0.65460  0.59150  1.0000 0.5852969536
C   C14       1.0  0.06310  0.92120  0.40850  1.0000 0.5852969536
C   C15       1.0  0.65460  0.06310  0.14190  1.0000 0.5852969536
C   C16       1.0  0.92120  0.51270  0.85810  1.0000 0.5852969536
C   C17       1.0  0.46880  0.13140  0.21060  1.0000 -0.0200174742
C   C18       1.0  0.92080  0.25820  0.78940  1.0000 -0.0200174742
C   C19       1.0  0.13140  0.92080  0.66260  1.0000 -0.0200174742
C   C20       1.0  0.25820  0.46880  0.33740  1.0000 -0.0200174742
C   C21       1.0  0.53120  0.86860  0.78940  1.0000 -0.0200174742
C   C22       1.0  0.07920  0.74180  0.21060  1.0000 -0.0200174742
C   C23       1.0  0.86860  0.07920  0.33740  1.0000 -0.0200174742
C   C24       1.0  0.74180  0.53120  0.66260  1.0000 -0.0200174742
C   C25       1.0  0.48660  0.21340  0.26740  1.0000 -0.1154090738
C   C26       1.0  0.94600  0.21920  0.73260  1.0000 -0.1154090738
C   C27       1.0  0.21340  0.94600  0.72680  1.0000 -0.1154090738
C   C28       1.0  0.21920  0.48660  0.27320  1.0000 -0.1154090738
C   C29       1.0  0.51340  0.78660  0.73260  1.0000 -0.1154090738
C   C30       1.0  0.05400  0.78080  0.26740  1.0000 -0.1154090738
C   C31       1.0  0.78660  0.05400  0.27320  1.0000 -0.1154090738
C   C32       1.0  0.78080  0.51340  0.72680  1.0000 -0.1154090738
C   C33       1.0  0.47160  0.25630  0.33650  1.0000 -0.0200174742
C   C34       1.0  0.91980  0.13510  0.66350  1.0000 -0.0200174742
C   C35       1.0  0.25630  0.91980  0.78470  1.0000 -0.0200174742
C   C36       1.0  0.13510  0.47160  0.21530  1.0000 -0.0200174742
C   C37       1.0  0.52840  0.74370  0.66350  1.0000 -0.0200174742
C   C38       1.0  0.08020  0.86490  0.33650  1.0000 -0.0200174742
C   C39       1.0  0.74370  0.08020  0.21530  1.0000 -0.0200174742
C   C40       1.0  0.86490  0.52840  0.78470  1.0000 -0.0200174742
C   C41       1.0  0.44150  0.22310  0.35180  1.0000 -0.1659325263
C   C42       1.0  0.87130  0.08970  0.64820  1.0000 -0.1659325263
C   C43       1.0  0.22310  0.87130  0.78160  1.0000 -0.1659325263
C   C44       1.0  0.08970  0.44150  0.21840  1.0000 -0.1659325263
C   C45       1.0  0.55850  0.77690  0.64820  1.0000 -0.1659325263
C   C46       1.0  0.12870  0.91030  0.35180  1.0000 -0.1659325263
C   C47       1.0  0.77690  0.12870  0.21840  1.0000 -0.1659325263
C   C48       1.0  0.91030  0.55850  0.78160  1.0000 -0.1659325263
C   C49       1.0  0.42530  0.13810  0.28740  1.0000 0.096230581
C   C50       1.0  0.85070  0.13790  0.71260  1.0000 0.096230581
C   C51       1.0  0.13810  0.85070  0.71280  1.0000 0.096230581
C   C52       1.0  0.13790  0.42530  0.28720  1.0000 0.096230581
C   C53       1.0  0.57470  0.86190  0.71260  1.0000 0.096230581
C   C54       1.0  0.14930  0.86210  0.28740  1.0000 0.096230581
C   C55       1.0  0.86190  0.14930  0.28720  1.0000 0.096230581
C   C56       1.0  0.86210  0.57470  0.71280  1.0000 0.096230581
C   C57       1.0  0.43830  0.09030  0.21780  1.0000 -0.15891323
C   C58       1.0  0.87250  0.22050  0.78220  1.0000 -0.15891323
C   C59       1.0  0.09030  0.87250  0.65200  1.0000 -0.15891323
C   C60       1.0  0.22050  0.43830  0.34800  1.0000 -0.15891323
C   C61       1.0  0.56170  0.90970  0.78220  1.0000 -0.15891323
C   C62       1.0  0.12750  0.77950  0.21780  1.0000 -0.15891323
C   C63       1.0  0.90970  0.12750  0.34800  1.0000 -0.15891323
C   C64       1.0  0.77950  0.56170  0.65200  1.0000 -0.15891323
C   C65       1.0  0.38680  0.09730  0.29090  1.0000 -0.0507750804
C   C66       1.0  0.80640  0.09590  0.70910  1.0000 -0.0507750804
C   C67       1.0  0.09730  0.80640  0.71050  1.0000 -0.0507750804
C   C68       1.0  0.09590  0.38680  0.28950  1.0000 -0.0507750804
C   C69       1.0  0.61320  0.90270  0.70910  1.0000 -0.0507750804
C   C70       1.0  0.19360  0.90410  0.29090  1.0000 -0.0507750804
C   C71       1.0  0.90270  0.19360  0.28950  1.0000 -0.0507750804
C   C72       1.0  0.90410  0.61320  0.71050  1.0000 -0.0507750804
C   C73       1.0  0.30810  0.05340  0.20610  1.0000 0.2053174996
C   C74       1.0  0.84730  0.10200  0.79390  1.0000 0.2053174996
C   C75       1.0  0.05340  0.84730  0.74530  1.0000 0.2053174996
C   C76       1.0  0.10200  0.30810  0.25470  1.0000 0.2053174996
C   C77       1.0  0.69190  0.94660  0.79390  1.0000 0.2053174996
C   C78       1.0  0.15270  0.89800  0.20610  1.0000 0.2053174996
C   C79       1.0  0.94660  0.15270  0.25470  1.0000 0.2053174996
C   C80       1.0  0.89800  0.69190  0.74530  1.0000 0.2053174996
C   C81       1.0  0.43110  0.10540  0.37950  1.0000 0.1522782618
C   C82       1.0  0.72590  0.05160  0.62050  1.0000 0.1522782618
C   C83       1.0  0.10540  0.72590  0.67430  1.0000 0.1522782618
C   C84       1.0  0.05160  0.43110  0.32570  1.0000 0.1522782618
C   C85       1.0  0.56890  0.89460  0.62050  1.0000 0.1522782618
C   C86       1.0  0.27410  0.94840  0.37950  1.0000 0.1522782618
C   C87       1.0  0.89460  0.27410  0.32570  1.0000 0.1522782618
C   C88       1.0  0.94840  0.56890  0.67430  1.0000 0.1522782618
C   C89       1.0  0.51020  0.14930  0.46850  1.0000 -0.1921988106
C   C90       1.0  0.68080  0.04170  0.53150  1.0000 -0.1921988106
C   C91       1.0  0.14930  0.68080  0.63910  1.0000 -0.1921988106
C   C92       1.0  0.04170  0.51020  0.36090  1.0000 -0.1921988106
C   C93       1.0  0.48980  0.85070  0.53150  1.0000 -0.1921988106
C   C94       1.0  0.31920  0.95830  0.46850  1.0000 -0.1921988106
C   C95       1.0  0.85070  0.31920  0.36090  1.0000 -0.1921988106
C   C96       1.0  0.95830  0.48980  0.63910  1.0000 -0.1921988106
C   C97       1.0  0.26090  0.04320  0.11410  1.0000 -0.204419454
C   C98       1.0  0.92910  0.14680  0.88590  1.0000 -0.204419454
C   C99       1.0  0.04320  0.92910  0.78230  1.0000 -0.204419454
C   C100      1.0  0.14680  0.26090  0.21770  1.0000 -0.204419454
C   C101      1.0  0.73910  0.95680  0.88590  1.0000 -0.204419454
C   C102      1.0  0.07090  0.85320  0.11410  1.0000 -0.204419454
C   C103      1.0  0.95680  0.07090  0.21770  1.0000 -0.204419454
C   C104      1.0  0.85320  0.73910  0.78230  1.0000 -0.204419454
C   C105      1.0  0.17890  0.97530  0.08660  1.0000 0.2570960992
C   C106      1.0  0.88870  0.09230  0.91340  1.0000 0.2570960992
C   C107      1.0  0.97530  0.88870  0.79640  1.0000 0.2570960992
C   C108      1.0  0.09230  0.17890  0.20360  1.0000 0.2570960992
C   C109      1.0  0.82110  0.02470  0.91340  1.0000 0.2570960992
C   C110      1.0  0.11130  0.90770  0.08660  1.0000 0.2570960992
C   C111      1.0  0.02470  0.11130  0.20360  1.0000 0.2570960992
C   C112      1.0  0.90770  0.82110  0.79640  1.0000 0.2570960992
C   C113      1.0  0.45800  0.09090  0.48050  1.0000 0.268238301
C   C114      1.0  0.61040  0.97750  0.51950  1.0000 0.268238301
C   C115      1.0  0.09090  0.61040  0.63290  1.0000 0.268238301
C   C116      1.0  0.97750  0.45800  0.36710  1.0000 0.268238301
C   C117      1.0  0.54200  0.90910  0.51950  1.0000 0.268238301
C   C118      1.0  0.38960  0.02250  0.48050  1.0000 0.268238301
C   C119      1.0  0.90910  0.38960  0.36710  1.0000 0.268238301
C   C120      1.0  0.02250  0.54200  0.63290  1.0000 0.268238301
C   C121      1.0  0.45490  0.07100  0.52590  1.0000 -0.2624678066
C   C122      1.0  0.54510  0.92900  0.47410  1.0000 -0.2624678066
C   C123      1.0  0.07100  0.54510  0.61610  1.0000 -0.2624678066
C   C124      1.0  0.92900  0.45490  0.38390  1.0000 -0.2624678066
C   C125      1.0  0.10600  0.93190  0.03790  1.0000 -0.3066369495
C   C126      1.0  0.89400  0.06810  0.96210  1.0000 -0.3066369495
C   C127      1.0  0.93190  0.89400  0.82590  1.0000 -0.3066369495
C   C128      1.0  0.06810  0.10600  0.17410  1.0000 -0.3066369495
C   C129      1.0  0.52980  0.13950  0.53390  1.0000 -0.1921988106
C   C130      1.0  0.60560  0.99590  0.46610  1.0000 -0.1921988106
C   C131      1.0  0.13950  0.60560  0.60970  1.0000 -0.1921988106
C   C132      1.0  0.99590  0.52980  0.39030  1.0000 -0.1921988106
C   C133      1.0  0.47020  0.86050  0.46610  1.0000 -0.1921988106
C   C134      1.0  0.39440  0.00410  0.53390  1.0000 -0.1921988106
C   C135      1.0  0.86050  0.39440  0.39030  1.0000 -0.1921988106
C   C136      1.0  0.00410  0.47020  0.60970  1.0000 -0.1921988106
C   C137      1.0  0.18180  0.99470  0.03870  1.0000 -0.15891323
C   C138      1.0  0.95600  0.14310  0.96130  1.0000 -0.15891323
C   C139      1.0  0.99470  0.95600  0.81290  1.0000 -0.15891323
C   C140      1.0  0.14310  0.18180  0.18710  1.0000 -0.15891323
C   C141      1.0  0.81820  0.00530  0.96130  1.0000 -0.15891323
C   C142      1.0  0.04400  0.85690  0.03870  1.0000 -0.15891323
C   C143      1.0  0.00530  0.04400  0.18710  1.0000 -0.15891323
C   C144      1.0  0.85690  0.81820  0.81290  1.0000 -0.15891323
N   N1        1.0  0.39970  0.07160  0.39130  1.0000 -0.3544905981
N   N2        1.0  0.68030  0.00840  0.60870  1.0000 -0.3544905981
N   N3        1.0  0.07160  0.68030  0.67190  1.0000 -0.3544905981
N   N4        1.0  0.00840  0.39970  0.32810  1.0000 -0.3544905981
N   N5        1.0  0.60030  0.92840  0.60870  1.0000 -0.3544905981
N   N6        1.0  0.31970  0.99160  0.39130  1.0000 -0.3544905981
N   N7        1.0  0.92840  0.31970  0.32810  1.0000 -0.3544905981
N   N8        1.0  0.99160  0.60030  0.67190  1.0000 -0.3544905981
N   N9        1.0  0.25440  0.00910  0.18410  1.0000 -0.392096465
N   N10       1.0  0.82500  0.07030  0.81590  1.0000 -0.392096465
N   N11       1.0  0.00910  0.82500  0.75470  1.0000 -0.392096465
N   N12       1.0  0.07030  0.25440  0.24530  1.0000 -0.392096465
N   N13       1.0  0.74560  0.99090  0.81590  1.0000 -0.392096465
N   N14       1.0  0.17500  0.92970  0.18410  1.0000 -0.392096465
N   N15       1.0  0.99090  0.17500  0.24530  1.0000 -0.392096465
N   N16       1.0  0.92970  0.74560  0.75470  1.0000 -0.392096465
O   O1        1.0  0.48830  0.11570  0.11120  1.0000 -0.5578964553
O   O2        1.0  0.00450  0.37710  0.88880  1.0000 -0.5578964553
O   O3        1.0  0.11570  0.00450  0.62740  1.0000 -0.5578964553
O   O4        1.0  0.37710  0.48830  0.37260  1.0000 -0.5578964553
O   O5        1.0  0.51170  0.88430  0.88880  1.0000 -0.5578964553
O   O6        1.0  0.99550  0.62290  0.11120  1.0000 -0.5578964553
O   O7        1.0  0.88430  0.99550  0.37260  1.0000 -0.5578964553
O   O8        1.0  0.62290  0.51170  0.62740  1.0000 -0.5578964553
O   O9        1.0  0.49540  0.00910  0.10410  1.0000 -0.4692031568
O   O10       1.0  0.90500  0.39130  0.89590  1.0000 -0.4692031568
O   O11       1.0  0.00910  0.90500  0.51370  1.0000 -0.4692031568
O   O12       1.0  0.39130  0.49540  0.48630  1.0000 -0.4692031568
O   O13       1.0  0.50460  0.99090  0.89590  1.0000 -0.4692031568
O   O14       1.0  0.09500  0.60870  0.10410  1.0000 -0.4692031568
O   O15       1.0  0.99090  0.09500  0.48630  1.0000 -0.4692031568
O   O16       1.0  0.60870  0.50460  0.51370  1.0000 -0.4692031568
O   O17       1.0  0.48960  0.39520  0.48360  1.0000 -0.4619946531
O   O18       1.0  0.91160  0.00600  0.51640  1.0000 -0.4619946531
O   O19       1.0  0.39520  0.91160  0.90560  1.0000 -0.4619946531
O   O20       1.0  0.00600  0.48960  0.09440  1.0000 -0.4619946531
O   O21       1.0  0.51040  0.60480  0.51640  1.0000 -0.4619946531
O   O22       1.0  0.08840  0.99400  0.48360  1.0000 -0.4619946531
O   O23       1.0  0.60480  0.08840  0.09440  1.0000 -0.4619946531
O   O24       1.0  0.99400  0.51040  0.90560  1.0000 -0.4619946531
O   O25       1.0  0.48320  0.38030  0.37070  1.0000 -0.6187493554
O   O26       1.0  0.00960  0.11250  0.62930  1.0000 -0.6187493554
O   O27       1.0  0.38030  0.00960  0.89710  1.0000 -0.6187493554
O   O28       1.0  0.11250  0.48320  0.10290  1.0000 -0.6187493554
O   O29       1.0  0.51680  0.61970  0.62930  1.0000 -0.6187493554
O   O30       1.0  0.99040  0.88750  0.37070  1.0000 -0.6187493554
O   O31       1.0  0.61970  0.99040  0.10290  1.0000 -0.6187493554
O   O32       1.0  0.88750  0.51680  0.89710  1.0000 -0.6187493554
