# DDEC6 charges by PACMAN v1.1 (https://github.com/mtap-research/PACMAN-charge/)
data_2011[Gd][nan]3[ASR]1
_chemical_formula_sum              "Gd8 H16 C56 N16 O48"
_cell_length_a       10.934
_cell_length_b       11.7927
_cell_length_c       19.2152
_cell_angle_alpha    90
_cell_angle_beta     90
_cell_angle_gamma    90

_symmetry_space_group_name_H-M    "P 1"
_symmetry_Int_Tables_number       1

loop_
  _symmetry_equiv_pos_as_xyz
  'x, y, z'

loop_
  _atom_site_type_symbol
  _atom_site_label
  _atom_site_symmetry_multiplicity
  _atom_site_fract_x
  _atom_site_fract_y
  _atom_site_fract_z
  _atom_site_occupancy
  _atom_site_charge
Gd  Gd1       1.0  0.63790  0.15724  0.57416  1.0000 1.876933833
Gd  Gd2       1.0  0.36210  0.84276  0.07416  1.0000 1.876933833
Gd  Gd3       1.0  0.13790  0.34276  0.07416  1.0000 1.876933833
Gd  Gd4       1.0  0.86210  0.65724  0.57416  1.0000 1.8744219343
Gd  Gd5       1.0  0.11914  0.97056  0.78863  1.0000 1.9164405564
Gd  Gd6       1.0  0.88086  0.02944  0.28863  1.0000 1.9164405564
Gd  Gd7       1.0  0.61914  0.52944  0.28863  1.0000 1.9164405564
Gd  Gd8       1.0  0.38086  0.47056  0.78863  1.0000 1.9164405564
H   H1        1.0  0.85420  0.00310  0.67840  1.0000 0.1114534165
H   H2        1.0  0.14580  0.99690  0.17840  1.0000 0.1114534165
H   H3        1.0  0.35420  0.49690  0.17840  1.0000 0.1114534165
H   H4        1.0  0.64580  0.50310  0.67840  1.0000 0.1114534165
H   H5        1.0  0.72930  0.25070  0.84370  1.0000 0.1728102068
H   H6        1.0  0.27070  0.74930  0.34370  1.0000 0.1728102068
H   H7        1.0  0.22930  0.24930  0.34370  1.0000 0.1728102068
H   H8        1.0  0.77070  0.75070  0.84370  1.0000 0.1728102068
H   H9        1.0  0.37060  0.10140  0.68870  1.0000 0.1114534165
H   H10       1.0  0.62940  0.89860  0.18870  1.0000 0.1114534165
H   H11       1.0  0.87060  0.39860  0.18870  1.0000 0.1114534165
H   H12       1.0  0.12940  0.60140  0.68870  1.0000 0.1114534165
H   H13       1.0  0.50680  0.73940  0.67430  1.0000 0.1527986198
H   H14       1.0  0.49320  0.26060  0.17430  1.0000 0.1527986198
H   H15       1.0  0.00680  0.76060  0.17430  1.0000 0.1527986198
H   H16       1.0  0.99320  0.23940  0.67430  1.0000 0.1527986198
C   C1        1.0  0.83150  0.05700  0.71120  1.0000 0.2528034026
C   C2        1.0  0.16850  0.94300  0.21120  1.0000 0.2528034026
C   C3        1.0  0.33150  0.44300  0.21120  1.0000 0.2528034026
C   C4        1.0  0.66850  0.55700  0.71120  1.0000 0.2528034026
C   C5        1.0  0.86500  0.14070  0.81530  1.0000 0.1728102068
C   C6        1.0  0.13500  0.85930  0.31530  1.0000 0.1728102068
C   C7        1.0  0.36500  0.35930  0.31530  1.0000 0.1728102068
C   C8        1.0  0.63500  0.64070  0.81530  1.0000 0.1728102068
C   C9        1.0  0.75710  0.20310  0.80860  1.0000 -0.1694746533
C   C10       1.0  0.24290  0.79690  0.30860  1.0000 -0.1694746533
C   C11       1.0  0.25710  0.29690  0.30860  1.0000 -0.1694746533
C   C12       1.0  0.74290  0.70310  0.80860  1.0000 -0.1694746533
C   C13       1.0  0.69500  0.19020  0.74790  1.0000 0.1527986198
C   C14       1.0  0.30500  0.80980  0.24790  1.0000 0.1527986198
C   C15       1.0  0.19500  0.30980  0.24790  1.0000 0.1527986198
C   C16       1.0  0.80500  0.69020  0.74790  1.0000 0.1527986198
C   C17       1.0  0.58610  0.26720  0.73040  1.0000 0.5798755685
C   C18       1.0  0.41390  0.73280  0.23040  1.0000 0.5798755685
C   C19       1.0  0.08610  0.23280  0.23040  1.0000 0.5798755685
C   C20       1.0  0.91390  0.76720  0.73040  1.0000 0.5798755685
C   C21       1.0  0.94760  0.15890  0.87770  1.0000 0.5437423984
C   C22       1.0  0.05240  0.84110  0.37770  1.0000 0.5437423984
C   C23       1.0  0.44760  0.34110  0.37770  1.0000 0.5437423984
C   C24       1.0  0.55240  0.65890  0.87770  1.0000 0.5437423984
C   C25       1.0  0.39840  0.02710  0.68580  1.0000 0.2724922101
C   C26       1.0  0.60160  0.97290  0.18580  1.0000 0.2724922101
C   C27       1.0  0.89840  0.47290  0.18580  1.0000 0.2724922101
C   C28       1.0  0.10160  0.52710  0.68580  1.0000 0.2724922101
C   C29       1.0  0.37340  0.84170  0.71360  1.0000 0.1584384839
C   C30       1.0  0.62660  0.15830  0.21360  1.0000 0.1584384839
C   C31       1.0  0.87340  0.65830  0.21360  1.0000 0.1584384839
C   C32       1.0  0.12660  0.34170  0.71360  1.0000 0.1584384839
C   C33       1.0  0.47900  0.81380  0.67760  1.0000 -0.1694746533
C   C34       1.0  0.52100  0.18620  0.17760  1.0000 -0.1694746533
C   C35       1.0  0.97900  0.68620  0.17760  1.0000 -0.1694746533
C   C36       1.0  0.02100  0.31380  0.67760  1.0000 -0.1694746533
C   C37       1.0  0.53990  0.90270  0.64720  1.0000 0.1584384839
C   C38       1.0  0.46010  0.09730  0.14720  1.0000 0.1584384839
C   C39       1.0  0.03990  0.59730  0.14720  1.0000 0.1584384839
C   C40       1.0  0.96010  0.40270  0.64720  1.0000 0.1584384839
C   C41       1.0  0.66040  0.88360  0.60900  1.0000 0.5907096068
C   C42       1.0  0.33960  0.11640  0.10900  1.0000 0.5907096068
C   C43       1.0  0.16040  0.61640  0.10900  1.0000 0.5907096068
C   C44       1.0  0.83960  0.38360  0.60900  1.0000 0.5907096068
C   C45       1.0  0.29650  0.75030  0.74910  1.0000 0.5957219253
C   C46       1.0  0.70350  0.24970  0.24910  1.0000 0.5957219253
C   C47       1.0  0.79650  0.74970  0.24910  1.0000 0.5957219253
C   C48       1.0  0.20350  0.25030  0.74910  1.0000 0.5957219253
C   C49       1.0  0.29950  0.93080  0.91960  1.0000 0.5258622567
C   C50       1.0  0.70050  0.06920  0.41960  1.0000 0.5258622567
C   C51       1.0  0.79950  0.56920  0.41960  1.0000 0.5258622567
C   C52       1.0  0.20050  0.43080  0.91960  1.0000 0.5258622567
C   C53       1.0  0.17740  0.87930  0.94500  1.0000 0.506676952
C   C54       1.0  0.82260  0.12070  0.44500  1.0000 0.506676952
C   C55       1.0  0.67740  0.62070  0.44500  1.0000 0.506676952
C   C56       1.0  0.32260  0.37930  0.94500  1.0000 0.506676952
N   N1        1.0  0.73020  0.11650  0.69840  1.0000 -0.3596726035
N   N2        1.0  0.26980  0.88350  0.19840  1.0000 -0.3596726035
N   N3        1.0  0.23020  0.38350  0.19840  1.0000 -0.3596726035
N   N4        1.0  0.76980  0.61650  0.69840  1.0000 -0.3596726035
N   N5        1.0  0.90290  0.06820  0.76690  1.0000 -0.3800733959
N   N6        1.0  0.09710  0.93180  0.26690  1.0000 -0.3800733959
N   N7        1.0  0.40290  0.43180  0.26690  1.0000 -0.3800733959
N   N8        1.0  0.59710  0.56820  0.76690  1.0000 -0.3800733959
N   N9        1.0  0.50080  0.00920  0.64880  1.0000 -0.3800733959
N   N10       1.0  0.49920  0.99080  0.14880  1.0000 -0.3800733959
N   N11       1.0  0.00080  0.49080  0.14880  1.0000 -0.3800733959
N   N12       1.0  0.99920  0.50920  0.64880  1.0000 -0.3800733959
N   N13       1.0  0.33310  0.94860  0.71870  1.0000 -0.3525607189
N   N14       1.0  0.66690  0.05140  0.21870  1.0000 -0.3525607189
N   N15       1.0  0.83310  0.55140  0.21870  1.0000 -0.3525607189
N   N16       1.0  0.16690  0.44860  0.71870  1.0000 -0.3525607189
O   O1        1.0  0.54620  0.25950  0.66860  1.0000 -0.6578155806
O   O2        1.0  0.45380  0.74050  0.16860  1.0000 -0.6578155806
O   O3        1.0  0.04620  0.24050  0.16860  1.0000 -0.6578155806
O   O4        1.0  0.95380  0.75950  0.66860  1.0000 -0.6578155806
O   O5        1.0  0.54930  0.33270  0.77630  1.0000 -0.5813161214
O   O6        1.0  0.45070  0.66730  0.27630  1.0000 -0.5813161214
O   O7        1.0  0.04930  0.16730  0.27630  1.0000 -0.5813161214
O   O8        1.0  0.95070  0.83270  0.77630  1.0000 -0.5813161214
O   O9        1.0  0.04590  0.10150  0.87810  1.0000 -0.6005843599
O   O10       1.0  0.95410  0.89850  0.37810  1.0000 -0.6005843599
O   O11       1.0  0.54590  0.39850  0.37810  1.0000 -0.6005843599
O   O12       1.0  0.45410  0.60150  0.87810  1.0000 -0.6005843599
O   O13       1.0  0.91330  0.22800  0.92070  1.0000 -0.4977535655
O   O14       1.0  0.08670  0.77200  0.42070  1.0000 -0.4977535655
O   O15       1.0  0.41330  0.27200  0.42070  1.0000 -0.4977535655
O   O16       1.0  0.58670  0.72800  0.92070  1.0000 -0.4977535655
O   O17       1.0  0.70460  0.96460  0.57460  1.0000 -0.6058922268
O   O18       1.0  0.29540  0.03540  0.07460  1.0000 -0.6058922268
O   O19       1.0  0.20460  0.53540  0.07460  1.0000 -0.6058922268
O   O20       1.0  0.79540  0.46460  0.57460  1.0000 -0.6005843599
O   O21       1.0  0.70850  0.78770  0.61670  1.0000 -0.6058922268
O   O22       1.0  0.29150  0.21230  0.11670  1.0000 -0.6058922268
O   O23       1.0  0.20850  0.71230  0.11670  1.0000 -0.6058922268
O   O24       1.0  0.79150  0.28770  0.61670  1.0000 -0.6058922268
O   O25       1.0  0.19980  0.78240  0.77800  1.0000 -0.5813161214
O   O26       1.0  0.80020  0.21760  0.27800  1.0000 -0.5852966507
O   O27       1.0  0.69980  0.71760  0.27800  1.0000 -0.5852966507
O   O28       1.0  0.30020  0.28240  0.77800  1.0000 -0.5852966507
O   O29       1.0  0.33420  0.65120  0.74510  1.0000 -0.6406804522
O   O30       1.0  0.66580  0.34880  0.24510  1.0000 -0.6406804522
O   O31       1.0  0.83420  0.84880  0.24510  1.0000 -0.6406804522
O   O32       1.0  0.16580  0.15120  0.74510  1.0000 -0.6406804522
O   O33       1.0  0.38930  0.91750  0.95770  1.0000 -0.5606990109
O   O34       1.0  0.61070  0.08250  0.45770  1.0000 -0.5606990109
O   O35       1.0  0.88930  0.58250  0.45770  1.0000 -0.5606990109
O   O36       1.0  0.11070  0.41750  0.95770  1.0000 -0.5606990109
O   O37       1.0  0.29530  0.98490  0.86280  1.0000 -0.5852966507
O   O38       1.0  0.70470  0.01510  0.36280  1.0000 -0.5852966507
O   O39       1.0  0.79530  0.51510  0.36280  1.0000 -0.5852966507
O   O40       1.0  0.20470  0.48490  0.86280  1.0000 -0.5852966507
O   O41       1.0  0.17310  0.84640  0.00650  1.0000 -0.5606990109
O   O42       1.0  0.82690  0.15360  0.50650  1.0000 -0.5606990109
O   O43       1.0  0.67310  0.65360  0.50650  1.0000 -0.5606990109
O   O44       1.0  0.32690  0.34640  0.00650  1.0000 -0.5606990109
O   O45       1.0  0.09090  0.87510  0.89970  1.0000 -0.5606990109
O   O46       1.0  0.90910  0.12490  0.39970  1.0000 -0.5606990109
O   O47       1.0  0.59090  0.62490  0.39970  1.0000 -0.5606990109
O   O48       1.0  0.40910  0.37510  0.89970  1.0000 -0.5606990109
