# DDEC6 charges by PACMAN v1.1 (https://github.com/mtap-research/PACMAN-charge/)
data_2011[Zn][pcu]3[ASR]22
_chemical_formula_sum              "Zn6 H40 C60 N16 O24"
_cell_length_a       12.8542
_cell_length_b       12.8542
_cell_length_c       12.03
_cell_angle_alpha    73.865
_cell_angle_beta     106.135
_cell_angle_gamma    71.9889

_symmetry_space_group_name_H-M    "P 1"
_symmetry_Int_Tables_number       1

loop_
  _symmetry_equiv_pos_as_xyz
  'x, y, z'

loop_
  _atom_site_type_symbol
  _atom_site_label
  _atom_site_symmetry_multiplicity
  _atom_site_fract_x
  _atom_site_fract_y
  _atom_site_fract_z
  _atom_site_occupancy
  _atom_site_charge
Zn  Zn1       1.0  0.48877  0.74519  0.99048  1.0000 0.7812345297
Zn  Zn2       1.0  0.74519  0.48877  0.50952  1.0000 0.7812345297
Zn  Zn3       1.0  0.51123  0.25481  0.00952  1.0000 0.7812345297
Zn  Zn4       1.0  0.25481  0.51123  0.49048  1.0000 0.7812345297
Zn  Zn5       1.0  0.21973  0.21973  0.75000  1.0000 0.8864662916
Zn  Zn6       1.0  0.78027  0.78027  0.25000  1.0000 0.8864662916
H   H1        1.0  0.18260  0.66460  0.68400  1.0000 0.1281293069
H   H2        1.0  0.66460  0.18260  0.81600  1.0000 0.1281293069
H   H3        1.0  0.81740  0.33540  0.31600  1.0000 0.1281293069
H   H4        1.0  0.33540  0.81740  0.18400  1.0000 0.1281293069
H   H5        1.0  0.91410  0.55010  0.80100  1.0000 0.1281293069
H   H6        1.0  0.55010  0.91410  0.69900  1.0000 0.1281293069
H   H7        1.0  0.08590  0.44990  0.19900  1.0000 0.1281293069
H   H8        1.0  0.44990  0.08590  0.30100  1.0000 0.1281293069
H   H9        1.0  0.24160  0.75960  0.97500  1.0000 0.1131665827
H   H10       1.0  0.75960  0.24160  0.52500  1.0000 0.1131665827
H   H11       1.0  0.75840  0.24040  0.02500  1.0000 0.1131665827
H   H12       1.0  0.24040  0.75840  0.47500  1.0000 0.1131665827
H   H13       1.0  0.61290  0.51490  0.91900  1.0000 0.1281293069
H   H14       1.0  0.51490  0.61290  0.58100  1.0000 0.1281293069
H   H15       1.0  0.38710  0.48510  0.08100  1.0000 0.1281293069
H   H16       1.0  0.48510  0.38710  0.41900  1.0000 0.1281293069
H   H17       1.0  0.70630  0.76030  0.96200  1.0000 0.1281293069
H   H18       1.0  0.76030  0.70630  0.53800  1.0000 0.1281293069
H   H19       1.0  0.29370  0.23970  0.03800  1.0000 0.1281293069
H   H20       1.0  0.23970  0.29370  0.46200  1.0000 0.1281293069
H   H21       1.0  0.07420  0.58220  0.77000  1.0000 0.1415804437
H   H22       1.0  0.58220  0.07420  0.73000  1.0000 0.1415804437
H   H23       1.0  0.92580  0.41780  0.23000  1.0000 0.1415804437
H   H24       1.0  0.41780  0.92580  0.27000  1.0000 0.1415804437
H   H25       1.0  0.38100  0.68100  0.74900  1.0000 0.1228108079
H   H26       1.0  0.68100  0.38100  0.75100  1.0000 0.1228108079
H   H27       1.0  0.61900  0.31900  0.25100  1.0000 0.1228108079
H   H28       1.0  0.31900  0.61900  0.24900  1.0000 0.1228108079
H   H29       1.0  0.79360  0.49560  0.86800  1.0000 0.1281293069
H   H30       1.0  0.49560  0.79360  0.63200  1.0000 0.1281293069
H   H31       1.0  0.20640  0.50440  0.13200  1.0000 0.1281293069
H   H32       1.0  0.50440  0.20640  0.36800  1.0000 0.1281293069
H   H33       1.0  0.03600  0.81200  0.93000  1.0000 0.1281293069
H   H34       1.0  0.81200  0.03600  0.57000  1.0000 0.1281293069
H   H35       1.0  0.96400  0.18800  0.07000  1.0000 0.1281293069
H   H36       1.0  0.18800  0.96400  0.43000  1.0000 0.1281293069
H   H37       1.0  0.88000  0.77400  0.97400  1.0000 0.1415804437
H   H38       1.0  0.77400  0.88000  0.52600  1.0000 0.1415804437
H   H39       1.0  0.12000  0.22600  0.02600  1.0000 0.1415804437
H   H40       1.0  0.22600  0.12000  0.47400  1.0000 0.1415804437
C   C1        1.0  0.65892  0.55892  0.91890  1.0000 -0.043059568
C   C2        1.0  0.55892  0.65892  0.58110  1.0000 -0.043059568
C   C3        1.0  0.34108  0.44108  0.08110  1.0000 -0.043059568
C   C4        1.0  0.44108  0.34108  0.41890  1.0000 -0.043059568
C   C5        1.0  0.70885  0.69705  0.94490  1.0000 0.1281293069
C   C6        1.0  0.69705  0.70885  0.55510  1.0000 0.1281293069
C   C7        1.0  0.29115  0.30295  0.05510  1.0000 0.1281293069
C   C8        1.0  0.30295  0.29115  0.44490  1.0000 0.1281293069
C   C9        1.0  0.22150  0.68630  0.75160  1.0000 -0.1037320971
C   C10       1.0  0.68630  0.22150  0.74840  1.0000 -0.1037320971
C   C11       1.0  0.77850  0.31370  0.24840  1.0000 -0.1037320971
C   C12       1.0  0.31370  0.77850  0.25160  1.0000 -0.1037320971
C   C13       1.0  0.38591  0.99151  0.82810  1.0000 0.4604234369
C   C14       1.0  0.99151  0.38591  0.67190  1.0000 0.4604234369
C   C15       1.0  0.61409  0.00849  0.17190  1.0000 0.4604234369
C   C16       1.0  0.00849  0.61409  0.32810  1.0000 0.4604234369
C   C17       1.0  0.06975  0.70015  0.84680  1.0000 0.1415804437
C   C18       1.0  0.70015  0.06975  0.65320  1.0000 0.1415804437
C   C19       1.0  0.93025  0.29985  0.15320  1.0000 0.1415804437
C   C20       1.0  0.29985  0.93025  0.34680  1.0000 0.1415804437
C   C21       1.0  0.33063  0.98783  0.92780  1.0000 0.46741713
C   C22       1.0  0.98783  0.33063  0.57220  1.0000 0.46741713
C   C23       1.0  0.66937  0.01217  0.07220  1.0000 0.46741713
C   C24       1.0  0.01217  0.66937  0.42780  1.0000 0.46741713
C   C25       1.0  0.24951  0.73931  0.90970  1.0000 0.1043974728
C   C26       1.0  0.73931  0.24951  0.59030  1.0000 0.1043974728
C   C27       1.0  0.75049  0.26069  0.09030  1.0000 0.1043974728
C   C28       1.0  0.26069  0.75049  0.40970  1.0000 0.1043974728
C   C29       1.0  0.88439  0.65739  0.88880  1.0000 0.1415804437
C   C30       1.0  0.65739  0.88439  0.61120  1.0000 0.1415804437
C   C31       1.0  0.11561  0.34261  0.11120  1.0000 0.1415804437
C   C32       1.0  0.34261  0.11561  0.38880  1.0000 0.1415804437
C   C33       1.0  0.34340  0.34340  0.75000  1.0000 0.4460275442
C   C34       1.0  0.65660  0.65660  0.25000  1.0000 0.4460275442
C   C35       1.0  0.03478  0.62238  0.80730  1.0000 -0.1396355062
C   C36       1.0  0.62238  0.03478  0.69270  1.0000 -0.1396355062
C   C37       1.0  0.96522  0.37762  0.19270  1.0000 -0.1396355062
C   C38       1.0  0.37762  0.96522  0.30730  1.0000 -0.1396355062
C   C39       1.0  0.91935  0.73695  0.92920  1.0000 -0.1696349728
C   C40       1.0  0.73695  0.91935  0.57080  1.0000 -0.1696349728
C   C41       1.0  0.08065  0.26305  0.07080  1.0000 -0.1696349728
C   C42       1.0  0.26305  0.08065  0.42920  1.0000 -0.1696349728
C   C43       1.0  0.41770  0.41770  0.75000  1.0000 0.46741713
C   C44       1.0  0.58230  0.58230  0.25000  1.0000 0.4754052133
C   C45       1.0  0.01179  0.75919  0.90610  1.0000 -0.1696349728
C   C46       1.0  0.75919  0.01179  0.59390  1.0000 -0.1696349728
C   C47       1.0  0.98821  0.24081  0.09390  1.0000 -0.1696349728
C   C48       1.0  0.24081  0.98821  0.40610  1.0000 -0.1696349728
C   C49       1.0  0.94108  0.60148  0.82760  1.0000 -0.1647637516
C   C50       1.0  0.60148  0.94108  0.67240  1.0000 -0.1647637516
C   C51       1.0  0.05892  0.39852  0.17240  1.0000 -0.1647637516
C   C52       1.0  0.39852  0.05892  0.32760  1.0000 -0.1647637516
C   C53       1.0  0.75633  0.54513  0.89390  1.0000 -0.1087076991
C   C54       1.0  0.54513  0.75633  0.60610  1.0000 -0.1087076991
C   C55       1.0  0.24367  0.45487  0.10610  1.0000 -0.1087076991
C   C56       1.0  0.45487  0.24367  0.39390  1.0000 -0.1087076991
C   C57       1.0  0.32500  0.69620  0.78360  1.0000 -0.0332904235
C   C58       1.0  0.69620  0.32500  0.71640  1.0000 -0.0332904235
C   C59       1.0  0.67500  0.30380  0.21640  1.0000 -0.0332904235
C   C60       1.0  0.30380  0.67500  0.28360  1.0000 -0.0332904235
N   N1        1.0  0.62936  0.65456  0.95170  1.0000 -0.2811179637
N   N2        1.0  0.65456  0.62936  0.54830  1.0000 -0.2811179637
N   N3        1.0  0.37064  0.34544  0.04830  1.0000 -0.2811179637
N   N4        1.0  0.34544  0.37064  0.45170  1.0000 -0.2811179637
N   N5        1.0  0.34331  0.72971  0.88330  1.0000 -0.2811179637
N   N6        1.0  0.72971  0.34331  0.61670  1.0000 -0.2811179637
N   N7        1.0  0.65669  0.27029  0.11670  1.0000 -0.2811179637
N   N8        1.0  0.27029  0.65669  0.38330  1.0000 -0.2811179637
N   N9        1.0  0.17265  0.71365  0.83370  1.0000 0.0032336511
N   N10       1.0  0.71365  0.17265  0.66630  1.0000 0.0032336511
N   N11       1.0  0.82735  0.28635  0.16630  1.0000 0.0032336511
N   N12       1.0  0.28635  0.82735  0.33370  1.0000 0.0032336511
N   N13       1.0  0.78801  0.63441  0.90970  1.0000 -0.0054050327
N   N14       1.0  0.63441  0.78801  0.59030  1.0000 -0.0054050327
N   N15       1.0  0.21199  0.36559  0.09030  1.0000 -0.0054050327
N   N16       1.0  0.36559  0.21199  0.40970  1.0000 -0.0054050327
O   O1        1.0  0.25004  0.08372  0.90980  1.0000 -0.4904650547
O   O2        1.0  0.08372  0.25004  0.59020  1.0000 -0.4904650547
O   O3        1.0  0.74996  0.91628  0.09020  1.0000 -0.4904650547
O   O4        1.0  0.91628  0.74996  0.40980  1.0000 -0.4904650547
O   O5        1.0  0.34380  0.08824  0.73570  1.0000 -0.4813642396
O   O6        1.0  0.08824  0.34380  0.76430  1.0000 -0.4813642396
O   O7        1.0  0.65620  0.91176  0.26430  1.0000 -0.4813642396
O   O8        1.0  0.91176  0.65620  0.23570  1.0000 -0.4813642396
O   O9        1.0  0.46737  0.89783  0.84870  1.0000 -0.4813642396
O   O10       1.0  0.89783  0.46737  0.65130  1.0000 -0.4813642396
O   O11       1.0  0.53263  0.10217  0.15130  1.0000 -0.4813642396
O   O12       1.0  0.10217  0.53263  0.34870  1.0000 -0.4813642396
O   O13       1.0  0.36962  0.89008  0.01630  1.0000 -0.4904650547
O   O14       1.0  0.89008  0.36962  0.48370  1.0000 -0.4904650547
O   O15       1.0  0.63038  0.10992  0.98370  1.0000 -0.4904650547
O   O16       1.0  0.10992  0.63038  0.51630  1.0000 -0.4904650547
O   O17       1.0  0.49896  0.38958  0.85250  1.0000 -0.4904650547
O   O18       1.0  0.38958  0.49896  0.64750  1.0000 -0.4904650547
O   O19       1.0  0.50104  0.61042  0.14750  1.0000 -0.4904650547
O   O20       1.0  0.61042  0.50104  0.35250  1.0000 -0.4904650547
O   O21       1.0  0.36869  0.26085  0.85100  1.0000 -0.4813642396
O   O22       1.0  0.26085  0.36869  0.64900  1.0000 -0.4813642396
O   O23       1.0  0.63131  0.73915  0.14900  1.0000 -0.4813642396
O   O24       1.0  0.73915  0.63131  0.35100  1.0000 -0.4904650547
