# DDEC6 charges by PACMAN v1.1 (https://github.com/mtap-research/PACMAN-charge/)
data_2011[Cu][lvt]3[ASR]5
_chemical_formula_sum              "Cu8 H128 C160 N32"
_cell_length_a       22.168
_cell_length_b       22.168
_cell_length_c       22.168
_cell_angle_alpha    99.7795
_cell_angle_beta     99.7795
_cell_angle_gamma    131.322

_symmetry_space_group_name_H-M    "P 1"
_symmetry_Int_Tables_number       1

loop_
  _symmetry_equiv_pos_as_xyz
  'x, y, z'

loop_
  _atom_site_type_symbol
  _atom_site_label
  _atom_site_symmetry_multiplicity
  _atom_site_fract_x
  _atom_site_fract_y
  _atom_site_fract_z
  _atom_site_occupancy
  _atom_site_charge
Cu  Cu1       1.0  0.36615  0.62500  0.24115  1.0000 0.1995804368
Cu  Cu2       1.0  0.38385  0.12500  0.75885  1.0000 0.1995804368
Cu  Cu3       1.0  0.37500  0.61615  0.74115  1.0000 0.1995804368
Cu  Cu4       1.0  0.87500  0.63385  0.25885  1.0000 0.1995804368
Cu  Cu5       1.0  0.87500  0.13385  0.75885  1.0000 0.1995804368
Cu  Cu6       1.0  0.37500  0.11615  0.24115  1.0000 0.1995804368
Cu  Cu7       1.0  0.88385  0.12500  0.25885  1.0000 0.1995804368
Cu  Cu8       1.0  0.86615  0.62500  0.74115  1.0000 0.1995804368
H   H1        1.0  0.40190  0.73020  0.37090  1.0000 0.0907597287
H   H2        1.0  0.35930  0.03100  0.62910  1.0000 0.0907597287
H   H3        1.0  0.34810  0.21900  0.82830  1.0000 0.0907597287
H   H4        1.0  0.39070  0.51980  0.17170  1.0000 0.0907597287
H   H5        1.0  0.26980  0.64070  0.67170  1.0000 0.0907597287
H   H6        1.0  0.96900  0.59810  0.32830  1.0000 0.0907597287
H   H7        1.0  0.78100  0.60930  0.12910  1.0000 0.0907597287
H   H8        1.0  0.48020  0.65190  0.87090  1.0000 0.0907597287
H   H9        1.0  0.40740  0.72990  0.47550  1.0000 0.1234190858
H   H10       1.0  0.25440  0.93190  0.52450  1.0000 0.1234190858
H   H11       1.0  0.34260  0.31810  0.82250  1.0000 0.1234190858
H   H12       1.0  0.49560  0.52010  0.17750  1.0000 0.1234190858
H   H13       1.0  0.27010  0.74560  0.67750  1.0000 0.1234190858
H   H14       1.0  0.06810  0.59260  0.32250  1.0000 0.1234190858
H   H15       1.0  0.68190  0.50440  0.02450  1.0000 0.1234190858
H   H16       1.0  0.47990  0.65740  0.97550  1.0000 0.1234190858
H   H17       1.0  0.34760  0.50970  0.41850  1.0000 0.1234190858
H   H18       1.0  0.09120  0.92910  0.58150  1.0000 0.1234190858
H   H19       1.0  0.40240  0.32090  0.66210  1.0000 0.1234190858
H   H20       1.0  0.65880  0.74030  0.33790  1.0000 0.1234190858
H   H21       1.0  0.49030  0.90880  0.83790  1.0000 0.1234190858
H   H22       1.0  0.07090  0.65240  0.16210  1.0000 0.1234190858
H   H23       1.0  0.67910  0.34120  0.08150  1.0000 0.1234190858
H   H24       1.0  0.25970  0.59760  0.91850  1.0000 0.1234190858
H   H25       1.0  0.34360  0.51450  0.31530  1.0000 0.0907597287
H   H26       1.0  0.19920  0.02830  0.68470  1.0000 0.0907597287
H   H27       1.0  0.40640  0.22170  0.67090  1.0000 0.0907597287
H   H28       1.0  0.55080  0.73550  0.32910  1.0000 0.0907597287
H   H29       1.0  0.48550  0.80080  0.82910  1.0000 0.0907597287
H   H30       1.0  0.97170  0.65640  0.17090  1.0000 0.0907597287
H   H31       1.0  0.77830  0.44920  0.18470  1.0000 0.0907597287
H   H32       1.0  0.26450  0.59360  0.81530  1.0000 0.0907597287
H   H33       1.0  0.28260  0.48750  0.60210  1.0000 0.0907597287
H   H34       1.0  0.88540  0.68050  0.39790  1.0000 0.0907597287
H   H35       1.0  0.46740  0.56950  0.70490  1.0000 0.0907597287
H   H36       1.0  0.86460  0.76250  0.29510  1.0000 0.0907597287
H   H37       1.0  0.51250  0.11460  0.79510  1.0000 0.0907597287
H   H38       1.0  0.31950  0.71740  0.20490  1.0000 0.0907597287
H   H39       1.0  0.43050  0.13540  0.89790  1.0000 0.0907597287
H   H40       1.0  0.23750  0.53260  0.10210  1.0000 0.0907597287
H   H41       1.0  0.27840  0.48610  0.49750  1.0000 0.1234190858
H   H42       1.0  0.98860  0.78090  0.50250  1.0000 0.1255851073
H   H43       1.0  0.47160  0.46910  0.70770  1.0000 0.1255851073
H   H44       1.0  0.76140  0.76390  0.29230  1.0000 0.1255851073
H   H45       1.0  0.51390  0.01140  0.79230  1.0000 0.1234190858
H   H46       1.0  0.21910  0.72160  0.20770  1.0000 0.1255851073
H   H47       1.0  0.53090  0.23860  0.00250  1.0000 0.1255851073
H   H48       1.0  0.23610  0.52840  0.99750  1.0000 0.1234190858
H   H49       1.0  0.47760  0.74370  0.57650  1.0000 0.1234190858
H   H50       1.0  0.16720  0.90110  0.42350  1.0000 0.1234190858
H   H51       1.0  0.27240  0.34890  0.76610  1.0000 0.1234190858
H   H52       1.0  0.58280  0.50630  0.23390  1.0000 0.1234190858
H   H53       1.0  0.25630  0.83280  0.73390  1.0000 0.1234190858
H   H54       1.0  0.09890  0.52240  0.26610  1.0000 0.1234190858
H   H55       1.0  0.65110  0.41720  0.92350  1.0000 0.1234190858
H   H56       1.0  0.49370  0.72760  0.07650  1.0000 0.1234190858
H   H57       1.0  0.47990  0.73980  0.67950  1.0000 0.0907597287
H   H58       1.0  0.06030  0.80040  0.32050  1.0000 0.0907597287
H   H59       1.0  0.27010  0.44960  0.75990  1.0000 0.0907597287
H   H60       1.0  0.68970  0.51020  0.24010  1.0000 0.0907597287
H   H61       1.0  0.26020  0.93970  0.74010  1.0000 0.0907597287
H   H62       1.0  0.19960  0.52010  0.25990  1.0000 0.0907597287
H   H63       1.0  0.55040  0.31030  0.82050  1.0000 0.0907597287
H   H64       1.0  0.48980  0.72990  0.17950  1.0000 0.0907597287
H   H65       1.0  0.98020  0.10930  0.82830  1.0000 0.0907597287
H   H66       1.0  0.28100  0.15190  0.17170  1.0000 0.0907597287
H   H67       1.0  0.46900  0.14070  0.37090  1.0000 0.0907597287
H   H68       1.0  0.76980  0.09810  0.62910  1.0000 0.0907597287
H   H69       1.0  0.84810  0.01980  0.12910  1.0000 0.0907597287
H   H70       1.0  0.89070  0.71900  0.87090  1.0000 0.0907597287
H   H71       1.0  0.90190  0.53100  0.67170  1.0000 0.0907597287
H   H72       1.0  0.85930  0.23020  0.32830  1.0000 0.0907597287
H   H73       1.0  0.97990  0.00440  0.82250  1.0000 0.1234190858
H   H74       1.0  0.18190  0.15740  0.17750  1.0000 0.1234190858
H   H75       1.0  0.56810  0.24560  0.47550  1.0000 0.1234190858
H   H76       1.0  0.77010  0.09260  0.52450  1.0000 0.1234190858
H   H77       1.0  0.84260  0.02010  0.02450  1.0000 0.1234190858
H   H78       1.0  0.99560  0.81810  0.97550  1.0000 0.1234190858
H   H79       1.0  0.90740  0.43190  0.67750  1.0000 0.1234190858
H   H80       1.0  0.75440  0.22990  0.32250  1.0000 0.1234190858
H   H81       1.0  0.75970  0.84120  0.66210  1.0000 0.1234190858
H   H82       1.0  0.17910  0.09760  0.33790  1.0000 0.1234190858
H   H83       1.0  0.57090  0.40880  0.41850  1.0000 0.1234190858
H   H84       1.0  0.99030  0.15240  0.58150  1.0000 0.1234190858
H   H85       1.0  0.90240  0.24030  0.08150  1.0000 0.1255851073
H   H86       1.0  0.15880  0.82090  0.91850  1.0000 0.1234190858
H   H87       1.0  0.84760  0.42910  0.83790  1.0000 0.1234190858
H   H88       1.0  0.59120  0.00970  0.16210  1.0000 0.1234190858
H   H89       1.0  0.76450  0.94920  0.67090  1.0000 0.0907597287
H   H90       1.0  0.27830  0.09360  0.32910  1.0000 0.0907597287
H   H91       1.0  0.47170  0.30080  0.31530  1.0000 0.0907597287
H   H92       1.0  0.98550  0.15640  0.68470  1.0000 0.0907597287
H   H93       1.0  0.90640  0.23550  0.18470  1.0000 0.0907597287
H   H94       1.0  0.05080  0.72170  0.81530  1.0000 0.0907597287
H   H95       1.0  0.84360  0.52830  0.82910  1.0000 0.0907597287
H   H96       1.0  0.69920  0.01450  0.17090  1.0000 0.0907597287
H   H97       1.0  0.73750  0.63540  0.70490  1.0000 0.0907597287
H   H98       1.0  0.93050  0.03260  0.29510  1.0000 0.0907597287
H   H99       1.0  0.81950  0.61460  0.60210  1.0000 0.0907597287
H   H100      1.0  0.01250  0.21740  0.39790  1.0000 0.0907597287
H   H101      1.0  0.96740  0.26250  0.89790  1.0000 0.0907597287
H   H102      1.0  0.36460  0.06950  0.10210  1.0000 0.0907597287
H   H103      1.0  0.78260  0.18050  0.79510  1.0000 0.0907597287
H   H104      1.0  0.38540  0.98750  0.20490  1.0000 0.0907597287
H   H105      1.0  0.73610  0.73860  0.70770  1.0000 0.1255851073
H   H106      1.0  0.03090  0.02840  0.29230  1.0000 0.1234190858
H   H107      1.0  0.71910  0.51140  0.49750  1.0000 0.1255851073
H   H108      1.0  0.01390  0.22160  0.50250  1.0000 0.1255851073
H   H109      1.0  0.97160  0.26390  0.00250  1.0000 0.1255851073
H   H110      1.0  0.26140  0.96910  0.99750  1.0000 0.1234190858
H   H111      1.0  0.77840  0.28090  0.79230  1.0000 0.1255851073
H   H112      1.0  0.48860  0.98610  0.20770  1.0000 0.1234190858
H   H113      1.0  0.99370  0.91720  0.76610  1.0000 0.1234190858
H   H114      1.0  0.15110  0.22760  0.23390  1.0000 0.1234190858
H   H115      1.0  0.59890  0.33280  0.57650  1.0000 0.1234190858
H   H116      1.0  0.75630  0.02240  0.42350  1.0000 0.1234190858
H   H117      1.0  0.77240  0.00630  0.92350  1.0000 0.1234190858
H   H118      1.0  0.08280  0.84890  0.07650  1.0000 0.1234190858
H   H119      1.0  0.97760  0.40110  0.73390  1.0000 0.1234190858
H   H120      1.0  0.66720  0.24370  0.26610  1.0000 0.1234190858
H   H121      1.0  0.98980  0.81030  0.75990  1.0000 0.0907597287
H   H122      1.0  0.05040  0.22990  0.24010  1.0000 0.0907597287
H   H123      1.0  0.69960  0.43970  0.67950  1.0000 0.0907597287
H   H124      1.0  0.76020  0.02010  0.32050  1.0000 0.0907597287
H   H125      1.0  0.77010  0.01020  0.82050  1.0000 0.0907597287
H   H126      1.0  0.18970  0.94960  0.17950  1.0000 0.0907597287
H   H127      1.0  0.97990  0.30040  0.74010  1.0000 0.0907597287
H   H128      1.0  0.56030  0.23980  0.25990  1.0000 0.0907597287
C   C1        1.0  0.39121  0.68558  0.38079  1.0000 0.0193304461
C   C2        1.0  0.30479  0.01042  0.61921  1.0000 0.0279438843
C   C3        1.0  0.35879  0.23958  0.79437  1.0000 0.0279438843
C   C4        1.0  0.44521  0.56442  0.20563  1.0000 0.0193304461
C   C5        1.0  0.31442  0.69521  0.70563  1.0000 0.0193304461
C   C6        1.0  0.98958  0.60879  0.29437  1.0000 0.0193304461
C   C7        1.0  0.76042  0.55479  0.11921  1.0000 0.0193304461
C   C8        1.0  0.43558  0.64121  0.88079  1.0000 0.0279438843
C   C9        1.0  0.39407  0.68548  0.44355  1.0000 -0.2002068144
C   C10       1.0  0.24193  0.95052  0.55645  1.0000 -0.2002068144
C   C11       1.0  0.35593  0.29948  0.79141  1.0000 -0.2002068144
C   C12       1.0  0.50807  0.56452  0.20859  1.0000 -0.2002068144
C   C13       1.0  0.31452  0.75807  0.70859  1.0000 -0.2002068144
C   C14       1.0  0.04948  0.60593  0.29141  1.0000 -0.2002068144
C   C15       1.0  0.70052  0.49193  0.05645  1.0000 -0.2002068144
C   C16       1.0  0.43548  0.64407  0.94355  1.0000 -0.2002068144
C   C17       1.0  0.37670  0.61767  0.45837  1.0000 0.0907597287
C   C18       1.0  0.15930  0.91833  0.54163  1.0000 0.0907597287
C   C19       1.0  0.37330  0.33167  0.74097  1.0000 0.0907597287
C   C20       1.0  0.59070  0.63233  0.25903  1.0000 0.0907597287
C   C21       1.0  0.38233  0.84070  0.75903  1.0000 0.0907597287
C   C22       1.0  0.08167  0.62330  0.24097  1.0000 0.0907597287
C   C23       1.0  0.66833  0.40930  0.04163  1.0000 0.0907597287
C   C24       1.0  0.36767  0.62670  0.95837  1.0000 0.0907597287
C   C25       1.0  0.35872  0.55515  0.40987  1.0000 -0.2002068144
C   C26       1.0  0.14528  0.94885  0.59013  1.0000 -0.2002068144
C   C27       1.0  0.39128  0.30115  0.69643  1.0000 -0.2002068144
C   C28       1.0  0.60472  0.69485  0.30357  1.0000 -0.2002068144
C   C29       1.0  0.44485  0.85472  0.80357  1.0000 -0.2002068144
C   C30       1.0  0.05115  0.64128  0.19643  1.0000 -0.2002068144
C   C31       1.0  0.69885  0.39528  0.09013  1.0000 -0.2002068144
C   C32       1.0  0.30515  0.60872  0.90987  1.0000 -0.2002068144
C   C33       1.0  0.35671  0.55832  0.34783  1.0000 0.0193304461
C   C34       1.0  0.21049  0.00888  0.65217  1.0000 0.0193304461
C   C35       1.0  0.39329  0.24112  0.70161  1.0000 0.0193304461
C   C36       1.0  0.53951  0.69168  0.29839  1.0000 0.0193304461
C   C37       1.0  0.44168  0.78951  0.79839  1.0000 0.0193304461
C   C38       1.0  0.99112  0.64329  0.20161  1.0000 0.0193304461
C   C39       1.0  0.75888  0.46049  0.15217  1.0000 0.0193304461
C   C40       1.0  0.30832  0.60671  0.84783  1.0000 0.0193304461
C   C41       1.0  0.32199  0.53980  0.59679  1.0000 0.0279438843
C   C42       1.0  0.94301  0.72520  0.40321  1.0000 0.0279438843
C   C43       1.0  0.42801  0.52480  0.71781  1.0000 0.0279438843
C   C44       1.0  0.80699  0.71020  0.28219  1.0000 0.0279438843
C   C45       1.0  0.46020  0.05699  0.78219  1.0000 0.0279438843
C   C46       1.0  0.27480  0.67801  0.21781  1.0000 0.0279438843
C   C47       1.0  0.47520  0.19301  0.90321  1.0000 0.0279438843
C   C48       1.0  0.28980  0.57199  0.09679  1.0000 0.0279438843
C   C49       1.0  0.31937  0.53848  0.53385  1.0000 -0.2096901723
C   C50       1.0  0.00463  0.78552  0.46615  1.0000 -0.2096901723
C   C51       1.0  0.43063  0.46448  0.71911  1.0000 -0.2096901723
C   C52       1.0  0.74537  0.71152  0.28089  1.0000 -0.2096901723
C   C53       1.0  0.46152  0.99537  0.78089  1.0000 -0.2096901723
C   C54       1.0  0.21448  0.68063  0.21911  1.0000 -0.2096901723
C   C55       1.0  0.53552  0.25463  0.96615  1.0000 -0.2096901723
C   C56       1.0  0.28848  0.56937  0.03385  1.0000 -0.2096901723
C   C57       1.0  0.37834  0.61594  0.52548  1.0000 0.0815428958
C   C58       1.0  0.09046  0.85286  0.47452  1.0000 0.0815428958
C   C59       1.0  0.37166  0.39714  0.73760  1.0000 0.0815428958
C   C60       1.0  0.65954  0.63406  0.26240  1.0000 0.0815428958
C   C61       1.0  0.38406  0.90954  0.76240  1.0000 0.0815428958
C   C62       1.0  0.14714  0.62166  0.23760  1.0000 0.0815428958
C   C63       1.0  0.60286  0.34046  0.97452  1.0000 0.0815428958
C   C64       1.0  0.36594  0.62834  0.02548  1.0000 0.0815428958
C   C65       1.0  0.43734  0.69070  0.58064  1.0000 -0.2002068144
C   C66       1.0  0.11006  0.85670  0.41936  1.0000 -0.2002068144
C   C67       1.0  0.31266  0.39330  0.75336  1.0000 -0.2002068144
C   C68       1.0  0.63994  0.55930  0.24664  1.0000 -0.2002068144
C   C69       1.0  0.30930  0.88994  0.74664  1.0000 -0.2002068144
C   C70       1.0  0.14330  0.56266  0.25336  1.0000 -0.2002068144
C   C71       1.0  0.60670  0.36006  0.91936  1.0000 -0.2002068144
C   C72       1.0  0.44070  0.68734  0.08064  1.0000 -0.2002068144
C   C73       1.0  0.43775  0.68824  0.64239  1.0000 0.0279438843
C   C74       1.0  0.04585  0.79536  0.35761  1.0000 0.0279438843
C   C75       1.0  0.31225  0.45464  0.75049  1.0000 0.0279438843
C   C76       1.0  0.70415  0.56176  0.24951  1.0000 0.0279438843
C   C77       1.0  0.31176  0.95415  0.74951  1.0000 0.0279438843
C   C78       1.0  0.20464  0.56225  0.25049  1.0000 0.0279438843
C   C79       1.0  0.54536  0.29585  0.85761  1.0000 0.0279438843
C   C80       1.0  0.43824  0.68775  0.14239  1.0000 0.0279438843
C   C81       1.0  0.93558  0.05479  0.79437  1.0000 0.0279438843
C   C82       1.0  0.26042  0.14121  0.20563  1.0000 0.0193304461
C   C83       1.0  0.48958  0.19521  0.38079  1.0000 0.0279438843
C   C84       1.0  0.81442  0.10879  0.61921  1.0000 0.0279438843
C   C85       1.0  0.85879  0.06442  0.11921  1.0000 0.0193304461
C   C86       1.0  0.94521  0.73958  0.88079  1.0000 0.0279438843
C   C87       1.0  0.89121  0.51042  0.70563  1.0000 0.0279438843
C   C88       1.0  0.80479  0.18558  0.29437  1.0000 0.0279438843
C   C89       1.0  0.93548  0.99193  0.79141  1.0000 -0.2002068144
C   C90       1.0  0.20052  0.14407  0.20859  1.0000 -0.2002068144
C   C91       1.0  0.54948  0.25807  0.44355  1.0000 -0.2002068144
C   C92       1.0  0.81452  0.10593  0.55645  1.0000 -0.2002068144
C   C93       1.0  0.85593  0.06452  0.05645  1.0000 -0.2002068144
C   C94       1.0  0.00807  0.79948  0.94355  1.0000 -0.2002068144
C   C95       1.0  0.89407  0.45052  0.70859  1.0000 -0.2002068144
C   C96       1.0  0.74193  0.18548  0.29141  1.0000 -0.2002068144
C   C97       1.0  0.86767  0.90930  0.74097  1.0000 0.0907597287
C   C98       1.0  0.16833  0.12670  0.25903  1.0000 0.0907597287
C   C99       1.0  0.58167  0.34070  0.45837  1.0000 0.0907597287
C   C100      1.0  0.88233  0.12330  0.54163  1.0000 0.0907597287
C   C101      1.0  0.87330  0.13233  0.04163  1.0000 0.0907597287
C   C102      1.0  0.09070  0.83167  0.95837  1.0000 0.0907597287
C   C103      1.0  0.87670  0.41833  0.75903  1.0000 0.0907597287
C   C104      1.0  0.65930  0.11767  0.24097  1.0000 0.0907597287
C   C105      1.0  0.80515  0.89528  0.69643  1.0000 -0.2002068144
C   C106      1.0  0.19885  0.10872  0.30357  1.0000 -0.2002068144
C   C107      1.0  0.55115  0.35472  0.40987  1.0000 -0.2002068144
C   C108      1.0  0.94485  0.14128  0.59013  1.0000 -0.2002068144
C   C109      1.0  0.89128  0.19485  0.09013  1.0000 -0.2002068144
C   C110      1.0  0.10472  0.80115  0.90987  1.0000 -0.2002068144
C   C111      1.0  0.85872  0.44885  0.80357  1.0000 -0.2002068144
C   C112      1.0  0.64528  0.05515  0.19643  1.0000 -0.2002068144
C   C113      1.0  0.80832  0.96049  0.70161  1.0000 0.0193304461
C   C114      1.0  0.25888  0.10671  0.29839  1.0000 0.0193304461
C   C115      1.0  0.49112  0.28951  0.34783  1.0000 0.0193304461
C   C116      1.0  0.94168  0.14329  0.65217  1.0000 0.0193304461
C   C117      1.0  0.89329  0.19168  0.15217  1.0000 0.0193304461
C   C118      1.0  0.03951  0.74112  0.84783  1.0000 0.0193304461
C   C119      1.0  0.85671  0.50888  0.79839  1.0000 0.0193304461
C   C120      1.0  0.71049  0.05832  0.20161  1.0000 0.0193304461
C   C121      1.0  0.78980  0.69301  0.71781  1.0000 0.0279438843
C   C122      1.0  0.97520  0.07199  0.28219  1.0000 0.0279438843
C   C123      1.0  0.77480  0.55699  0.59679  1.0000 0.0279438843
C   C124      1.0  0.96020  0.17801  0.40321  1.0000 0.0279438843
C   C125      1.0  0.92801  0.21020  0.90321  1.0000 0.0279438843
C   C126      1.0  0.30699  0.02480  0.09679  1.0000 0.0279438843
C   C127      1.0  0.82199  0.22520  0.78219  1.0000 0.0279438843
C   C128      1.0  0.44301  0.03980  0.21781  1.0000 0.0279438843
C   C129      1.0  0.78848  0.75463  0.71911  1.0000 -0.2096901723
C   C130      1.0  0.03552  0.06937  0.28089  1.0000 -0.2096901723
C   C131      1.0  0.71448  0.49537  0.53385  1.0000 -0.2096901723
C   C132      1.0  0.96152  0.18063  0.46615  1.0000 -0.2096901723
C   C133      1.0  0.93063  0.21152  0.96615  1.0000 -0.2096901723
C   C134      1.0  0.24537  0.96448  0.03385  1.0000 -0.2096901723
C   C135      1.0  0.81937  0.28552  0.78089  1.0000 -0.2096901723
C   C136      1.0  0.50463  0.03848  0.21911  1.0000 -0.2096901723
C   C137      1.0  0.86594  0.84046  0.73760  1.0000 0.0815428958
C   C138      1.0  0.10286  0.12834  0.26240  1.0000 0.0815428958
C   C139      1.0  0.64714  0.40954  0.52548  1.0000 0.0815428958
C   C140      1.0  0.88406  0.12166  0.47452  1.0000 0.0815428958
C   C141      1.0  0.87166  0.13406  0.97452  1.0000 0.0815428958
C   C142      1.0  0.15954  0.89714  0.02548  1.0000 0.0815428958
C   C143      1.0  0.87834  0.35286  0.76240  1.0000 0.0815428958
C   C144      1.0  0.59046  0.11594  0.23760  1.0000 0.0815428958
C   C145      1.0  0.94070  0.86006  0.75336  1.0000 -0.2002068144
C   C146      1.0  0.10670  0.18734  0.24664  1.0000 -0.2002068144
C   C147      1.0  0.64330  0.38994  0.58064  1.0000 -0.2002068144
C   C148      1.0  0.80930  0.06266  0.41936  1.0000 -0.2002068144
C   C149      1.0  0.81266  0.05930  0.91936  1.0000 -0.2002068144
C   C150      1.0  0.13994  0.89330  0.08064  1.0000 -0.2002068144
C   C151      1.0  0.93734  0.35670  0.74664  1.0000 -0.2002068144
C   C152      1.0  0.61006  0.19070  0.25336  1.0000 -0.2002068144
C   C153      1.0  0.93824  0.79585  0.75049  1.0000 0.0279438843
C   C154      1.0  0.04536  0.18775  0.24951  1.0000 0.0279438843
C   C155      1.0  0.70464  0.45415  0.64239  1.0000 0.0279438843
C   C156      1.0  0.81176  0.06225  0.35761  1.0000 0.0279438843
C   C157      1.0  0.81225  0.06176  0.85761  1.0000 0.0279438843
C   C158      1.0  0.20415  0.95464  0.14239  1.0000 0.0279438843
C   C159      1.0  0.93775  0.29536  0.74951  1.0000 0.0279438843
C   C160      1.0  0.54585  0.18824  0.25049  1.0000 0.0279438843
N   N1        1.0  0.37340  0.62329  0.33349  1.0000 -0.2096901723
N   N2        1.0  0.28980  0.03991  0.66651  1.0000 -0.2096901723
N   N3        1.0  0.37660  0.21009  0.74989  1.0000 -0.2096901723
N   N4        1.0  0.46020  0.62671  0.25011  1.0000 -0.2096901723
N   N5        1.0  0.37671  0.71020  0.75011  1.0000 -0.2096901723
N   N6        1.0  0.96009  0.62660  0.24989  1.0000 -0.2096901723
N   N7        1.0  0.78991  0.53980  0.16651  1.0000 -0.2096901723
N   N8        1.0  0.37329  0.62340  0.83349  1.0000 -0.2096901723
N   N9        1.0  0.37929  0.61378  0.65047  1.0000 -0.2096901723
N   N10       1.0  0.96331  0.72882  0.34953  1.0000 -0.2096901723
N   N11       1.0  0.37071  0.52118  0.73449  1.0000 -0.2096901723
N   N12       1.0  0.78669  0.63622  0.26551  1.0000 -0.2096901723
N   N13       1.0  0.38622  0.03669  0.76551  1.0000 -0.2096901723
N   N14       1.0  0.27118  0.62071  0.23449  1.0000 -0.2096901723
N   N15       1.0  0.47882  0.21331  0.84953  1.0000 -0.2096901723
N   N16       1.0  0.36378  0.62929  0.15047  1.0000 -0.2096901723
N   N17       1.0  0.87329  0.03980  0.74989  1.0000 -0.2096901723
N   N18       1.0  0.28991  0.12340  0.25011  1.0000 -0.2096901723
N   N19       1.0  0.46009  0.21020  0.33349  1.0000 -0.2096901723
N   N20       1.0  0.87671  0.12660  0.66651  1.0000 -0.2096901723
N   N21       1.0  0.87660  0.12671  0.16651  1.0000 -0.2096901723
N   N22       1.0  0.96020  0.71009  0.83349  1.0000 -0.2096901723
N   N23       1.0  0.87340  0.53991  0.75011  1.0000 -0.2096901723
N   N24       1.0  0.78980  0.12329  0.24989  1.0000 -0.2096901723
N   N25       1.0  0.86378  0.71331  0.73449  1.0000 -0.2096901723
N   N26       1.0  0.97882  0.12929  0.26551  1.0000 -0.2096901723
N   N27       1.0  0.77118  0.53669  0.65047  1.0000 -0.2096901723
N   N28       1.0  0.88622  0.12071  0.34953  1.0000 -0.2096901723
N   N29       1.0  0.87071  0.13622  0.84953  1.0000 -0.2096901723
N   N30       1.0  0.28669  0.02118  0.15047  1.0000 -0.2096901723
N   N31       1.0  0.87929  0.22882  0.76551  1.0000 -0.2096901723
N   N32       1.0  0.46331  0.11378  0.23449  1.0000 -0.2096901723
