# DDEC6 charges by PACMAN v1.1 (https://github.com/mtap-research/PACMAN-charge/)
data_2011[Zn][rtl]3[ASR]2
_chemical_formula_sum              "Zn4 H32 C56 N8 O20"
_cell_length_a       13.983
_cell_length_b       13.265
_cell_length_c       14.189
_cell_angle_alpha    90
_cell_angle_beta     112.066
_cell_angle_gamma    90

_symmetry_space_group_name_H-M    "P 1"
_symmetry_Int_Tables_number       1

loop_
  _symmetry_equiv_pos_as_xyz
  'x, y, z'

loop_
  _atom_site_type_symbol
  _atom_site_label
  _atom_site_symmetry_multiplicity
  _atom_site_fract_x
  _atom_site_fract_y
  _atom_site_fract_z
  _atom_site_occupancy
  _atom_site_charge
Zn  Zn1       1.0  0.40033  0.55314  0.94897  1.0000 0.8387344019
Zn  Zn2       1.0  0.59967  0.05314  0.55103  1.0000 0.8387344019
Zn  Zn3       1.0  0.59967  0.44686  0.05103  1.0000 0.8387344019
Zn  Zn4       1.0  0.40033  0.94686  0.44897  1.0000 0.8387344019
H   H1        1.0  0.72250  0.25770  0.08780  1.0000 0.1310943554
H   H2        1.0  0.27750  0.75770  0.41220  1.0000 0.1310943554
H   H3        1.0  0.27750  0.74230  0.91220  1.0000 0.1310943554
H   H4        1.0  0.72250  0.24230  0.58780  1.0000 0.1310943554
H   H5        1.0  0.89490  0.20590  0.15380  1.0000 0.1310943554
H   H6        1.0  0.10510  0.70590  0.34620  1.0000 0.1310943554
H   H7        1.0  0.10510  0.79410  0.84620  1.0000 0.1310943554
H   H8        1.0  0.89490  0.29410  0.65380  1.0000 0.1310943554
H   H9        1.0  0.98600  0.49320  0.21510  1.0000 0.1310943554
H   H10       1.0  0.01400  0.99320  0.28490  1.0000 0.1310943554
H   H11       1.0  0.01400  0.50680  0.78490  1.0000 0.1310943554
H   H12       1.0  0.98600  0.00680  0.71510  1.0000 0.1310943554
H   H13       1.0  0.81430  0.54250  0.15950  1.0000 0.1310943554
H   H14       1.0  0.18570  0.04250  0.34050  1.0000 0.1310943554
H   H15       1.0  0.18570  0.45750  0.84050  1.0000 0.1310943554
H   H16       1.0  0.81430  0.95750  0.65950  1.0000 0.1310943554
H   H17       1.0  0.25680  0.43990  0.13550  1.0000 0.1310943554
H   H18       1.0  0.74320  0.93990  0.36450  1.0000 0.1310943554
H   H19       1.0  0.74320  0.56010  0.86450  1.0000 0.1310943554
H   H20       1.0  0.25680  0.06010  0.63550  1.0000 0.1310943554
H   H21       1.0  0.51780  0.28990  0.29080  1.0000 0.1310943554
H   H22       1.0  0.48220  0.78990  0.20920  1.0000 0.1310943554
H   H23       1.0  0.48220  0.71010  0.70920  1.0000 0.1310943554
H   H24       1.0  0.51780  0.21010  0.79080  1.0000 0.1310943554
H   H25       1.0  0.26010  0.23820  0.34790  1.0000 0.1310943554
H   H26       1.0  0.73990  0.73820  0.15210  1.0000 0.1310943554
H   H27       1.0  0.73990  0.76180  0.65210  1.0000 0.1310943554
H   H28       1.0  0.26010  0.26180  0.84790  1.0000 0.1310943554
H   H29       1.0  0.11770  0.42950  0.19920  1.0000 0.2759932042
H   H30       1.0  0.88230  0.92950  0.30080  1.0000 0.2759932042
H   H31       1.0  0.88230  0.57050  0.80080  1.0000 0.2759932042
H   H32       1.0  0.11770  0.07050  0.69920  1.0000 0.2759932042
C   C1        1.0  0.77510  0.30470  0.11520  1.0000 0.0797113427
C   C2        1.0  0.22490  0.80470  0.38480  1.0000 0.0797113427
C   C3        1.0  0.22490  0.69530  0.88480  1.0000 0.0797113427
C   C4        1.0  0.77510  0.19530  0.61520  1.0000 0.0797113427
C   C5        1.0  0.87860  0.27390  0.15320  1.0000 -0.1451797946
C   C6        1.0  0.12140  0.77390  0.34680  1.0000 -0.1451797946
C   C7        1.0  0.12140  0.72610  0.84680  1.0000 -0.1451797946
C   C8        1.0  0.87860  0.22610  0.65320  1.0000 -0.1451797946
C   C9        1.0  0.95530  0.34400  0.18940  1.0000 0.011531907
C   C10       1.0  0.04470  0.84400  0.31060  1.0000 0.011531907
C   C11       1.0  0.04470  0.65600  0.81060  1.0000 0.011531907
C   C12       1.0  0.95530  0.15600  0.68940  1.0000 0.011531907
C   C13       1.0  0.93340  0.44580  0.19140  1.0000 -0.1847148551
C   C14       1.0  0.06660  0.94580  0.30860  1.0000 -0.1847148551
C   C15       1.0  0.06660  0.55420  0.80860  1.0000 -0.1852887883
C   C16       1.0  0.93340  0.05420  0.69140  1.0000 -0.1847148551
C   C17       1.0  0.83050  0.47480  0.15690  1.0000 0.1015357883
C   C18       1.0  0.16950  0.97480  0.34310  1.0000 0.1015357883
C   C19       1.0  0.16950  0.52520  0.84310  1.0000 0.1015357883
C   C20       1.0  0.83050  0.02520  0.65690  1.0000 0.1015357883
C   C21       1.0  0.06560  0.30470  0.22540  1.0000 0.4554966526
C   C22       1.0  0.93440  0.80470  0.27460  1.0000 0.4544035034
C   C23       1.0  0.93440  0.69530  0.77460  1.0000 0.4544035034
C   C24       1.0  0.06560  0.19530  0.72540  1.0000 0.4544035034
C   C25       1.0  0.24180  0.34450  0.23830  1.0000 0.2254423634
C   C26       1.0  0.75820  0.84450  0.26170  1.0000 0.2254423634
C   C27       1.0  0.75820  0.65550  0.76170  1.0000 0.2254423634
C   C28       1.0  0.24180  0.15550  0.73830  1.0000 0.2254423634
C   C29       1.0  0.29250  0.39330  0.18530  1.0000 -0.2130530974
C   C30       1.0  0.70750  0.89330  0.31470  1.0000 -0.2130530974
C   C31       1.0  0.70750  0.60670  0.81470  1.0000 -0.2130530974
C   C32       1.0  0.29250  0.10670  0.68530  1.0000 -0.2130530974
C   C33       1.0  0.39590  0.37480  0.20450  1.0000 -0.0016380812
C   C34       1.0  0.60410  0.87480  0.29550  1.0000 -0.0016380812
C   C35       1.0  0.60410  0.62520  0.79550  1.0000 -0.0016380812
C   C36       1.0  0.39590  0.12520  0.70450  1.0000 -0.0016380812
C   C37       1.0  0.44870  0.30310  0.27780  1.0000 -0.1314604147
C   C38       1.0  0.55130  0.80310  0.22220  1.0000 -0.1314604147
C   C39       1.0  0.55130  0.69690  0.72220  1.0000 -0.1314604147
C   C40       1.0  0.44870  0.19690  0.77780  1.0000 -0.1314604147
C   C41       1.0  0.39960  0.25190  0.33080  1.0000 -0.0132278642
C   C42       1.0  0.60040  0.75190  0.16920  1.0000 -0.0132278642
C   C43       1.0  0.60040  0.74810  0.66920  1.0000 -0.0132278642
C   C44       1.0  0.39960  0.24810  0.83080  1.0000 -0.0132278642
C   C45       1.0  0.29390  0.27210  0.31200  1.0000 -0.2004018439
C   C46       1.0  0.70610  0.77210  0.18800  1.0000 -0.2004018439
C   C47       1.0  0.70610  0.72790  0.68800  1.0000 -0.2004018439
C   C48       1.0  0.29390  0.22790  0.81200  1.0000 -0.2004018439
C   C49       1.0  0.44380  0.42370  0.13730  1.0000 0.5814639465
C   C50       1.0  0.55620  0.92370  0.36270  1.0000 0.5814639465
C   C51       1.0  0.55620  0.57630  0.86270  1.0000 0.5814639465
C   C52       1.0  0.44380  0.07630  0.63730  1.0000 0.5814639465
C   C53       1.0  0.44810  0.16700  0.40210  1.0000 0.5814639465
C   C54       1.0  0.55190  0.66700  0.09790  1.0000 0.5814639465
C   C55       1.0  0.55190  0.83300  0.59790  1.0000 0.5814639465
C   C56       1.0  0.44810  0.33300  0.90210  1.0000 0.5814639465
N   N1        1.0  0.75188  0.40590  0.11883  1.0000 -0.2227952047
N   N2        1.0  0.24812  0.90590  0.38117  1.0000 -0.2227952047
N   N3        1.0  0.24812  0.59410  0.88117  1.0000 -0.2227952047
N   N4        1.0  0.75188  0.09410  0.61883  1.0000 -0.2227952047
N   N5        1.0  0.13713  0.36876  0.21792  1.0000 -0.3581531807
N   N6        1.0  0.86287  0.86876  0.28208  1.0000 -0.3581531807
N   N7        1.0  0.86287  0.63124  0.78208  1.0000 -0.3581531807
N   N8        1.0  0.13713  0.13124  0.71792  1.0000 -0.3581531807
O   O1        1.0  0.08200  0.21672  0.25248  1.0000 -0.4581940784
O   O2        1.0  0.91800  0.71672  0.24752  1.0000 -0.4581940784
O   O3        1.0  0.91800  0.78328  0.74752  1.0000 -0.4581940784
O   O4        1.0  0.08200  0.28328  0.75248  1.0000 -0.4581940784
O   O5        1.0  0.39067  0.48672  0.07609  1.0000 -0.5367901786
O   O6        1.0  0.60933  0.98672  0.42391  1.0000 -0.5367901786
O   O7        1.0  0.60933  0.51328  0.92391  1.0000 -0.5367901786
O   O8        1.0  0.39067  0.01328  0.57609  1.0000 -0.5367901786
O   O9        1.0  0.53440  0.39724  0.14920  1.0000 -0.5280175222
O   O10       1.0  0.46560  0.89724  0.35080  1.0000 -0.5280175222
O   O11       1.0  0.46560  0.60276  0.85080  1.0000 -0.5280175222
O   O12       1.0  0.53440  0.10276  0.64920  1.0000 -0.5280175222
O   O13       1.0  0.54068  0.17653  0.46151  1.0000 -0.5280175222
O   O14       1.0  0.45932  0.67653  0.03849  1.0000 -0.5280175222
O   O15       1.0  0.45932  0.82347  0.53849  1.0000 -0.5280175222
O   O16       1.0  0.54068  0.32347  0.96151  1.0000 -0.5280175222
O   O17       1.0  0.39407  0.09174  0.39768  1.0000 -0.5464270576
O   O18       1.0  0.60593  0.59174  0.10232  1.0000 -0.5464270576
O   O19       1.0  0.60593  0.90826  0.60232  1.0000 -0.5464270576
O   O20       1.0  0.39407  0.40826  0.89768  1.0000 -0.5464270576
