# DDEC6 charges by PACMAN v1.1 (https://github.com/mtap-research/PACMAN-charge/)
data_2011[Cu][nan]3[ASR]5
_chemical_formula_sum              "Cu8 H56 C104 N8 O36"
_cell_length_a       14.207
_cell_length_b       26.22
_cell_length_c       14.564
_cell_angle_alpha    90
_cell_angle_beta     107.08
_cell_angle_gamma    90

_symmetry_space_group_name_H-M    "P 1"
_symmetry_Int_Tables_number       1

loop_
  _symmetry_equiv_pos_as_xyz
  'x, y, z'

loop_
  _atom_site_type_symbol
  _atom_site_label
  _atom_site_symmetry_multiplicity
  _atom_site_fract_x
  _atom_site_fract_y
  _atom_site_fract_z
  _atom_site_occupancy
  _atom_site_charge
Cu  Cu1       1.0  0.56376  0.79726  0.43549  1.0000 0.7097302299
Cu  Cu2       1.0  0.93624  0.29726  0.56451  1.0000 0.7097302299
Cu  Cu3       1.0  0.43624  0.20274  0.56451  1.0000 0.7097302299
Cu  Cu4       1.0  0.06376  0.70274  0.43549  1.0000 0.7045080882
Cu  Cu5       1.0  0.41098  0.47975  0.97273  1.0000 0.8455714804
Cu  Cu6       1.0  0.08902  0.97975  0.02727  1.0000 0.8455714804
Cu  Cu7       1.0  0.58902  0.52025  0.02727  1.0000 0.8455714804
Cu  Cu8       1.0  0.91098  0.02025  0.97273  1.0000 0.8455714804
H   H1        1.0  0.74060  0.73860  0.53520  1.0000 0.1015857088
H   H2        1.0  0.75940  0.23860  0.46480  1.0000 0.1015857088
H   H3        1.0  0.25940  0.26140  0.46480  1.0000 0.1015857088
H   H4        1.0  0.24060  0.76140  0.53520  1.0000 0.1015857088
H   H5        1.0  0.78550  0.66720  0.64170  1.0000 0.1324097138
H   H6        1.0  0.71450  0.16720  0.35830  1.0000 0.1324097138
H   H7        1.0  0.21450  0.33280  0.35830  1.0000 0.1324097138
H   H8        1.0  0.28550  0.83280  0.64170  1.0000 0.1324097138
H   H9        1.0  0.66120  0.62330  0.68280  1.0000 0.1123606094
H   H10       1.0  0.83880  0.12330  0.31720  1.0000 0.1123606094
H   H11       1.0  0.33880  0.37670  0.31720  1.0000 0.1123606094
H   H12       1.0  0.16120  0.87670  0.68280  1.0000 0.1123606094
H   H13       1.0  0.46870  0.73100  0.55290  1.0000 0.1015857088
H   H14       1.0  0.03130  0.23100  0.44710  1.0000 0.1015857088
H   H15       1.0  0.53130  0.26900  0.44710  1.0000 0.1015857088
H   H16       1.0  0.96870  0.76900  0.55290  1.0000 0.1015857088
H   H17       1.0  0.56680  0.61420  0.77940  1.0000 0.1204496669
H   H18       1.0  0.93320  0.11420  0.22060  1.0000 0.1204496669
H   H19       1.0  0.43320  0.38580  0.22060  1.0000 0.1204496669
H   H20       1.0  0.06680  0.88580  0.77940  1.0000 0.1204496669
H   H21       1.0  0.28090  0.58240  0.74230  1.0000 0.1204496669
H   H22       1.0  0.21910  0.08240  0.25770  1.0000 0.1204496669
H   H23       1.0  0.71910  0.41760  0.25770  1.0000 0.1204496669
H   H24       1.0  0.78090  0.91760  0.74230  1.0000 0.1204496669
H   H25       1.0  0.35540  0.67420  0.55120  1.0000 0.1123606094
H   H26       1.0  0.14460  0.17420  0.44880  1.0000 0.1123606094
H   H27       1.0  0.64460  0.32580  0.44880  1.0000 0.1123606094
H   H28       1.0  0.85540  0.82580  0.55120  1.0000 0.1123606094
H   H29       1.0  0.42470  0.85250  0.26090  1.0000 0.1204496669
H   H30       1.0  0.07530  0.35250  0.73910  1.0000 0.1204496669
H   H31       1.0  0.57530  0.14750  0.73910  1.0000 0.1204496669
H   H32       1.0  0.92470  0.64750  0.26090  1.0000 0.1204496669
H   H33       1.0  0.43870  0.88710  0.11840  1.0000 0.1370553073
H   H34       1.0  0.06130  0.38710  0.88160  1.0000 0.1370553073
H   H35       1.0  0.56130  0.11290  0.88160  1.0000 0.1370553073
H   H36       1.0  0.93870  0.61290  0.11840  1.0000 0.1370553073
H   H37       1.0  0.59090  0.89610  0.09550  1.0000 0.1204496669
H   H38       1.0  0.90910  0.39610  0.90450  1.0000 0.1204496669
H   H39       1.0  0.40910  0.10390  0.90450  1.0000 0.1204496669
H   H40       1.0  0.09090  0.60390  0.09550  1.0000 0.1204496669
H   H41       1.0  0.71060  0.83140  0.35660  1.0000 0.0922973786
H   H42       1.0  0.78940  0.33140  0.64340  1.0000 0.0922973786
H   H43       1.0  0.28940  0.16860  0.64340  1.0000 0.0922973786
H   H44       1.0  0.21060  0.66860  0.35660  1.0000 0.0922973786
H   H45       1.0  0.76540  0.92430  0.12610  1.0000 0.1204496669
H   H46       1.0  0.73460  0.42430  0.87390  1.0000 0.1204496669
H   H47       1.0  0.23460  0.07570  0.87390  1.0000 0.1204496669
H   H48       1.0  0.26540  0.57570  0.12610  1.0000 0.1204496669
H   H49       1.0  0.03650  0.85860  0.20190  1.0000 0.1324097138
H   H50       1.0  0.46350  0.35860  0.79810  1.0000 0.1324097138
H   H51       1.0  0.96350  0.14140  0.79810  1.0000 0.1324097138
H   H52       1.0  0.53650  0.64140  0.20190  1.0000 0.1324097138
H   H53       1.0  0.81670  0.79760  0.29140  1.0000 0.1204496669
H   H54       1.0  0.68330  0.29760  0.70860  1.0000 0.1204496669
H   H55       1.0  0.18330  0.20240  0.70860  1.0000 0.1204496669
H   H56       1.0  0.31670  0.70240  0.29140  1.0000 0.1204496669
C   C1        1.0  0.69290  0.72210  0.55880  1.0000 0.1015857088
C   C2        1.0  0.80710  0.22210  0.44120  1.0000 0.1015857088
C   C3        1.0  0.30710  0.27790  0.44120  1.0000 0.1015857088
C   C4        1.0  0.19290  0.77790  0.55880  1.0000 0.1015857088
C   C5        1.0  0.71930  0.67880  0.62030  1.0000 -0.149277871
C   C6        1.0  0.78070  0.17880  0.37970  1.0000 -0.149277871
C   C7        1.0  0.28070  0.32120  0.37970  1.0000 -0.149277871
C   C8        1.0  0.21930  0.82120  0.62030  1.0000 -0.149277871
C   C9        1.0  0.64650  0.65430  0.64770  1.0000 -0.0896514453
C   C10       1.0  0.85350  0.15430  0.35230  1.0000 -0.0896514453
C   C11       1.0  0.35350  0.34570  0.35230  1.0000 -0.0896514453
C   C12       1.0  0.14650  0.84570  0.64770  1.0000 -0.0896514453
C   C13       1.0  0.55190  0.67390  0.62500  1.0000 0.0295481353
C   C14       1.0  0.94810  0.17390  0.37500  1.0000 0.0295481353
C   C15       1.0  0.44810  0.32610  0.37500  1.0000 0.0295481353
C   C16       1.0  0.05190  0.82610  0.62500  1.0000 0.0295481353
C   C17       1.0  0.53290  0.71660  0.56870  1.0000 0.022048881
C   C18       1.0  0.96710  0.21660  0.43130  1.0000 0.022048881
C   C19       1.0  0.46710  0.28340  0.43130  1.0000 0.022048881
C   C20       1.0  0.03290  0.78340  0.56870  1.0000 0.022048881
C   C21       1.0  0.47160  0.64900  0.65460  1.0000 0.0687949542
C   C22       1.0  0.02840  0.14900  0.34540  1.0000 0.0687949542
C   C23       1.0  0.52840  0.35100  0.34540  1.0000 0.0687949542
C   C24       1.0  0.97160  0.85100  0.65460  1.0000 0.0687949542
C   C25       1.0  0.49980  0.61740  0.74240  1.0000 -0.149277871
C   C26       1.0  0.00020  0.11740  0.25760  1.0000 -0.149277871
C   C27       1.0  0.50020  0.38260  0.25760  1.0000 -0.149277871
C   C28       1.0  0.99980  0.88260  0.74240  1.0000 -0.1566670019
C   C29       1.0  0.42620  0.59250  0.76930  1.0000 -0.0032943356
C   C30       1.0  0.07380  0.09250  0.23070  1.0000 -0.0032943356
C   C31       1.0  0.57380  0.40750  0.23070  1.0000 -0.0032943356
C   C32       1.0  0.92620  0.90750  0.76930  1.0000 0.0002034899
C   C33       1.0  0.33020  0.59870  0.72070  1.0000 -0.1400887955
C   C34       1.0  0.16980  0.09870  0.27930  1.0000 -0.1319823661
C   C35       1.0  0.66980  0.40130  0.27930  1.0000 -0.1319823661
C   C36       1.0  0.83020  0.90130  0.72070  1.0000 -0.1319823661
C   C37       1.0  0.30250  0.63050  0.63470  1.0000 -0.0296556054
C   C38       1.0  0.19750  0.13050  0.36530  1.0000 -0.0296556054
C   C39       1.0  0.69750  0.36950  0.36530  1.0000 -0.0296556054
C   C40       1.0  0.80250  0.86950  0.63470  1.0000 -0.0296556054
C   C41       1.0  0.37390  0.65350  0.60720  1.0000 -0.1566670019
C   C42       1.0  0.12610  0.15350  0.39280  1.0000 -0.1566670019
C   C43       1.0  0.62610  0.34650  0.39280  1.0000 -0.1566670019
C   C44       1.0  0.87390  0.84650  0.60720  1.0000 -0.1566670019
C   C45       1.0  0.19480  0.63800  0.58320  1.0000 0.4454240423
C   C46       1.0  0.30520  0.13800  0.41680  1.0000 0.4420397005
C   C47       1.0  0.80520  0.36200  0.41680  1.0000 0.4420397005
C   C48       1.0  0.69480  0.86200  0.58320  1.0000 0.4420397005
C   C49       1.0  0.45190  0.55790  0.85630  1.0000 0.5836998444
C   C50       1.0  0.04810  0.05790  0.14370  1.0000 0.5836998444
C   C51       1.0  0.54810  0.44210  0.14370  1.0000 0.5836998444
C   C52       1.0  0.95190  0.94210  0.85630  1.0000 0.5836998444
C   C53       1.0  0.48720  0.85550  0.25020  1.0000 0.0504104627
C   C54       1.0  0.01280  0.35550  0.74980  1.0000 0.0504104627
C   C55       1.0  0.51280  0.14450  0.74980  1.0000 0.0504104627
C   C56       1.0  0.98720  0.64450  0.25020  1.0000 0.0504104627
C   C57       1.0  0.49580  0.87590  0.16660  1.0000 -0.149277871
C   C58       1.0  0.00420  0.37590  0.83340  1.0000 -0.149277871
C   C59       1.0  0.50420  0.12410  0.83340  1.0000 -0.149277871
C   C60       1.0  0.99580  0.62410  0.16660  1.0000 -0.149277871
C   C61       1.0  0.58590  0.88030  0.15260  1.0000 -0.0896514453
C   C62       1.0  0.91410  0.38030  0.84740  1.0000 -0.0896514453
C   C63       1.0  0.41410  0.11970  0.84740  1.0000 -0.0896514453
C   C64       1.0  0.08590  0.61970  0.15260  1.0000 -0.0896514453
C   C65       1.0  0.67380  0.86170  0.22130  1.0000 0.022048881
C   C66       1.0  0.82620  0.36170  0.77870  1.0000 0.022048881
C   C67       1.0  0.32620  0.13830  0.77870  1.0000 0.022048881
C   C68       1.0  0.17380  0.63830  0.22130  1.0000 0.022048881
C   C69       1.0  0.65580  0.84260  0.30580  1.0000 0.0759359651
C   C70       1.0  0.84420  0.34260  0.69420  1.0000 0.0759359651
C   C71       1.0  0.34420  0.15740  0.69420  1.0000 0.0759359651
C   C72       1.0  0.15580  0.65740  0.30580  1.0000 0.0759359651
C   C73       1.0  0.77120  0.86220  0.21220  1.0000 0.0504104627
C   C74       1.0  0.72880  0.36220  0.78780  1.0000 0.0504104627
C   C75       1.0  0.22880  0.13780  0.78780  1.0000 0.0504104627
C   C76       1.0  0.27120  0.63780  0.21220  1.0000 0.0504104627
C   C77       1.0  0.80810  0.89800  0.15940  1.0000 -0.1400887955
C   C78       1.0  0.69190  0.39800  0.84060  1.0000 -0.1400887955
C   C79       1.0  0.19190  0.10200  0.84060  1.0000 -0.1400887955
C   C80       1.0  0.30810  0.60200  0.15940  1.0000 -0.1400887955
C   C81       1.0  0.90070  0.89680  0.15380  1.0000 -0.0032943356
C   C82       1.0  0.59930  0.39680  0.84620  1.0000 -0.0032943356
C   C83       1.0  0.09930  0.10320  0.84620  1.0000 -0.0032943356
C   C84       1.0  0.40070  0.60320  0.15380  1.0000 -0.0032943356
C   C85       1.0  0.97000  0.85910  0.20310  1.0000 -0.1319823661
C   C86       1.0  0.53000  0.35910  0.79690  1.0000 -0.1319823661
C   C87       1.0  0.03000  0.14090  0.79690  1.0000 -0.1319823661
C   C88       1.0  0.47000  0.64090  0.20310  1.0000 -0.1319823661
C   C89       1.0  0.93110  0.82240  0.25410  1.0000 0.0105891969
C   C90       1.0  0.56890  0.32240  0.74590  1.0000 0.0105891969
C   C91       1.0  0.06890  0.17760  0.74590  1.0000 0.0105891969
C   C92       1.0  0.43110  0.67760  0.25410  1.0000 0.0105891969
C   C93       1.0  0.83850  0.82370  0.25730  1.0000 -0.1566670019
C   C94       1.0  0.66150  0.32370  0.74270  1.0000 -0.1566670019
C   C95       1.0  0.16150  0.17630  0.74270  1.0000 -0.1566670019
C   C96       1.0  0.33850  0.67630  0.25730  1.0000 -0.1566670019
C   C97       1.0  0.94250  0.93500  0.09560  1.0000 0.5665884834
C   C98       1.0  0.55750  0.43500  0.90440  1.0000 0.5665884834
C   C99       1.0  0.05750  0.06500  0.90440  1.0000 0.5665884834
C   C100      1.0  0.44250  0.56500  0.09560  1.0000 0.5665884834
C   C101      1.0  0.00870  0.78190  0.31140  1.0000 0.5367378217
C   C102      1.0  0.49130  0.28190  0.68860  1.0000 0.5367378217
C   C103      1.0  0.99130  0.21810  0.68860  1.0000 0.5367378217
C   C104      1.0  0.50870  0.71810  0.31140  1.0000 0.5367378217
N   N1        1.0  0.60060  0.73900  0.53500  1.0000 -0.2103131752
N   N2        1.0  0.89940  0.23900  0.46500  1.0000 -0.2103131752
N   N3        1.0  0.39940  0.26100  0.46500  1.0000 -0.2103131752
N   N4        1.0  0.10060  0.76100  0.53500  1.0000 -0.2103131752
N   N5        1.0  0.56970  0.83960  0.31740  1.0000 -0.2103131752
N   N6        1.0  0.93030  0.33960  0.68260  1.0000 -0.2103131752
N   N7        1.0  0.43030  0.16040  0.68260  1.0000 -0.2103131752
N   N8        1.0  0.06970  0.66040  0.31740  1.0000 -0.2103131752
O   O1        1.0  0.12580  0.60650  0.58680  1.0000 -0.0225422711
O   O2        1.0  0.37420  0.10650  0.41320  1.0000 -0.0225422711
O   O3        1.0  0.87420  0.39350  0.41320  1.0000 -0.0225422711
O   O4        1.0  0.62580  0.89350  0.58680  1.0000 -0.0225422711
O   O5        1.0  0.17990  0.66695  0.50930  1.0000 -0.5722561556
O   O6        1.0  0.32010  0.16695  0.49070  1.0000 -0.5722561556
O   O7        1.0  0.82010  0.33305  0.49070  1.0000 -0.5722561556
O   O8        1.0  0.67990  0.83305  0.50930  1.0000 -0.5722561556
O   O9        1.0  0.38690  0.52773  0.86630  1.0000 -0.5193968195
O   O10       1.0  0.11310  0.02773  0.13370  1.0000 -0.5193968195
O   O11       1.0  0.61310  0.47227  0.13370  1.0000 -0.5193968195
O   O12       1.0  0.88690  0.97227  0.86630  1.0000 -0.5193968195
O   O13       1.0  0.53880  0.56176  0.91130  1.0000 -0.5294953812
O   O14       1.0  0.96120  0.06176  0.08870  1.0000 -0.5294953812
O   O15       1.0  0.46120  0.43824  0.08870  1.0000 -0.5294953812
O   O16       1.0  0.03880  0.93824  0.91130  1.0000 -0.5294953812
O   O17       1.0  0.87600  0.96711  0.05070  1.0000 -0.5536239449
O   O18       1.0  0.62400  0.46711  0.94930  1.0000 -0.5536239449
O   O19       1.0  0.12400  0.03289  0.94930  1.0000 -0.5536239449
O   O20       1.0  0.37600  0.53289  0.05070  1.0000 -0.5536239449
O   O21       1.0  0.02800  0.93308  0.09680  1.0000 -0.4915246743
O   O22       1.0  0.47200  0.43308  0.90320  1.0000 -0.4915246743
O   O23       1.0  0.97200  0.06692  0.90320  1.0000 -0.4915246743
O   O24       1.0  0.52800  0.56692  0.09680  1.0000 -0.4915246743
O   O25       1.0  0.09670  0.78259  0.31540  1.0000 -0.5536239449
O   O26       1.0  0.40330  0.28259  0.68460  1.0000 -0.5536239449
O   O27       1.0  0.90330  0.21741  0.68460  1.0000 -0.5536239449
O   O28       1.0  0.59670  0.71741  0.31540  1.0000 -0.5536239449
O   O29       1.0  0.96710  0.74841  0.35270  1.0000 -0.5812038559
O   O30       1.0  0.53290  0.24841  0.64730  1.0000 -0.5812038559
O   O31       1.0  0.03290  0.25159  0.64730  1.0000 -0.5812038559
O   O32       1.0  0.46710  0.75159  0.35270  1.0000 -0.5812038559
O   O33       1.0  0.13610  0.63470  0.63420  1.0000 -0.1319823661
O   O34       1.0  0.36390  0.13470  0.36580  1.0000 -0.1319823661
O   O35       1.0  0.86390  0.36530  0.36580  1.0000 -0.1319823661
O   O36       1.0  0.63610  0.86530  0.63420  1.0000 -0.1319823661
