# DDEC6 charges by PACMAN v1.1 (https://github.com/mtap-research/PACMAN-charge/)
data_2011[Zn][flu]3[ASR]2
_chemical_formula_sum              "Zn16 H56 C152 O64"
_cell_length_a       10.5236
_cell_length_b       25.768
_cell_length_c       25.9507
_cell_angle_alpha    90
_cell_angle_beta     90
_cell_angle_gamma    90

_symmetry_space_group_name_H-M    "P 1"
_symmetry_Int_Tables_number       1

loop_
  _symmetry_equiv_pos_as_xyz
  'x, y, z'

loop_
  _atom_site_type_symbol
  _atom_site_label
  _atom_site_symmetry_multiplicity
  _atom_site_fract_x
  _atom_site_fract_y
  _atom_site_fract_z
  _atom_site_occupancy
  _atom_site_charge
Zn  Zn1       1.0  0.56216  0.57847  0.86852  1.0000 0.9803212597
Zn  Zn2       1.0  0.06216  0.42153  0.63148  1.0000 0.9803212597
Zn  Zn3       1.0  0.43784  0.07847  0.13148  1.0000 0.9803212597
Zn  Zn4       1.0  0.93784  0.92153  0.36852  1.0000 0.9803212597
Zn  Zn5       1.0  0.43784  0.42153  0.13148  1.0000 0.9803212597
Zn  Zn6       1.0  0.93784  0.57847  0.36852  1.0000 0.9803212597
Zn  Zn7       1.0  0.56216  0.92153  0.86852  1.0000 0.9803212597
Zn  Zn8       1.0  0.06216  0.07847  0.63148  1.0000 0.9803212597
Zn  Zn9       1.0  0.79879  0.49611  0.88877  1.0000 0.9463851018
Zn  Zn10      1.0  0.29879  0.50389  0.61123  1.0000 0.9463851018
Zn  Zn11      1.0  0.20121  0.99611  0.11123  1.0000 0.9463851018
Zn  Zn12      1.0  0.70121  0.00389  0.38877  1.0000 0.9463851018
Zn  Zn13      1.0  0.20121  0.50389  0.11123  1.0000 0.9463851018
Zn  Zn14      1.0  0.70121  0.49611  0.38877  1.0000 0.9463851018
Zn  Zn15      1.0  0.79879  0.00389  0.88877  1.0000 0.9463851018
Zn  Zn16      1.0  0.29879  0.99611  0.61123  1.0000 0.9463851018
H   H1        1.0  0.49920  0.37550  0.86850  1.0000 0.1260519451
H   H2        1.0  0.99920  0.62450  0.63150  1.0000 0.1228669783
H   H3        1.0  0.50080  0.87550  0.13150  1.0000 0.1228669783
H   H4        1.0  0.00080  0.12450  0.36850  1.0000 0.1260519451
H   H5        1.0  0.50080  0.62450  0.13150  1.0000 0.1228669783
H   H6        1.0  0.00080  0.37550  0.36850  1.0000 0.1260519451
H   H7        1.0  0.49920  0.12450  0.86850  1.0000 0.1260519451
H   H8        1.0  0.99920  0.87550  0.63150  1.0000 0.1228669783
H   H9        1.0  0.28140  0.33470  0.74600  1.0000 0.1228669783
H   H10       1.0  0.78140  0.66530  0.75400  1.0000 0.1228669783
H   H11       1.0  0.71860  0.83470  0.25400  1.0000 0.1228669783
H   H12       1.0  0.21860  0.16530  0.24600  1.0000 0.1228669783
H   H13       1.0  0.71860  0.66530  0.25400  1.0000 0.1228669783
H   H14       1.0  0.21860  0.33470  0.24600  1.0000 0.1228669783
H   H15       1.0  0.28140  0.16530  0.74600  1.0000 0.1228669783
H   H16       1.0  0.78140  0.83470  0.75400  1.0000 0.1228669783
H   H17       1.0  0.46030  0.47330  0.74770  1.0000 0.1393177011
H   H18       1.0  0.96030  0.52670  0.75230  1.0000 0.1393177011
H   H19       1.0  0.53970  0.97330  0.25230  1.0000 0.1393177011
H   H20       1.0  0.03970  0.02670  0.24770  1.0000 0.1393177011
H   H21       1.0  0.53970  0.52670  0.25230  1.0000 0.1393177011
H   H22       1.0  0.03970  0.47330  0.24770  1.0000 0.1393177011
H   H23       1.0  0.46030  0.02670  0.74770  1.0000 0.1393177011
H   H24       1.0  0.96030  0.97330  0.75230  1.0000 0.1393177011
H   H25       1.0  0.12840  0.45650  0.99140  1.0000 0.1393177011
H   H26       1.0  0.62840  0.54350  0.50860  1.0000 0.1393177011
H   H27       1.0  0.87160  0.95650  0.00860  1.0000 0.1393177011
H   H28       1.0  0.37160  0.04350  0.49140  1.0000 0.1393177011
H   H29       1.0  0.87160  0.54350  0.00860  1.0000 0.1393177011
H   H30       1.0  0.37160  0.45650  0.49140  1.0000 0.1393177011
H   H31       1.0  0.12840  0.04350  0.99140  1.0000 0.1393177011
H   H32       1.0  0.62840  0.95650  0.50860  1.0000 0.1393177011
H   H33       1.0  0.12920  0.36670  0.86370  1.0000 0.1228669783
H   H34       1.0  0.62920  0.63330  0.63630  1.0000 0.1228669783
H   H35       1.0  0.87080  0.86670  0.13630  1.0000 0.1228669783
H   H36       1.0  0.37080  0.13330  0.36370  1.0000 0.1228669783
H   H37       1.0  0.87080  0.63330  0.13630  1.0000 0.1228669783
H   H38       1.0  0.37080  0.36670  0.36370  1.0000 0.1228669783
H   H39       1.0  0.12920  0.13330  0.86370  1.0000 0.1228669783
H   H40       1.0  0.62920  0.86670  0.63630  1.0000 0.1228669783
H   H41       1.0  0.38100  0.33850  0.97850  1.0000 0.1228669783
H   H42       1.0  0.88100  0.66150  0.52150  1.0000 0.1228669783
H   H43       1.0  0.61900  0.83850  0.02150  1.0000 0.1228669783
H   H44       1.0  0.11900  0.16150  0.47850  1.0000 0.1228669783
H   H45       1.0  0.61900  0.66150  0.02150  1.0000 0.1228669783
H   H46       1.0  0.11900  0.33850  0.47850  1.0000 0.1228669783
H   H47       1.0  0.38100  0.16150  0.97850  1.0000 0.1228669783
H   H48       1.0  0.88100  0.83850  0.52150  1.0000 0.1228669783
H   H49       1.0  0.40600  0.25000  0.77950  1.0000 0.1228669783
H   H50       1.0  0.90600  0.75000  0.72050  1.0000 0.1228669783
H   H51       1.0  0.59400  0.75000  0.22050  1.0000 0.1228669783
H   H52       1.0  0.09400  0.25000  0.27950  1.0000 0.1228669783
H   H53       1.0  0.25520  0.25000  0.94800  1.0000 0.1260519451
H   H54       1.0  0.75520  0.75000  0.55200  1.0000 0.1260519451
H   H55       1.0  0.74480  0.75000  0.05200  1.0000 0.1260519451
H   H56       1.0  0.24480  0.25000  0.44800  1.0000 0.1260519451
C   C1        1.0  0.58120  0.46757  0.83739  1.0000 0.5921336873
C   C2        1.0  0.08120  0.53243  0.66261  1.0000 0.5921336873
C   C3        1.0  0.41880  0.96757  0.16261  1.0000 0.5921336873
C   C4        1.0  0.91880  0.03243  0.33739  1.0000 0.5921336873
C   C5        1.0  0.41880  0.53243  0.16261  1.0000 0.5921336873
C   C6        1.0  0.91880  0.46757  0.33739  1.0000 0.5921336873
C   C7        1.0  0.58120  0.03243  0.83739  1.0000 0.5921336873
C   C8        1.0  0.08120  0.96757  0.66261  1.0000 0.5921336873
C   C9        1.0  0.49450  0.42956  0.81159  1.0000 -0.0112760681
C   C10       1.0  0.99450  0.57044  0.68841  1.0000 -0.0112760681
C   C11       1.0  0.50550  0.92956  0.18841  1.0000 -0.0112760681
C   C12       1.0  0.00550  0.07044  0.31159  1.0000 -0.0112760681
C   C13       1.0  0.50550  0.57044  0.18841  1.0000 -0.0112760681
C   C14       1.0  0.00550  0.42956  0.31159  1.0000 -0.0112760681
C   C15       1.0  0.49450  0.07044  0.81159  1.0000 -0.0112760681
C   C16       1.0  0.99450  0.92956  0.68841  1.0000 -0.0112760681
C   C17       1.0  0.46480  0.38305  0.83549  1.0000 -0.1436574207
C   C18       1.0  0.96480  0.61695  0.66451  1.0000 -0.1436574207
C   C19       1.0  0.53520  0.88305  0.16451  1.0000 -0.1436574207
C   C20       1.0  0.03520  0.11695  0.33549  1.0000 -0.1436574207
C   C21       1.0  0.53520  0.61695  0.16451  1.0000 -0.1436574207
C   C22       1.0  0.03520  0.38305  0.33549  1.0000 -0.1436574207
C   C23       1.0  0.46480  0.11695  0.83549  1.0000 -0.1436574207
C   C24       1.0  0.96480  0.88305  0.66451  1.0000 -0.1436574207
C   C25       1.0  0.38480  0.34718  0.81145  1.0000 0.0683638207
C   C26       1.0  0.88480  0.65282  0.68855  1.0000 0.0683638207
C   C27       1.0  0.61520  0.84718  0.18855  1.0000 0.0683638207
C   C28       1.0  0.11520  0.15282  0.31145  1.0000 0.0683638207
C   C29       1.0  0.61520  0.65282  0.18855  1.0000 0.0683638207
C   C30       1.0  0.11520  0.34718  0.31145  1.0000 0.0683638207
C   C31       1.0  0.38480  0.15282  0.81145  1.0000 0.0683638207
C   C32       1.0  0.88480  0.84718  0.68855  1.0000 0.0683638207
C   C33       1.0  0.33580  0.35880  0.76280  1.0000 -0.1472771128
C   C34       1.0  0.83580  0.64120  0.73720  1.0000 -0.1436574207
C   C35       1.0  0.66420  0.85880  0.23720  1.0000 -0.1472771128
C   C36       1.0  0.16420  0.14120  0.26280  1.0000 -0.1472771128
C   C37       1.0  0.66420  0.64120  0.23720  1.0000 -0.1472771128
C   C38       1.0  0.16420  0.35880  0.26280  1.0000 -0.1472771128
C   C39       1.0  0.33580  0.14120  0.76280  1.0000 -0.1472771128
C   C40       1.0  0.83580  0.85880  0.73720  1.0000 -0.1436574207
C   C41       1.0  0.44270  0.44088  0.76355  1.0000 -0.1039291644
C   C42       1.0  0.94270  0.55912  0.73645  1.0000 -0.1039291644
C   C43       1.0  0.55730  0.94088  0.23645  1.0000 -0.1039291644
C   C44       1.0  0.05730  0.05912  0.26355  1.0000 -0.1039291644
C   C45       1.0  0.55730  0.55912  0.23645  1.0000 -0.1039291644
C   C46       1.0  0.05730  0.44088  0.26355  1.0000 -0.1039291644
C   C47       1.0  0.44270  0.05912  0.76355  1.0000 -0.1039291644
C   C48       1.0  0.94270  0.94088  0.73645  1.0000 -0.1039291644
C   C49       1.0  0.99030  0.44098  0.90649  1.0000 0.5610657199
C   C50       1.0  0.49030  0.55902  0.59351  1.0000 0.5610657199
C   C51       1.0  0.00970  0.94098  0.09351  1.0000 0.5610657199
C   C52       1.0  0.50970  0.05902  0.40649  1.0000 0.5610657199
C   C53       1.0  0.00970  0.55902  0.09351  1.0000 0.5610657199
C   C54       1.0  0.50970  0.44098  0.40649  1.0000 0.5610657199
C   C55       1.0  0.99030  0.05902  0.90649  1.0000 0.5610657199
C   C56       1.0  0.49030  0.94098  0.59351  1.0000 0.5610657199
C   C57       1.0  0.10880  0.41401  0.92600  1.0000 0.0003790827
C   C58       1.0  0.60880  0.58599  0.57400  1.0000 -0.0001827283
C   C59       1.0  0.89120  0.91401  0.07400  1.0000 0.0003790827
C   C60       1.0  0.39120  0.08599  0.42600  1.0000 0.0003790827
C   C61       1.0  0.89120  0.58599  0.07400  1.0000 0.0003790827
C   C62       1.0  0.39120  0.41401  0.42600  1.0000 0.0003790827
C   C63       1.0  0.10880  0.08599  0.92600  1.0000 0.0003790827
C   C64       1.0  0.60880  0.91401  0.57400  1.0000 -0.0001827283
C   C65       1.0  0.16120  0.42775  0.97271  1.0000 -0.1039291644
C   C66       1.0  0.66120  0.57225  0.52729  1.0000 -0.1039291644
C   C67       1.0  0.83880  0.92775  0.02729  1.0000 -0.1039291644
C   C68       1.0  0.33880  0.07225  0.47271  1.0000 -0.1039291644
C   C69       1.0  0.83880  0.57225  0.02729  1.0000 -0.1039291644
C   C70       1.0  0.33880  0.42775  0.47271  1.0000 -0.1039291644
C   C71       1.0  0.16120  0.07225  0.97271  1.0000 -0.1039291644
C   C72       1.0  0.66120  0.92775  0.52729  1.0000 -0.1039291644
C   C73       1.0  0.16180  0.37405  0.89711  1.0000 -0.1472771128
C   C74       1.0  0.66180  0.62595  0.60289  1.0000 -0.1472771128
C   C75       1.0  0.83820  0.87405  0.10289  1.0000 -0.1472771128
C   C76       1.0  0.33820  0.12595  0.39711  1.0000 -0.1472771128
C   C77       1.0  0.83820  0.62595  0.10289  1.0000 -0.1472771128
C   C78       1.0  0.33820  0.37405  0.39711  1.0000 -0.1472771128
C   C79       1.0  0.16180  0.12595  0.89711  1.0000 -0.1472771128
C   C80       1.0  0.66180  0.87405  0.60289  1.0000 -0.1472771128
C   C81       1.0  0.31820  0.41314  0.04352  1.0000 0.6046043052
C   C82       1.0  0.81820  0.58686  0.45648  1.0000 0.6046043052
C   C83       1.0  0.68180  0.91314  0.95648  1.0000 0.6091202749
C   C84       1.0  0.18180  0.08686  0.54352  1.0000 0.6046043052
C   C85       1.0  0.68180  0.58686  0.95648  1.0000 0.6091202749
C   C86       1.0  0.18180  0.41314  0.54352  1.0000 0.6046043052
C   C87       1.0  0.31820  0.08686  0.04352  1.0000 0.6046043052
C   C88       1.0  0.81820  0.91314  0.45648  1.0000 0.6046043052
C   C89       1.0  0.26330  0.39905  0.99244  1.0000 -0.0168255121
C   C90       1.0  0.76330  0.60095  0.50756  1.0000 -0.0168255121
C   C91       1.0  0.73670  0.89905  0.00756  1.0000 -0.0168255121
C   C92       1.0  0.23670  0.10095  0.49244  1.0000 -0.0168255121
C   C93       1.0  0.73670  0.60095  0.00756  1.0000 -0.0168255121
C   C94       1.0  0.23670  0.39905  0.49244  1.0000 -0.0168255121
C   C95       1.0  0.26330  0.10095  0.99244  1.0000 -0.0168255121
C   C96       1.0  0.76330  0.89905  0.50756  1.0000 -0.0168255121
C   C97       1.0  0.31230  0.35795  0.96469  1.0000 -0.1472771128
C   C98       1.0  0.81230  0.64205  0.53531  1.0000 -0.1472771128
C   C99       1.0  0.68770  0.85795  0.03531  1.0000 -0.1472771128
C   C100      1.0  0.18770  0.14205  0.46469  1.0000 -0.1472771128
C   C101      1.0  0.68770  0.64205  0.03531  1.0000 -0.1472771128
C   C102      1.0  0.18770  0.35795  0.46469  1.0000 -0.1472771128
C   C103      1.0  0.31230  0.14205  0.96469  1.0000 -0.1472771128
C   C104      1.0  0.81230  0.85795  0.53531  1.0000 -0.1472771128
C   C105      1.0  0.26240  0.34447  0.91652  1.0000 0.0605901931
C   C106      1.0  0.76240  0.65553  0.58348  1.0000 0.0605901931
C   C107      1.0  0.73760  0.84447  0.08348  1.0000 0.0605901931
C   C108      1.0  0.23760  0.15553  0.41652  1.0000 0.0605901931
C   C109      1.0  0.73760  0.65553  0.08348  1.0000 0.0605901931
C   C110      1.0  0.23760  0.34447  0.41652  1.0000 0.0605901931
C   C111      1.0  0.26240  0.15553  0.91652  1.0000 0.0605901931
C   C112      1.0  0.76240  0.84447  0.58348  1.0000 0.0605901931
C   C113      1.0  0.30530  0.29717  0.88911  1.0000 0.031195939
C   C114      1.0  0.80530  0.70283  0.61089  1.0000 0.031195939
C   C115      1.0  0.69470  0.79717  0.11089  1.0000 0.031195939
C   C116      1.0  0.19470  0.20283  0.38911  1.0000 0.031195939
C   C117      1.0  0.69470  0.70283  0.11089  1.0000 0.031195939
C   C118      1.0  0.19470  0.29717  0.38911  1.0000 0.031195939
C   C119      1.0  0.30530  0.20283  0.88911  1.0000 0.031195939
C   C120      1.0  0.80530  0.79717  0.61089  1.0000 0.031195939
C   C121      1.0  0.35340  0.29736  0.83826  1.0000 0.031195939
C   C122      1.0  0.85340  0.70264  0.66174  1.0000 0.031195939
C   C123      1.0  0.64660  0.79736  0.16174  1.0000 0.031195939
C   C124      1.0  0.14660  0.20264  0.33826  1.0000 0.031195939
C   C125      1.0  0.64660  0.70264  0.16174  1.0000 0.031195939
C   C126      1.0  0.14660  0.29736  0.33826  1.0000 0.031195939
C   C127      1.0  0.35340  0.20264  0.83826  1.0000 0.031195939
C   C128      1.0  0.85340  0.79736  0.66174  1.0000 0.031195939
C   C129      1.0  0.37520  0.25000  0.81393  1.0000 -0.2019037069
C   C130      1.0  0.87520  0.75000  0.68607  1.0000 -0.2019037069
C   C131      1.0  0.62480  0.75000  0.18607  1.0000 -0.2019037069
C   C132      1.0  0.12480  0.25000  0.31393  1.0000 -0.2019037069
C   C133      1.0  0.28460  0.25000  0.91343  1.0000 -0.1883040951
C   C134      1.0  0.78460  0.75000  0.58657  1.0000 -0.1883040951
C   C135      1.0  0.71540  0.75000  0.08657  1.0000 -0.1883040951
C   C136      1.0  0.21540  0.25000  0.41343  1.0000 -0.1883040951
C   C137      1.0  0.36610  0.40536  0.73886  1.0000 -0.0112760681
C   C138      1.0  0.86610  0.59464  0.76114  1.0000 -0.0112760681
C   C139      1.0  0.63390  0.90536  0.26114  1.0000 -0.0112760681
C   C140      1.0  0.13390  0.09464  0.23886  1.0000 -0.0112760681
C   C141      1.0  0.63390  0.59464  0.26114  1.0000 -0.0112760681
C   C142      1.0  0.13390  0.40536  0.23886  1.0000 -0.0112760681
C   C143      1.0  0.36610  0.09464  0.73886  1.0000 -0.0112760681
C   C144      1.0  0.86610  0.90536  0.76114  1.0000 -0.0112760681
C   C145      1.0  0.31040  0.41983  0.68737  1.0000 0.6091202749
C   C146      1.0  0.81040  0.58017  0.81263  1.0000 0.6091202749
C   C147      1.0  0.68960  0.91983  0.31263  1.0000 0.6091202749
C   C148      1.0  0.18960  0.08017  0.18737  1.0000 0.6091202749
C   C149      1.0  0.68960  0.58017  0.31263  1.0000 0.6091202749
C   C150      1.0  0.18960  0.41983  0.18737  1.0000 0.6091202749
C   C151      1.0  0.31040  0.08017  0.68737  1.0000 0.6091202749
C   C152      1.0  0.81040  0.91983  0.81263  1.0000 0.6091202749
O   O1        1.0  0.95090  0.43151  0.86278  1.0000 -0.5301022144
O   O2        1.0  0.45090  0.56849  0.63722  1.0000 -0.5301022144
O   O3        1.0  0.04910  0.93151  0.13722  1.0000 -0.5301022144
O   O4        1.0  0.54910  0.06849  0.36278  1.0000 -0.5301022144
O   O5        1.0  0.04910  0.56849  0.13722  1.0000 -0.5301022144
O   O6        1.0  0.54910  0.43151  0.36278  1.0000 -0.5301022144
O   O7        1.0  0.95090  0.06849  0.86278  1.0000 -0.5301022144
O   O8        1.0  0.45090  0.93151  0.63722  1.0000 -0.5301022144
O   O9        1.0  0.93600  0.47297  0.93601  1.0000 -0.5214576223
O   O10       1.0  0.43600  0.52703  0.56399  1.0000 -0.5214576223
O   O11       1.0  0.06400  0.97297  0.06399  1.0000 -0.5214576223
O   O12       1.0  0.56400  0.02703  0.43601  1.0000 -0.5214576223
O   O13       1.0  0.06400  0.52703  0.06399  1.0000 -0.5214576223
O   O14       1.0  0.56400  0.47297  0.43601  1.0000 -0.5214576223
O   O15       1.0  0.93600  0.02703  0.93601  1.0000 -0.5214576223
O   O16       1.0  0.43600  0.97297  0.56399  1.0000 -0.5214576223
O   O17       1.0  0.65760  0.45007  0.87015  1.0000 -0.5214576223
O   O18       1.0  0.15760  0.54993  0.62985  1.0000 -0.5214576223
O   O19       1.0  0.34240  0.95007  0.12985  1.0000 -0.5214576223
O   O20       1.0  0.84240  0.04993  0.37015  1.0000 -0.5214576223
O   O21       1.0  0.34240  0.54993  0.12985  1.0000 -0.5214576223
O   O22       1.0  0.84240  0.45007  0.37015  1.0000 -0.5214576223
O   O23       1.0  0.65760  0.04993  0.87015  1.0000 -0.5214576223
O   O24       1.0  0.15760  0.95007  0.62985  1.0000 -0.5214576223
O   O25       1.0  0.57370  0.51454  0.82296  1.0000 -0.5893234597
O   O26       1.0  0.07370  0.48546  0.67704  1.0000 -0.5893234597
O   O27       1.0  0.42630  0.01454  0.17704  1.0000 -0.5893234597
O   O28       1.0  0.92630  0.98546  0.32296  1.0000 -0.5893234597
O   O29       1.0  0.42630  0.48546  0.17704  1.0000 -0.5893234597
O   O30       1.0  0.92630  0.51454  0.32296  1.0000 -0.5893234597
O   O31       1.0  0.57370  0.98546  0.82296  1.0000 -0.5893234597
O   O32       1.0  0.07370  0.01454  0.67704  1.0000 -0.5893234597
O   O33       1.0  0.29410  0.45648  0.06347  1.0000 -0.5698690773
O   O34       1.0  0.79410  0.54352  0.43653  1.0000 -0.5698690773
O   O35       1.0  0.70590  0.95648  0.93653  1.0000 -0.5698690773
O   O36       1.0  0.20590  0.04352  0.56347  1.0000 -0.5698690773
O   O37       1.0  0.70590  0.54352  0.93653  1.0000 -0.5698690773
O   O38       1.0  0.20590  0.45648  0.56347  1.0000 -0.5698690773
O   O39       1.0  0.29410  0.04352  0.06347  1.0000 -0.5698690773
O   O40       1.0  0.79410  0.95648  0.43653  1.0000 -0.5698690773
O   O41       1.0  0.39270  0.38190  0.06551  1.0000 -0.5372830541
O   O42       1.0  0.89270  0.61810  0.43449  1.0000 -0.5372830541
O   O43       1.0  0.60730  0.88190  0.93449  1.0000 -0.5372830541
O   O44       1.0  0.10730  0.11810  0.56551  1.0000 -0.5372830541
O   O45       1.0  0.60730  0.61810  0.93449  1.0000 -0.5372830541
O   O46       1.0  0.10730  0.38190  0.56551  1.0000 -0.5372830541
O   O47       1.0  0.39270  0.11810  0.06551  1.0000 -0.5372830541
O   O48       1.0  0.89270  0.88190  0.43449  1.0000 -0.5372830541
O   O49       1.0  0.36010  0.45747  0.66474  1.0000 -0.5301022144
O   O50       1.0  0.86010  0.54253  0.83526  1.0000 -0.5301022144
O   O51       1.0  0.63990  0.95747  0.33526  1.0000 -0.5301022144
O   O52       1.0  0.13990  0.04253  0.16474  1.0000 -0.5301022144
O   O53       1.0  0.63990  0.54253  0.33526  1.0000 -0.5301022144
O   O54       1.0  0.13990  0.45747  0.16474  1.0000 -0.5301022144
O   O55       1.0  0.36010  0.04253  0.66474  1.0000 -0.5301022144
O   O56       1.0  0.86010  0.95747  0.83526  1.0000 -0.5301022144
O   O57       1.0  0.21760  0.39293  0.67104  1.0000 -0.5559801446
O   O58       1.0  0.71760  0.60707  0.82896  1.0000 -0.5559801446
O   O59       1.0  0.78240  0.89293  0.32896  1.0000 -0.5559801446
O   O60       1.0  0.28240  0.10707  0.17104  1.0000 -0.5559801446
O   O61       1.0  0.78240  0.60707  0.32896  1.0000 -0.5559801446
O   O62       1.0  0.28240  0.39293  0.17104  1.0000 -0.5559801446
O   O63       1.0  0.21760  0.10707  0.67104  1.0000 -0.5559801446
O   O64       1.0  0.71760  0.89293  0.82896  1.0000 -0.5559801446
