# DDEC6 charges by PACMAN v1.1 (https://github.com/mtap-research/PACMAN-charge/)
data_2011[Zn][dia]3[ASR]12
_chemical_formula_sum              "Zn2 H36 C44 N8 O8"
_cell_length_a       11.7973
_cell_length_b       11.7973
_cell_length_c       14.0617
_cell_angle_alpha    67.0759
_cell_angle_beta     112.924
_cell_angle_gamma    121.393

_symmetry_space_group_name_H-M    "P 1"
_symmetry_Int_Tables_number       1

loop_
  _symmetry_equiv_pos_as_xyz
  'x, y, z'

loop_
  _atom_site_type_symbol
  _atom_site_label
  _atom_site_symmetry_multiplicity
  _atom_site_fract_x
  _atom_site_fract_y
  _atom_site_fract_z
  _atom_site_occupancy
  _atom_site_charge
Zn  Zn1       1.0  0.98825  0.98825  0.75000  1.0000 0.7694979481
Zn  Zn2       1.0  0.01175  0.01175  0.25000  1.0000 0.7694979481
H   H1        1.0  0.21640  0.05500  0.96540  1.0000 0.1212577618
H   H2        1.0  0.05500  0.21640  0.53460  1.0000 0.1212577618
H   H3        1.0  0.78360  0.94500  0.03460  1.0000 0.1212577618
H   H4        1.0  0.94500  0.78360  0.46540  1.0000 0.1212577618
H   H5        1.0  0.94140  0.19720  0.80420  1.0000 0.129649311
H   H6        1.0  0.19720  0.94140  0.69580  1.0000 0.129649311
H   H7        1.0  0.05860  0.80280  0.19580  1.0000 0.129649311
H   H8        1.0  0.80280  0.05860  0.30420  1.0000 0.129649311
H   H9        1.0  0.07740  0.30100  0.95640  1.0000 0.129649311
H   H10       1.0  0.30100  0.07740  0.54360  1.0000 0.129649311
H   H11       1.0  0.92260  0.69900  0.04360  1.0000 0.129649311
H   H12       1.0  0.69900  0.92260  0.45640  1.0000 0.129649311
H   H13       1.0  0.26440  0.24080  0.13540  1.0000 0.1355017036
H   H14       1.0  0.24080  0.26440  0.36460  1.0000 0.1355017036
H   H15       1.0  0.73560  0.75920  0.86460  1.0000 0.1355017036
H   H16       1.0  0.75920  0.73560  0.63540  1.0000 0.1355017036
H   H17       1.0  0.33560  0.16860  0.12150  1.0000 0.129649311
H   H18       1.0  0.16860  0.33560  0.37850  1.0000 0.129649311
H   H19       1.0  0.66440  0.83140  0.87850  1.0000 0.129649311
H   H20       1.0  0.83140  0.66440  0.62150  1.0000 0.129649311
H   H21       1.0  0.50250  0.30190  0.00700  1.0000 0.1212577618
H   H22       1.0  0.30190  0.50250  0.49300  1.0000 0.1212577618
H   H23       1.0  0.49750  0.69810  0.99300  1.0000 0.1212577618
H   H24       1.0  0.69810  0.49750  0.50700  1.0000 0.1212577618
H   H25       1.0  0.34210  0.48730  0.06620  1.0000 0.1212577618
H   H26       1.0  0.48730  0.34210  0.43380  1.0000 0.1212577618
H   H27       1.0  0.65790  0.51270  0.93380  1.0000 0.1212577618
H   H28       1.0  0.51270  0.65790  0.56620  1.0000 0.1212577618
H   H29       1.0  0.83870  0.54270  0.85070  1.0000 0.1137453638
H   H30       1.0  0.54270  0.83870  0.64930  1.0000 0.1137453638
H   H31       1.0  0.16130  0.45730  0.14930  1.0000 0.1137453638
H   H32       1.0  0.45730  0.16130  0.35070  1.0000 0.1137453638
H   H33       1.0  0.20780  0.67820  0.04980  1.0000 0.1212577618
H   H34       1.0  0.67820  0.20780  0.45020  1.0000 0.1212577618
H   H35       1.0  0.79220  0.32180  0.95020  1.0000 0.1212577618
H   H36       1.0  0.32180  0.79220  0.54980  1.0000 0.1212577618
C   C1        1.0  0.16449  0.10275  0.94375  1.0000 0.0959728829
C   C2        1.0  0.10275  0.16449  0.55625  1.0000 0.0959728829
C   C3        1.0  0.83551  0.89725  0.05625  1.0000 0.0959728829
C   C4        1.0  0.89725  0.83551  0.44375  1.0000 0.0959728829
C   C5        1.0  0.01380  0.18140  0.85552  1.0000 -0.0367942896
C   C6        1.0  0.18140  0.01380  0.64448  1.0000 -0.0367942896
C   C7        1.0  0.98620  0.81860  0.14448  1.0000 -0.0367942896
C   C8        1.0  0.81860  0.98620  0.35552  1.0000 -0.0367942896
C   C9        1.0  0.08822  0.23898  0.93950  1.0000 -0.0996501982
C   C10       1.0  0.23898  0.08822  0.56050  1.0000 -0.0996501982
C   C11       1.0  0.91178  0.76102  0.06050  1.0000 -0.0996501982
C   C12       1.0  0.76102  0.91178  0.43950  1.0000 -0.0996501982
C   C13       1.0  0.29714  0.23410  0.08520  1.0000 -0.1722072937
C   C14       1.0  0.23410  0.29714  0.41480  1.0000 -0.1722072937
C   C15       1.0  0.70286  0.76590  0.91480  1.0000 -0.1722072937
C   C16       1.0  0.76590  0.70286  0.58520  1.0000 -0.1722072937
C   C17       1.0  0.40596  0.37266  0.04475  1.0000 0.0898198713
C   C18       1.0  0.37266  0.40596  0.45525  1.0000 0.0898198713
C   C19       1.0  0.59404  0.62734  0.95525  1.0000 0.0898198713
C   C20       1.0  0.62734  0.59404  0.54475  1.0000 0.0898198713
C   C21       1.0  0.50107  0.38113  0.00450  1.0000 -0.1443996258
C   C22       1.0  0.38113  0.50107  0.49550  1.0000 -0.1443996258
C   C23       1.0  0.49893  0.61887  0.99550  1.0000 -0.1443996258
C   C24       1.0  0.61887  0.49893  0.50450  1.0000 -0.1443996258
C   C25       1.0  0.40578  0.49202  0.03960  1.0000 -0.1451647707
C   C26       1.0  0.49202  0.40578  0.46040  1.0000 -0.1451647707
C   C27       1.0  0.59422  0.50798  0.96040  1.0000 -0.1451647707
C   C28       1.0  0.50798  0.59422  0.53960  1.0000 -0.1451647707
C   C29       1.0  0.05701  0.77859  0.87899  1.0000 0.5357151948
C   C30       1.0  0.77859  0.05701  0.62101  1.0000 0.5357151948
C   C31       1.0  0.94299  0.22141  0.12101  1.0000 0.5357151948
C   C32       1.0  0.22141  0.94299  0.37899  1.0000 0.5357151948
C   C33       1.0  0.02846  0.63400  0.94018  1.0000 -0.0279371959
C   C34       1.0  0.63400  0.02846  0.55982  1.0000 -0.0279371959
C   C35       1.0  0.97154  0.36600  0.05982  1.0000 -0.0279371959
C   C36       1.0  0.36600  0.97154  0.44018  1.0000 -0.0279371959
C   C37       1.0  0.90360  0.52570  0.91077  1.0000 -0.1193036191
C   C38       1.0  0.52570  0.90360  0.58923  1.0000 -0.1193036191
C   C39       1.0  0.09640  0.47430  0.08923  1.0000 -0.1193036191
C   C40       1.0  0.47430  0.09640  0.41077  1.0000 -0.1193036191
C   C41       1.0  0.12419  0.60677  0.02966  1.0000 -0.1193036191
C   C42       1.0  0.60677  0.12419  0.47034  1.0000 -0.1193036191
C   C43       1.0  0.87581  0.39323  0.97034  1.0000 -0.1193036191
C   C44       1.0  0.39323  0.87581  0.52966  1.0000 -0.1193036191
N   N1        1.0  0.06142  0.09550  0.85749  1.0000 -0.2969877549
N   N2        1.0  0.09550  0.06142  0.64251  1.0000 -0.2969877549
N   N3        1.0  0.93858  0.90450  0.14251  1.0000 -0.2969877549
N   N4        1.0  0.90450  0.93858  0.35749  1.0000 -0.2969877549
N   N5        1.0  0.18293  0.18789  0.99471  1.0000 0.0480763673
N   N6        1.0  0.18789  0.18293  0.50529  1.0000 0.0480763673
N   N7        1.0  0.81707  0.81211  0.00529  1.0000 0.0480763673
N   N8        1.0  0.81211  0.81707  0.49471  1.0000 0.0480763673
O   O1        1.0  0.95255  0.79585  0.81389  1.0000 -0.5579054855
O   O2        1.0  0.79585  0.95255  0.68611  1.0000 -0.5579054855
O   O3        1.0  0.04745  0.20415  0.18611  1.0000 -0.5579054855
O   O4        1.0  0.20415  0.04745  0.31389  1.0000 -0.5579054855
O   O5        1.0  0.17436  0.87108  0.89464  1.0000 -0.5579054855
O   O6        1.0  0.87108  0.17436  0.60536  1.0000 -0.5579054855
O   O7        1.0  0.82564  0.12892  0.10536  1.0000 -0.5579054855
O   O8        1.0  0.12892  0.82564  0.39464  1.0000 -0.5579054855
