# DDEC6 charges by PACMAN v1.1 (https://github.com/mtap-research/PACMAN-charge/)
data_2011[Cu][scu]3[ASR]1
_chemical_formula_sum              "Cu8 H44 C84 O40"
_cell_length_a       20.4404
_cell_length_b       19.8664
_cell_length_c       18.349
_cell_angle_alpha    64.5275
_cell_angle_beta     61.3355
_cell_angle_gamma    54.137

_symmetry_space_group_name_H-M    "P 1"
_symmetry_Int_Tables_number       1

loop_
  _symmetry_equiv_pos_as_xyz
  'x, y, z'

loop_
  _atom_site_type_symbol
  _atom_site_label
  _atom_site_symmetry_multiplicity
  _atom_site_fract_x
  _atom_site_fract_y
  _atom_site_fract_z
  _atom_site_occupancy
  _atom_site_charge
Cu  Cu1       1.0  0.56524  0.99698  0.00302  1.0000 0.8583881923
Cu  Cu2       1.0  0.99698  0.56524  0.43476  1.0000 0.8583881923
Cu  Cu3       1.0  0.43476  0.00302  0.99698  1.0000 0.8583881923
Cu  Cu4       1.0  0.00302  0.43476  0.56524  1.0000 0.8583881923
Cu  Cu5       1.0  0.00893  0.43163  0.99107  1.0000 0.8666106381
Cu  Cu6       1.0  0.43163  0.00893  0.56837  1.0000 0.8666106381
Cu  Cu7       1.0  0.56837  0.99107  0.43163  1.0000 0.8666106381
Cu  Cu8       1.0  0.99107  0.56837  0.00893  1.0000 0.8666106381
H   H1        1.0  0.24980  0.47980  0.98240  1.0000 0.1479534686
H   H2        1.0  0.47980  0.24980  0.28800  1.0000 0.1479534686
H   H3        1.0  0.28800  0.98240  0.47980  1.0000 0.1479534686
H   H4        1.0  0.98240  0.28800  0.24980  1.0000 0.1479534686
H   H5        1.0  0.75020  0.52020  0.01760  1.0000 0.1479534686
H   H6        1.0  0.52020  0.75020  0.71200  1.0000 0.1479534686
H   H7        1.0  0.71200  0.01760  0.52020  1.0000 0.1479534686
H   H8        1.0  0.01760  0.71200  0.75020  1.0000 0.1479534686
H   H9        1.0  0.46100  0.26200  0.99080  1.0000 0.1208708249
H   H10       1.0  0.26200  0.46100  0.28620  1.0000 0.1208708249
H   H11       1.0  0.28620  0.99080  0.26200  1.0000 0.1208708249
H   H12       1.0  0.99080  0.28620  0.46100  1.0000 0.1208708249
H   H13       1.0  0.53900  0.73800  0.00920  1.0000 0.1208708249
H   H14       1.0  0.73800  0.53900  0.71380  1.0000 0.1208708249
H   H15       1.0  0.71380  0.00920  0.73800  1.0000 0.1208708249
H   H16       1.0  0.00920  0.71380  0.53900  1.0000 0.1208708249
H   H17       1.0  0.26710  0.26470  0.97930  1.0000 0.1479534686
H   H18       1.0  0.26470  0.26710  0.48890  1.0000 0.1479534686
H   H19       1.0  0.48890  0.97930  0.26470  1.0000 0.1479534686
H   H20       1.0  0.97930  0.48890  0.26710  1.0000 0.1479534686
H   H21       1.0  0.73290  0.73530  0.02070  1.0000 0.1479534686
H   H22       1.0  0.73530  0.73290  0.51110  1.0000 0.1479534686
H   H23       1.0  0.51110  0.02070  0.73530  1.0000 0.1479534686
H   H24       1.0  0.02070  0.51110  0.73290  1.0000 0.1479534686
H   H25       1.0  0.51160  0.34160  0.96380  1.0000 0.110014673
H   H26       1.0  0.34160  0.51160  0.18300  1.0000 0.110014673
H   H27       1.0  0.18300  0.96380  0.34160  1.0000 0.110014673
H   H28       1.0  0.96380  0.18300  0.51160  1.0000 0.110014673
H   H29       1.0  0.48840  0.65840  0.03620  1.0000 0.110014673
H   H30       1.0  0.65840  0.48840  0.81700  1.0000 0.110014673
H   H31       1.0  0.81700  0.03620  0.65840  1.0000 0.110014673
H   H32       1.0  0.03620  0.81700  0.48840  1.0000 0.110014673
H   H33       1.0  0.46100  0.33700  0.06380  1.0000 0.1208708249
H   H34       1.0  0.33700  0.46100  0.13820  1.0000 0.110014673
H   H35       1.0  0.13820  0.06380  0.33700  1.0000 0.110014673
H   H36       1.0  0.06380  0.13820  0.46100  1.0000 0.110014673
H   H37       1.0  0.53900  0.66300  0.93620  1.0000 0.1208708249
H   H38       1.0  0.66300  0.53900  0.86180  1.0000 0.1208708249
H   H39       1.0  0.86180  0.93620  0.66300  1.0000 0.1208708249
H   H40       1.0  0.93620  0.86180  0.53900  1.0000 0.1208708249
H   H41       1.0  0.56380  0.43620  0.88660  1.0000 0.1208708249
H   H42       1.0  0.43620  0.56380  0.11340  1.0000 0.1208708249
H   H43       1.0  0.11340  0.88660  0.43620  1.0000 0.1208708249
H   H44       1.0  0.88660  0.11340  0.56380  1.0000 0.1208708249
C   C1        1.0  0.15130  0.42910  0.98310  1.0000 0.5744356325
C   C2        1.0  0.42910  0.15130  0.43650  1.0000 0.5744356325
C   C3        1.0  0.43650  0.98310  0.42910  1.0000 0.5744356325
C   C4        1.0  0.98310  0.43650  0.15130  1.0000 0.5744356325
C   C5        1.0  0.84870  0.57090  0.01690  1.0000 0.5744356325
C   C6        1.0  0.57090  0.84870  0.56350  1.0000 0.5744356325
C   C7        1.0  0.56350  0.01690  0.57090  1.0000 0.577851693
C   C8        1.0  0.01690  0.56350  0.84870  1.0000 0.5744356325
C   C9        1.0  0.24278  0.37918  0.98022  1.0000 0.0191316832
C   C10       1.0  0.37918  0.24278  0.39782  1.0000 0.0191316832
C   C11       1.0  0.39782  0.98022  0.37918  1.0000 0.0191316832
C   C12       1.0  0.98022  0.39782  0.24278  1.0000 0.0191316832
C   C13       1.0  0.75722  0.62082  0.01978  1.0000 0.0191316832
C   C14       1.0  0.62082  0.75722  0.60218  1.0000 0.0191316832
C   C15       1.0  0.60218  0.01978  0.62082  1.0000 0.0191316832
C   C16       1.0  0.01978  0.60218  0.75722  1.0000 0.0191316832
C   C17       1.0  0.28080  0.42060  0.98340  1.0000 -0.2394552498
C   C18       1.0  0.42060  0.28080  0.31520  1.0000 -0.2394552498
C   C19       1.0  0.31520  0.98340  0.42060  1.0000 -0.2394552498
C   C20       1.0  0.98340  0.31520  0.28080  1.0000 -0.2394552498
C   C21       1.0  0.71920  0.57940  0.01660  1.0000 -0.2394552498
C   C22       1.0  0.57940  0.71920  0.68480  1.0000 -0.2394552498
C   C23       1.0  0.68480  0.01660  0.57940  1.0000 -0.2394552498
C   C24       1.0  0.01660  0.68480  0.71920  1.0000 -0.2394552498
C   C25       1.0  0.36094  0.37354  0.98766  1.0000 0.2161596634
C   C26       1.0  0.37354  0.36094  0.27786  1.0000 0.2161596634
C   C27       1.0  0.27786  0.98766  0.37354  1.0000 0.2161596634
C   C28       1.0  0.98766  0.27786  0.36094  1.0000 0.2161596634
C   C29       1.0  0.63906  0.62646  0.01234  1.0000 0.2161596634
C   C30       1.0  0.62646  0.63906  0.72214  1.0000 0.2161596634
C   C31       1.0  0.72214  0.01234  0.62646  1.0000 0.2161596634
C   C32       1.0  0.01234  0.72214  0.63906  1.0000 0.2161596634
C   C33       1.0  0.40491  0.29271  0.98789  1.0000 -0.2296938344
C   C34       1.0  0.29271  0.40491  0.31449  1.0000 -0.2296938344
C   C35       1.0  0.31449  0.98789  0.29271  1.0000 -0.2296938344
C   C36       1.0  0.98789  0.31449  0.40491  1.0000 -0.2296938344
C   C37       1.0  0.59509  0.70729  0.01211  1.0000 -0.2296938344
C   C38       1.0  0.70729  0.59509  0.68551  1.0000 -0.2296938344
C   C39       1.0  0.68551  0.01211  0.70729  1.0000 -0.2296938344
C   C40       1.0  0.01211  0.68551  0.59509  1.0000 -0.2296938344
C   C41       1.0  0.37168  0.24928  0.98392  1.0000 0.007084428
C   C42       1.0  0.24928  0.37168  0.39512  1.0000 0.007084428
C   C43       1.0  0.39512  0.98392  0.24928  1.0000 0.007084428
C   C44       1.0  0.98392  0.39512  0.37168  1.0000 0.007084428
C   C45       1.0  0.62832  0.75072  0.01608  1.0000 0.007084428
C   C46       1.0  0.75072  0.62832  0.60488  1.0000 0.007084428
C   C47       1.0  0.60488  0.01608  0.75072  1.0000 0.007084428
C   C48       1.0  0.01608  0.60488  0.62832  1.0000 0.007084428
C   C49       1.0  0.29065  0.29325  0.98095  1.0000 -0.1385954476
C   C50       1.0  0.29325  0.29065  0.43515  1.0000 -0.1385954476
C   C51       1.0  0.43515  0.98095  0.29325  1.0000 -0.1385954476
C   C52       1.0  0.98095  0.43515  0.29065  1.0000 -0.1385954476
C   C53       1.0  0.70935  0.70675  0.01905  1.0000 -0.1385954476
C   C54       1.0  0.70675  0.70935  0.56485  1.0000 -0.1385954476
C   C55       1.0  0.56485  0.01905  0.70675  1.0000 -0.1385954476
C   C56       1.0  0.01905  0.56485  0.70935  1.0000 -0.1385954476
C   C57       1.0  0.46510  0.37550  0.00730  1.0000 -0.0600063752
C   C58       1.0  0.37550  0.46510  0.15210  1.0000 -0.0600063752
C   C59       1.0  0.15210  0.00730  0.37550  1.0000 -0.0600063752
C   C60       1.0  0.00730  0.15210  0.46510  1.0000 -0.0600063752
C   C61       1.0  0.53490  0.62450  0.99270  1.0000 -0.0600063752
C   C62       1.0  0.62450  0.53490  0.84790  1.0000 -0.0600063752
C   C63       1.0  0.84790  0.99270  0.62450  1.0000 -0.0600063752
C   C64       1.0  0.99270  0.84790  0.53490  1.0000 -0.0600063752
C   C65       1.0  0.48048  0.44148  0.00492  1.0000 0.0191316832
C   C66       1.0  0.44148  0.48048  0.07312  1.0000 0.0191316832
C   C67       1.0  0.07312  0.00492  0.44148  1.0000 0.0191316832
C   C68       1.0  0.00492  0.07312  0.48048  1.0000 0.0191316832
C   C69       1.0  0.51952  0.55852  0.99508  1.0000 0.0191316832
C   C70       1.0  0.55852  0.51952  0.92688  1.0000 0.0191316832
C   C71       1.0  0.92688  0.99508  0.55852  1.0000 0.0191316832
C   C72       1.0  0.99508  0.92688  0.51952  1.0000 0.0191316832
C   C73       1.0  0.53780  0.46220  0.93320  1.0000 -0.1804642361
C   C74       1.0  0.46220  0.53780  0.06680  1.0000 -0.1804642361
C   C75       1.0  0.06680  0.93320  0.46220  1.0000 -0.1804642361
C   C76       1.0  0.93320  0.06680  0.53780  1.0000 -0.1804642361
C   C77       1.0  0.42260  0.15580  0.98720  1.0000 0.577851693
C   C78       1.0  0.15580  0.42260  0.43440  1.0000 0.577851693
C   C79       1.0  0.43440  0.98720  0.15580  1.0000 0.577851693
C   C80       1.0  0.98720  0.43440  0.42260  1.0000 0.577851693
C   C81       1.0  0.57740  0.84420  0.01280  1.0000 0.577851693
C   C82       1.0  0.84420  0.57740  0.56560  1.0000 0.577851693
C   C83       1.0  0.56560  0.01280  0.84420  1.0000 0.577851693
C   C84       1.0  0.01280  0.56560  0.57740  1.0000 0.577851693
O   O1        1.0  0.12590  0.38782  0.97468  1.0000 -0.532542885
O   O2        1.0  0.38782  0.12590  0.51160  1.0000 -0.532542885
O   O3        1.0  0.51160  0.97468  0.38782  1.0000 -0.532542885
O   O4        1.0  0.97468  0.51160  0.12590  1.0000 -0.532542885
O   O5        1.0  0.87410  0.61218  0.02532  1.0000 -0.532542885
O   O6        1.0  0.61218  0.87410  0.48840  1.0000 -0.532542885
O   O7        1.0  0.48840  0.02532  0.61218  1.0000 -0.532542885
O   O8        1.0  0.02532  0.48840  0.87410  1.0000 -0.532542885
O   O9        1.0  0.49553  0.11865  0.98995  1.0000 -0.499332654
O   O10       1.0  0.11865  0.49553  0.39587  1.0000 -0.499332654
O   O11       1.0  0.39587  0.98995  0.11865  1.0000 -0.499332654
O   O12       1.0  0.98995  0.39587  0.49553  1.0000 -0.499332654
O   O13       1.0  0.50447  0.88135  0.01005  1.0000 -0.499332654
O   O14       1.0  0.88135  0.50447  0.60413  1.0000 -0.499332654
O   O15       1.0  0.60413  0.01005  0.88135  1.0000 -0.499332654
O   O16       1.0  0.01005  0.60413  0.50447  1.0000 -0.499332654
O   O17       1.0  0.11124  0.50428  0.98880  1.0000 -0.499332654
O   O18       1.0  0.50428  0.11124  0.39568  1.0000 -0.499332654
O   O19       1.0  0.39568  0.98880  0.50428  1.0000 -0.499332654
O   O20       1.0  0.98880  0.39568  0.11124  1.0000 -0.499332654
O   O21       1.0  0.88876  0.49572  0.01120  1.0000 -0.499332654
O   O22       1.0  0.49572  0.88876  0.60432  1.0000 -0.499332654
O   O23       1.0  0.60432  0.01120  0.49572  1.0000 -0.499332654
O   O24       1.0  0.01120  0.60432  0.88876  1.0000 -0.499332654
O   O25       1.0  0.38483  0.12441  0.98519  1.0000 -0.5153613321
O   O26       1.0  0.12441  0.38483  0.50557  1.0000 -0.5153613321
O   O27       1.0  0.50557  0.98519  0.12441  1.0000 -0.5153613321
O   O28       1.0  0.98519  0.50557  0.38483  1.0000 -0.5153613321
O   O29       1.0  0.61517  0.87559  0.01481  1.0000 -0.5153613321
O   O30       1.0  0.87559  0.61517  0.49443  1.0000 -0.5153613321
O   O31       1.0  0.49443  0.01481  0.87559  1.0000 -0.5153613321
O   O32       1.0  0.01481  0.49443  0.61517  1.0000 -0.5153613321
O   O33       1.0  0.38956  0.42052  0.99038  1.0000 -0.1747736167
O   O34       1.0  0.42052  0.38956  0.19954  1.0000 -0.1747736167
O   O35       1.0  0.19954  0.99038  0.42052  1.0000 -0.1747736167
O   O36       1.0  0.99038  0.19954  0.38956  1.0000 -0.1747736167
O   O37       1.0  0.61044  0.57948  0.00962  1.0000 -0.1747736167
O   O38       1.0  0.57948  0.61044  0.80046  1.0000 -0.1804642361
O   O39       1.0  0.80046  0.00962  0.57948  1.0000 -0.1747736167
O   O40       1.0  0.00962  0.80046  0.61044  1.0000 -0.1804642361
