# DDEC6 charges by PACMAN v1.1 (https://github.com/mtap-research/PACMAN-charge/)
data_2011[Cu][dia]3[ASR]2
_chemical_formula_sum              "Cu2 H48 C32 N24"
_cell_length_a       10.6948
_cell_length_b       10.6948
_cell_length_c       13.9415
_cell_angle_alpha    106.204
_cell_angle_beta     106.204
_cell_angle_gamma    105.809

_symmetry_space_group_name_H-M    "P 1"
_symmetry_Int_Tables_number       1

loop_
  _symmetry_equiv_pos_as_xyz
  'x, y, z'

loop_
  _atom_site_type_symbol
  _atom_site_label
  _atom_site_symmetry_multiplicity
  _atom_site_fract_x
  _atom_site_fract_y
  _atom_site_fract_z
  _atom_site_occupancy
  _atom_site_charge
Cu  Cu1       1.0  0.12500  0.37500  0.75000  1.0000 0.2985196345
Cu  Cu2       1.0  0.87500  0.62500  0.25000  1.0000 0.2985196345
H   H1        1.0  0.47551  0.50833  0.83958  1.0000 0.0891584967
H   H2        1.0  0.52449  0.49167  0.16042  1.0000 0.0891584967
H   H3        1.0  0.86407  0.33125  0.83958  1.0000 0.0891584967
H   H4        1.0  0.13593  0.66875  0.16042  1.0000 0.0891584967
H   H5        1.0  0.99167  0.02449  0.66042  1.0000 0.0891584967
H   H6        1.0  0.00833  0.97551  0.33958  1.0000 0.0891584967
H   H7        1.0  0.16875  0.63593  0.66042  1.0000 0.0891584967
H   H8        1.0  0.83125  0.36407  0.33958  1.0000 0.0891584967
H   H9        1.0  0.19779  0.66679  0.95082  1.0000 0.1015070098
H   H10       1.0  0.80221  0.33321  0.04918  1.0000 0.1015070098
H   H11       1.0  0.25303  0.28403  0.95082  1.0000 0.1015070098
H   H12       1.0  0.74697  0.71597  0.04918  1.0000 0.1015070098
H   H13       1.0  0.83321  0.30221  0.54918  1.0000 0.1015070098
H   H14       1.0  0.16679  0.69779  0.45082  1.0000 0.1015070098
H   H15       1.0  0.21597  0.24697  0.54918  1.0000 0.1015070098
H   H16       1.0  0.78403  0.75303  0.45082  1.0000 0.1015070098
H   H17       1.0  0.57952  0.91441  0.13875  1.0000 0.0842944019
H   H18       1.0  0.42048  0.08559  0.86125  1.0000 0.0842944019
H   H19       1.0  0.05923  0.22433  0.13875  1.0000 0.0842944019
H   H20       1.0  0.94077  0.77567  0.86125  1.0000 0.0842944019
H   H21       1.0  0.58559  0.92048  0.36125  1.0000 0.0842944019
H   H22       1.0  0.41441  0.07952  0.63875  1.0000 0.0842944019
H   H23       1.0  0.27567  0.44077  0.36125  1.0000 0.0842944019
H   H24       1.0  0.72433  0.55923  0.63875  1.0000 0.0842944019
H   H25       1.0  0.40149  0.87712  0.13297  1.0000 0.0718860261
H   H26       1.0  0.59851  0.12288  0.86703  1.0000 0.0718860261
H   H27       1.0  0.23148  0.25585  0.13297  1.0000 0.0718860261
H   H28       1.0  0.76852  0.74415  0.86703  1.0000 0.0718860261
H   H29       1.0  0.62288  0.09851  0.36703  1.0000 0.0718860261
H   H30       1.0  0.37712  0.90149  0.63297  1.0000 0.0718860261
H   H31       1.0  0.24415  0.26852  0.36703  1.0000 0.0718860261
H   H32       1.0  0.75585  0.73148  0.63297  1.0000 0.0718860261
H   H33       1.0  0.48522  0.09624  0.10033  1.0000 0.0891584967
H   H34       1.0  0.51478  0.90376  0.89967  1.0000 0.0891584967
H   H35       1.0  0.11511  0.00410  0.10033  1.0000 0.0891584967
H   H36       1.0  0.88489  0.99590  0.89967  1.0000 0.0891584967
H   H37       1.0  0.40376  0.01478  0.39967  1.0000 0.0891584967
H   H38       1.0  0.59624  0.98522  0.60033  1.0000 0.0891584967
H   H39       1.0  0.49590  0.38489  0.39967  1.0000 0.0891584967
H   H40       1.0  0.50410  0.61511  0.60033  1.0000 0.0891584967
H   H41       1.0  0.34384  0.96369  0.98373  1.0000 0.0891584967
H   H42       1.0  0.65616  0.03631  0.01627  1.0000 0.0891584967
H   H43       1.0  0.13988  0.02004  0.98373  1.0000 0.0891584967
H   H44       1.0  0.86012  0.97996  0.01627  1.0000 0.0891584967
H   H45       1.0  0.53631  0.15616  0.51627  1.0000 0.0891584967
H   H46       1.0  0.46369  0.84384  0.48373  1.0000 0.0891584967
H   H47       1.0  0.47996  0.36012  0.51627  1.0000 0.0891584967
H   H48       1.0  0.52004  0.63988  0.48373  1.0000 0.0891584967
C   C1        1.0  0.43682  0.57765  0.88677  1.0000 0.1109265022
C   C2        1.0  0.56318  0.42235  0.11323  1.0000 0.1109265022
C   C3        1.0  0.94994  0.30912  0.88677  1.0000 0.1109265022
C   C4        1.0  0.05006  0.69088  0.11323  1.0000 0.1109265022
C   C5        1.0  0.92235  0.06318  0.61323  1.0000 0.1109265022
C   C6        1.0  0.07765  0.93682  0.38677  1.0000 0.1109265022
C   C7        1.0  0.19088  0.55006  0.61323  1.0000 0.1109265022
C   C8        1.0  0.80912  0.44994  0.38677  1.0000 0.1109265022
C   C9        1.0  0.29191  0.65171  0.94189  1.0000 0.0515245151
C   C10       1.0  0.70809  0.34829  0.05811  1.0000 0.0515245151
C   C11       1.0  0.14997  0.29017  0.94189  1.0000 0.0515245151
C   C12       1.0  0.85003  0.70983  0.05811  1.0000 0.0515245151
C   C13       1.0  0.84829  0.20809  0.55811  1.0000 0.0515245151
C   C14       1.0  0.15171  0.79191  0.44189  1.0000 0.0515245151
C   C15       1.0  0.20983  0.35003  0.55811  1.0000 0.0515245151
C   C16       1.0  0.79017  0.64997  0.44189  1.0000 0.0515245151
C   C17       1.0  0.46909  0.88635  0.08535  1.0000 -0.0757140435
C   C18       1.0  0.53091  0.11365  0.91465  1.0000 -0.0757140435
C   C19       1.0  0.11626  0.19899  0.08535  1.0000 -0.0757140435
C   C20       1.0  0.88374  0.80101  0.91465  1.0000 -0.0757140435
C   C21       1.0  0.61365  0.03091  0.41465  1.0000 -0.0757140435
C   C22       1.0  0.38635  0.96909  0.58535  1.0000 -0.0757140435
C   C23       1.0  0.30101  0.38374  0.41465  1.0000 -0.0757140435
C   C24       1.0  0.69899  0.61626  0.58535  1.0000 -0.0757140435
C   C25       1.0  0.45578  0.99362  0.03439  1.0000 -0.1728422169
C   C26       1.0  0.54422  0.00638  0.96561  1.0000 -0.1728422169
C   C27       1.0  0.07861  0.04077  0.03439  1.0000 -0.1728422169
C   C28       1.0  0.92139  0.95923  0.96561  1.0000 -0.1728422169
C   C29       1.0  0.50638  0.04422  0.46561  1.0000 -0.1728422169
C   C30       1.0  0.49362  0.95578  0.53439  1.0000 -0.1728422169
C   C31       1.0  0.45923  0.42139  0.46561  1.0000 -0.1728422169
C   C32       1.0  0.54077  0.57861  0.53439  1.0000 -0.1728422169
N   N1        1.0  0.29717  0.54274  0.86779  1.0000 -0.3049739517
N   N2        1.0  0.70283  0.45726  0.13221  1.0000 -0.3049739517
N   N3        1.0  0.07062  0.32506  0.86779  1.0000 -0.3049739517
N   N4        1.0  0.92938  0.67494  0.13221  1.0000 -0.3049739517
N   N5        1.0  0.95726  0.20283  0.63221  1.0000 -0.3049739517
N   N6        1.0  0.04274  0.79717  0.36779  1.0000 -0.3049739517
N   N7        1.0  0.17494  0.42938  0.63221  1.0000 -0.3054718591
N   N8        1.0  0.82506  0.57062  0.36779  1.0000 -0.3049739517
N   N9        1.0  0.42578  0.74760  0.00282  1.0000 0.1303765632
N   N10       1.0  0.57422  0.25240  0.99718  1.0000 0.1303765632
N   N11       1.0  0.07703  0.25522  0.00282  1.0000 0.1303765632
N   N12       1.0  0.92297  0.74478  0.99718  1.0000 0.1303765632
N   N13       1.0  0.75240  0.07422  0.49718  1.0000 0.1303765632
N   N14       1.0  0.24760  0.92578  0.50282  1.0000 0.1303765632
N   N15       1.0  0.24478  0.42297  0.49718  1.0000 0.1303765632
N   N16       1.0  0.75522  0.57703  0.50282  1.0000 0.1303765632
N   N17       1.0  0.52205  0.70191  0.96880  1.0000 -0.3390279665
N   N18       1.0  0.47795  0.29809  0.03120  1.0000 -0.3390279665
N   N19       1.0  0.94676  0.26689  0.96880  1.0000 -0.3390279665
N   N20       1.0  0.05324  0.73311  0.03120  1.0000 -0.3390279665
N   N21       1.0  0.79809  0.97795  0.53120  1.0000 -0.3390279665
N   N22       1.0  0.20191  0.02205  0.46880  1.0000 -0.3390279665
N   N23       1.0  0.23311  0.55324  0.53120  1.0000 -0.3390279665
N   N24       1.0  0.76689  0.44676  0.46880  1.0000 -0.3390279665
