# DDEC6 charges by PACMAN v1.1 (https://github.com/mtap-research/PACMAN-charge/)
data_2011[Cd][sqc]3[ASR]1
_chemical_formula_sum              "Cd6 H44 C84 O24"
_cell_length_a       7.1422
_cell_length_b       21.211
_cell_length_c       22.181
_cell_angle_alpha    117.588
_cell_angle_beta     98.608
_cell_angle_gamma    89.538

_symmetry_space_group_name_H-M    "P 1"
_symmetry_Int_Tables_number       1

loop_
  _symmetry_equiv_pos_as_xyz
  'x, y, z'

loop_
  _atom_site_type_symbol
  _atom_site_label
  _atom_site_symmetry_multiplicity
  _atom_site_fract_x
  _atom_site_fract_y
  _atom_site_fract_z
  _atom_site_occupancy
  _atom_site_charge
Cd  Cd1       1.0  0.16505  0.69050  0.43075  1.0000 1.0098386551
Cd  Cd2       1.0  0.83495  0.30950  0.56925  1.0000 1.0098386551
Cd  Cd3       1.0  0.66359  0.74660  0.43035  1.0000 1.0098386551
Cd  Cd4       1.0  0.33641  0.25340  0.56965  1.0000 1.0098386551
Cd  Cd5       1.0  0.25874  0.90729  0.98417  1.0000 0.9803761984
Cd  Cd6       1.0  0.74126  0.09271  0.01583  1.0000 0.9803761984
H   H1        1.0  0.89360  0.90890  0.08890  1.0000 0.1352545912
H   H2        1.0  0.10640  0.09110  0.91110  1.0000 0.1292352721
H   H3        1.0  0.13310  0.91560  0.17460  1.0000 0.1186331784
H   H4        1.0  0.86690  0.08440  0.82540  1.0000 0.1186331784
H   H5        1.0  0.73840  0.87170  0.26600  1.0000 0.104613855
H   H6        1.0  0.26160  0.12830  0.73400  1.0000 0.104613855
H   H7        1.0  0.50230  0.87470  0.18020  1.0000 0.1186331784
H   H8        1.0  0.49770  0.12530  0.81980  1.0000 0.1186331784
H   H9        1.0  0.99900  0.80550  0.28430  1.0000 0.1186331784
H   H10       1.0  0.00100  0.19450  0.71570  1.0000 0.1186331784
H   H11       1.0  0.48600  0.88690  0.41540  1.0000 0.1186331784
H   H12       1.0  0.51400  0.11310  0.58460  1.0000 0.1186331784
H   H13       1.0  0.27840  0.97180  0.29490  1.0000 0.1186331784
H   H14       1.0  0.72160  0.02820  0.70510  1.0000 0.1186331784
H   H15       1.0  0.41990  0.07600  0.39460  1.0000 0.1121867416
H   H16       1.0  0.58010  0.92400  0.60540  1.0000 0.1121867416
H   H17       1.0  0.66770  0.16240  0.43930  1.0000 0.1292352721
H   H18       1.0  0.33230  0.83760  0.56070  1.0000 0.1292352721
H   H19       1.0  0.02730  0.01910  0.44780  1.0000 0.1186331784
H   H20       1.0  0.97270  0.98090  0.55220  1.0000 0.1186331784
H   H21       1.0  0.77840  0.93410  0.40590  1.0000 0.1186331784
H   H22       1.0  0.22160  0.06590  0.59410  1.0000 0.1186331784
H   H23       1.0  0.47030  0.56560  0.54750  1.0000 0.1186331784
H   H24       1.0  0.52970  0.43440  0.45250  1.0000 0.1186331784
H   H25       1.0  0.71590  0.52410  0.59620  1.0000 0.1186331784
H   H26       1.0  0.28410  0.47590  0.40380  1.0000 0.1186331784
H   H27       1.0  0.08560  0.65960  0.58660  1.0000 0.1186331784
H   H28       1.0  0.91440  0.34040  0.41340  1.0000 0.1186331784
H   H29       1.0  0.83780  0.70220  0.53970  1.0000 0.1186331784
H   H30       1.0  0.16220  0.29780  0.46030  1.0000 0.1186331784
H   H31       1.0  0.01250  0.46080  0.58790  1.0000 0.1186331784
H   H32       1.0  0.98750  0.53920  0.41210  1.0000 0.1186331784
H   H33       1.0  0.50660  0.51250  0.71680  1.0000 0.1121867416
H   H34       1.0  0.49340  0.48750  0.28320  1.0000 0.1121867416
H   H35       1.0  0.21280  0.66610  0.69500  1.0000 0.1186331784
H   H36       1.0  0.78720  0.33390  0.30500  1.0000 0.1186331784
H   H37       1.0  0.36600  0.73040  0.80980  1.0000 0.1186331784
H   H38       1.0  0.63400  0.26960  0.19020  1.0000 0.1186331784
H   H39       1.0  0.76010  0.58840  0.73570  1.0000 0.1121867416
H   H40       1.0  0.23990  0.41160  0.26430  1.0000 0.1121867416
H   H41       1.0  0.99850  0.67300  0.80500  1.0000 0.1121867416
H   H42       1.0  0.00150  0.32700  0.19500  1.0000 0.1121867416
H   H43       1.0  0.60880  0.81740  0.88420  1.0000 0.1186331784
H   H44       1.0  0.39120  0.18260  0.11580  1.0000 0.1186331784
C   C1        1.0  0.52640  0.89760  0.07640  1.0000 0.5584223911
C   C2        1.0  0.47360  0.10240  0.92360  1.0000 0.5584223911
C   C3        1.0  0.67910  0.89750  0.13180  1.0000 -0.0081266868
C   C4        1.0  0.32090  0.10250  0.86820  1.0000 -0.0081266868
C   C5        1.0  0.86390  0.90490  0.12650  1.0000 -0.0782074474
C   C6        1.0  0.13610  0.09510  0.87350  1.0000 -0.0782074474
C   C7        1.0  0.00730  0.90640  0.17620  1.0000 -0.1485871919
C   C8        1.0  0.99270  0.09360  0.82380  1.0000 -0.1485871919
C   C9        1.0  0.96100  0.89390  0.22940  1.0000 0.0783909834
C   C10       1.0  0.03900  0.10610  0.77060  1.0000 0.0783909834
C   C11       1.0  0.77140  0.88120  0.23190  1.0000 -0.1606001188
C   C12       1.0  0.22860  0.11880  0.76810  1.0000 -0.1606001188
C   C13       1.0  0.62980  0.88330  0.18010  1.0000 -0.0922030935
C   C14       1.0  0.37020  0.11670  0.81990  1.0000 -0.0922030935
C   C15       1.0  0.11460  0.88900  0.28110  1.0000 0.0783909834
C   C16       1.0  0.88540  0.11100  0.71890  1.0000 0.0783909834
C   C17       1.0  0.10340  0.83860  0.30300  1.0000 -0.1606001188
C   C18       1.0  0.89660  0.16140  0.69700  1.0000 -0.1606001188
C   C19       1.0  0.24330  0.83510  0.35240  1.0000 -0.0332460706
C   C20       1.0  0.75670  0.16490  0.64760  1.0000 -0.0332460706
C   C21       1.0  0.39340  0.88720  0.38130  1.0000 -0.1606001188
C   C22       1.0  0.60660  0.11280  0.61870  1.0000 -0.1606001188
C   C23       1.0  0.41030  0.93920  0.36140  1.0000 0.0706622475
C   C24       1.0  0.58970  0.06080  0.63860  1.0000 0.0706622475
C   C25       1.0  0.26830  0.93790  0.31010  1.0000 -0.1863424894
C   C26       1.0  0.73170  0.06210  0.68990  1.0000 -0.1863424894
C   C27       1.0  0.56760  0.99500  0.39460  1.0000 0.0706622475
C   C28       1.0  0.43240  0.00500  0.60540  1.0000 0.0706622475
C   C29       1.0  0.54130  0.06430  0.40590  1.0000 -0.1320791808
C   C30       1.0  0.45870  0.93570  0.59410  1.0000 -0.1320791808
C   C31       1.0  0.68940  0.11670  0.43320  1.0000 -0.1012999718
C   C32       1.0  0.31060  0.88330  0.56680  1.0000 -0.1012999718
C   C33       1.0  0.86890  0.10020  0.45140  1.0000 -0.0212171921
C   C34       1.0  0.13110  0.89980  0.54860  1.0000 -0.0212171921
C   C35       1.0  0.90430  0.03080  0.43860  1.0000 -0.1012999718
C   C36       1.0  0.09570  0.96920  0.56140  1.0000 -0.1012999718
C   C37       1.0  0.75530  0.97980  0.41230  1.0000 -0.142655537
C   C38       1.0  0.24470  0.02020  0.58770  1.0000 -0.142655537
C   C39       1.0  0.02500  0.15860  0.48250  1.0000 0.5420529987
C   C40       1.0  0.97500  0.84140  0.51750  1.0000 0.5420529987
C   C41       1.0  0.22270  0.78100  0.37500  1.0000 0.5584223911
C   C42       1.0  0.77730  0.21900  0.62500  1.0000 0.5584223911
C   C43       1.0  0.47140  0.66720  0.50980  1.0000 0.5744940783
C   C44       1.0  0.52860  0.33280  0.49020  1.0000 0.5744940783
C   C45       1.0  0.62800  0.63830  0.53970  1.0000 -0.0402386602
C   C46       1.0  0.37200  0.36170  0.46030  1.0000 -0.0402386602
C   C47       1.0  0.59360  0.58510  0.55620  1.0000 -0.0922030935
C   C48       1.0  0.40640  0.41490  0.44380  1.0000 -0.0922030935
C   C49       1.0  0.74030  0.56040  0.58550  1.0000 -0.142655537
C   C50       1.0  0.25970  0.43960  0.41450  1.0000 -0.142655537
C   C51       1.0  0.92780  0.59020  0.59940  1.0000 0.0706622475
C   C52       1.0  0.07220  0.40980  0.40060  1.0000 0.0706622475
C   C53       1.0  0.96190  0.64160  0.58020  1.0000 -0.1320791808
C   C54       1.0  0.03810  0.35840  0.41980  1.0000 -0.1320791808
C   C55       1.0  0.81390  0.66667  0.55140  1.0000 -0.1012999718
C   C56       1.0  0.18610  0.33340  0.44860  1.0000 -0.1012999718
C   C57       1.0  0.08770  0.56660  0.63400  1.0000 0.0783909834
C   C58       1.0  0.91230  0.43340  0.36600  1.0000 0.0783909834
C   C59       1.0  0.10640  0.49480  0.61990  1.0000 -0.1485871919
C   C60       1.0  0.89360  0.50520  0.38010  1.0000 -0.1485871919
C   C61       1.0  0.25680  0.47160  0.65100  1.0000 -0.0782074474
C   C62       1.0  0.74320  0.52840  0.34900  1.0000 -0.0782074474
C   C63       1.0  0.39950  0.52550  0.69690  1.0000 -0.1485871919
C   C64       1.0  0.60050  0.47450  0.30310  1.0000 -0.1485871919
C   C65       1.0  0.38620  0.59800  0.71350  1.0000 0.0783909834
C   C66       1.0  0.61380  0.40200  0.28650  1.0000 0.0783909834
C   C67       1.0  0.22620  0.61830  0.68280  1.0000 -0.1863424894
C   C68       1.0  0.77380  0.38170  0.31720  1.0000 -0.1863424894
C   C69       1.0  0.27710  0.39840  0.63210  1.0000 0.5584223911
C   C70       1.0  0.72290  0.60160  0.36790  1.0000 0.5584223911
C   C71       1.0  0.53810  0.65200  0.76360  1.0000 0.0706622475
C   C72       1.0  0.46190  0.34800  0.23640  1.0000 0.0706622475
C   C73       1.0  0.49230  0.71950  0.80910  1.0000 -0.1485871919
C   C74       1.0  0.50770  0.28050  0.19090  1.0000 -0.1485871919
C   C75       1.0  0.73100  0.63440  0.76450  1.0000 -0.1606001188
C   C76       1.0  0.26900  0.36560  0.23550  1.0000 -0.1606001188
C   C77       1.0  0.87280  0.68440  0.80710  1.0000 -0.0922030935
C   C78       1.0  0.12720  0.31560  0.19290  1.0000 -0.0922030935
C   C79       1.0  0.83120  0.75460  0.85510  1.0000 -0.0402386602
C   C80       1.0  0.16880  0.24540  0.14490  1.0000 -0.0402386602
C   C81       1.0  0.63880  0.77180  0.85460  1.0000 -0.0782074474
C   C82       1.0  0.36120  0.22820  0.14540  1.0000 -0.0782074474
C   C83       1.0  0.98610  0.80590  0.90310  1.0000 0.5333558466
C   C84       1.0  0.01390  0.19410  0.09690  1.0000 0.5333558466
O   O1        1.0  0.56720  0.91920  0.03380  1.0000 -0.5611452912
O   O2        1.0  0.43280  0.08080  0.96620  1.0000 -0.5611452912
O   O3        1.0  0.35790  0.88130  0.07580  1.0000 -0.5336949442
O   O4        1.0  0.64210  0.11870  0.92420  1.0000 -0.5336949442
O   O5        1.0  0.06720  0.74560  0.36010  1.0000 -0.5190686836
O   O6        1.0  0.93280  0.25440  0.63990  1.0000 -0.5190686836
O   O7        1.0  0.35520  0.77160  0.41150  1.0000 -0.5336949442
O   O8        1.0  0.64480  0.22840  0.58850  1.0000 -0.5336949442
O   O9        1.0  0.00390  0.21250  0.47730  1.0000 -0.5190686836
O   O10       1.0  0.99610  0.78750  0.52270  1.0000 -0.5190686836
O   O11       1.0  0.16910  0.15440  0.52020  1.0000 -0.5111099933
O   O12       1.0  0.83090  0.84560  0.47980  1.0000 -0.5111099933
O   O13       1.0  0.30640  0.63650  0.49330  1.0000 -0.5395914172
O   O14       1.0  0.69360  0.36350  0.50670  1.0000 -0.5395914172
O   O15       1.0  0.50770  0.71770  0.49820  1.0000 -0.5611452912
O   O16       1.0  0.49230  0.28230  0.50180  1.0000 -0.5611452912
O   O17       1.0  0.13640  0.35790  0.61470  1.0000 -0.5336949442
O   O18       1.0  0.86360  0.64210  0.38530  1.0000 -0.5336949442
O   O19       1.0  0.43870  0.37370  0.62940  1.0000 -0.5336949442
O   O20       1.0  0.56130  0.62630  0.37060  1.0000 -0.5336949442
O   O21       1.0  0.15370  0.79730  0.89530  1.0000 -0.5190686836
O   O22       1.0  0.84630  0.20270  0.10470  1.0000 -0.5190686836
O   O23       1.0  0.94700  0.86630  0.94880  1.0000 -0.5336949442
O   O24       1.0  0.05300  0.13370  0.05120  1.0000 -0.5336949442
