# DDEC6 charges by PACMAN v1.1 (https://github.com/mtap-research/PACMAN-charge/)
data_2011[CeCu][stp]3[ASR]1
_chemical_formula_sum              "Ce4 Cu6 H60 C48 N12 O48"
_cell_length_a       13.4377
_cell_length_b       13.4377
_cell_length_c       14.853
_cell_angle_alpha    90
_cell_angle_beta     90
_cell_angle_gamma    120

_symmetry_space_group_name_H-M    "P 1"
_symmetry_Int_Tables_number       1

loop_
  _symmetry_equiv_pos_as_xyz
  'x, y, z'

loop_
  _atom_site_type_symbol
  _atom_site_label
  _atom_site_symmetry_multiplicity
  _atom_site_fract_x
  _atom_site_fract_y
  _atom_site_fract_z
  _atom_site_occupancy
  _atom_site_charge
Ce  Ce1       1.0  0.33333  0.66667  0.83078  1.0000 1.936575217
Ce  Ce2       1.0  0.66667  0.33333  0.66922  1.0000 1.936575217
Ce  Ce3       1.0  0.66667  0.33333  0.16922  1.0000 1.936575217
Ce  Ce4       1.0  0.33333  0.66667  0.33078  1.0000 1.936575217
Cu  Cu1       1.0  0.50000  0.50000  0.00000  1.0000 0.7421105434
Cu  Cu2       1.0  0.50000  0.00000  0.00000  1.0000 0.7421105434
Cu  Cu3       1.0  0.00000  0.50000  0.00000  1.0000 0.7421105434
Cu  Cu4       1.0  0.00000  0.50000  0.50000  1.0000 0.7421105434
Cu  Cu5       1.0  0.50000  0.00000  0.50000  1.0000 0.7421105434
Cu  Cu6       1.0  0.50000  0.50000  0.50000  1.0000 0.7421105434
H   H1        1.0  0.35220  0.32610  0.07710  1.0000 0.2608256717
H   H2        1.0  0.67390  0.02610  0.07710  1.0000 0.2608256717
H   H3        1.0  0.97390  0.64780  0.07710  1.0000 0.2608256717
H   H4        1.0  0.02610  0.67390  0.42290  1.0000 0.2608256717
H   H5        1.0  0.64780  0.97390  0.42290  1.0000 0.2608256717
H   H6        1.0  0.32610  0.35220  0.42290  1.0000 0.2608256717
H   H7        1.0  0.64780  0.67390  0.92290  1.0000 0.2608256717
H   H8        1.0  0.32610  0.97390  0.92290  1.0000 0.2608256717
H   H9        1.0  0.02610  0.35220  0.92290  1.0000 0.2608256717
H   H10       1.0  0.97390  0.32610  0.57710  1.0000 0.2608256717
H   H11       1.0  0.35220  0.02610  0.57710  1.0000 0.2608256717
H   H12       1.0  0.67390  0.64780  0.57710  1.0000 0.2608256717
H   H13       1.0  0.18270  0.31900  0.02100  1.0000 0.1315439311
H   H14       1.0  0.68100  0.86370  0.02100  1.0000 0.1315439311
H   H15       1.0  0.13630  0.81730  0.02100  1.0000 0.1315439311
H   H16       1.0  0.86370  0.68100  0.47900  1.0000 0.1315439311
H   H17       1.0  0.81730  0.13630  0.47900  1.0000 0.1315439311
H   H18       1.0  0.31900  0.18270  0.47900  1.0000 0.1315439311
H   H19       1.0  0.81730  0.68100  0.97900  1.0000 0.1315439311
H   H20       1.0  0.31900  0.13630  0.97900  1.0000 0.1315439311
H   H21       1.0  0.86370  0.18270  0.97900  1.0000 0.1315439311
H   H22       1.0  0.13630  0.31900  0.52100  1.0000 0.1315439311
H   H23       1.0  0.18270  0.86370  0.52100  1.0000 0.1315439311
H   H24       1.0  0.68100  0.81730  0.52100  1.0000 0.1315439311
H   H25       1.0  0.25550  0.29310  0.95230  1.0000 0.1410671005
H   H26       1.0  0.70690  0.96240  0.95230  1.0000 0.1410671005
H   H27       1.0  0.03760  0.74450  0.95230  1.0000 0.1410671005
H   H28       1.0  0.96240  0.70690  0.54770  1.0000 0.1410671005
H   H29       1.0  0.74450  0.03760  0.54770  1.0000 0.1410671005
H   H30       1.0  0.29310  0.25550  0.54770  1.0000 0.1410671005
H   H31       1.0  0.74450  0.70690  0.04770  1.0000 0.1410671005
H   H32       1.0  0.29310  0.03760  0.04770  1.0000 0.1410671005
H   H33       1.0  0.96240  0.25550  0.04770  1.0000 0.1410671005
H   H34       1.0  0.03760  0.29310  0.45230  1.0000 0.1410671005
H   H35       1.0  0.25550  0.96240  0.45230  1.0000 0.1410671005
H   H36       1.0  0.70690  0.74450  0.45230  1.0000 0.1410671005
H   H37       1.0  0.27040  0.46020  0.12720  1.0000 0.1579006853
H   H38       1.0  0.53980  0.81020  0.12720  1.0000 0.1579006853
H   H39       1.0  0.18980  0.72960  0.12720  1.0000 0.1579006853
H   H40       1.0  0.81020  0.53980  0.37280  1.0000 0.1579006853
H   H41       1.0  0.72960  0.18980  0.37280  1.0000 0.1579006853
H   H42       1.0  0.46020  0.27040  0.37280  1.0000 0.1579006853
H   H43       1.0  0.72960  0.53980  0.87280  1.0000 0.1579006853
H   H44       1.0  0.46020  0.18980  0.87280  1.0000 0.1579006853
H   H45       1.0  0.81020  0.27040  0.87280  1.0000 0.1579006853
H   H46       1.0  0.18980  0.46020  0.62720  1.0000 0.1579006853
H   H47       1.0  0.27040  0.81020  0.62720  1.0000 0.1579006853
H   H48       1.0  0.53980  0.72960  0.62720  1.0000 0.1579006853
H   H49       1.0  0.31700  0.39900  0.19000  1.0000 0.1536737387
H   H50       1.0  0.60100  0.91800  0.19000  1.0000 0.1536737387
H   H51       1.0  0.08200  0.68300  0.19000  1.0000 0.1536737387
H   H52       1.0  0.91800  0.60100  0.31000  1.0000 0.1536737387
H   H53       1.0  0.68300  0.08200  0.31000  1.0000 0.1536737387
H   H54       1.0  0.39900  0.31700  0.31000  1.0000 0.1536737387
H   H55       1.0  0.68300  0.60100  0.81000  1.0000 0.1536737387
H   H56       1.0  0.39900  0.08200  0.81000  1.0000 0.1536737387
H   H57       1.0  0.91800  0.31700  0.81000  1.0000 0.1536737387
H   H58       1.0  0.08200  0.39900  0.69000  1.0000 0.1536737387
H   H59       1.0  0.31700  0.91800  0.69000  1.0000 0.1536737387
H   H60       1.0  0.60100  0.68300  0.69000  1.0000 0.1536737387
C   C1        1.0  0.27170  0.45150  0.93240  1.0000 0.6154011319
C   C2        1.0  0.54850  0.82020  0.93240  1.0000 0.6154011319
C   C3        1.0  0.17980  0.72830  0.93240  1.0000 0.6154011319
C   C4        1.0  0.82020  0.54850  0.56760  1.0000 0.6154011319
C   C5        1.0  0.72830  0.17980  0.56760  1.0000 0.6154011319
C   C6        1.0  0.45150  0.27170  0.56760  1.0000 0.6154011319
C   C7        1.0  0.72830  0.54850  0.06760  1.0000 0.6154011319
C   C8        1.0  0.45150  0.17980  0.06760  1.0000 0.6154011319
C   C9        1.0  0.82020  0.27170  0.06760  1.0000 0.6154011319
C   C10       1.0  0.17980  0.45150  0.43240  1.0000 0.6154011319
C   C11       1.0  0.27170  0.82020  0.43240  1.0000 0.6154011319
C   C12       1.0  0.54850  0.72830  0.43240  1.0000 0.6154011319
C   C13       1.0  0.25620  0.35200  0.99040  1.0000 -0.2476223703
C   C14       1.0  0.64800  0.90420  0.99040  1.0000 -0.2476223703
C   C15       1.0  0.09580  0.74380  0.99040  1.0000 -0.2476223703
C   C16       1.0  0.90420  0.64800  0.50960  1.0000 -0.2476223703
C   C17       1.0  0.74380  0.09580  0.50960  1.0000 -0.2476223703
C   C18       1.0  0.35200  0.25620  0.50960  1.0000 -0.2476223703
C   C19       1.0  0.74380  0.64800  0.00960  1.0000 -0.2476223703
C   C20       1.0  0.35200  0.09580  0.00960  1.0000 -0.2476223703
C   C21       1.0  0.90420  0.25620  0.00960  1.0000 -0.2476223703
C   C22       1.0  0.09580  0.35200  0.49040  1.0000 -0.2476223703
C   C23       1.0  0.25620  0.90420  0.49040  1.0000 -0.2476223703
C   C24       1.0  0.64800  0.74380  0.49040  1.0000 -0.2476223703
C   C25       1.0  0.33490  0.44820  0.13770  1.0000 -0.2795004914
C   C26       1.0  0.55180  0.88670  0.13770  1.0000 -0.2795004914
C   C27       1.0  0.11330  0.66510  0.13770  1.0000 -0.2795004914
C   C28       1.0  0.88670  0.55180  0.36230  1.0000 -0.2795004914
C   C29       1.0  0.66510  0.11330  0.36230  1.0000 -0.2795004914
C   C30       1.0  0.44820  0.33490  0.36230  1.0000 -0.2795004914
C   C31       1.0  0.66510  0.55180  0.86230  1.0000 -0.2795004914
C   C32       1.0  0.44820  0.11330  0.86230  1.0000 -0.2795004914
C   C33       1.0  0.88670  0.33490  0.86230  1.0000 -0.2795004914
C   C34       1.0  0.11330  0.44820  0.63770  1.0000 -0.2795004914
C   C35       1.0  0.33490  0.88670  0.63770  1.0000 -0.2795004914
C   C36       1.0  0.55180  0.66510  0.63770  1.0000 -0.2795004914
C   C37       1.0  0.43770  0.55960  0.15700  1.0000 0.6375915388
C   C38       1.0  0.44040  0.87810  0.15700  1.0000 0.6375915388
C   C39       1.0  0.12190  0.56230  0.15700  1.0000 0.6375915388
C   C40       1.0  0.87810  0.44040  0.34300  1.0000 0.6375915388
C   C41       1.0  0.56230  0.12190  0.34300  1.0000 0.6375915388
C   C42       1.0  0.55960  0.43770  0.34300  1.0000 0.6375915388
C   C43       1.0  0.56230  0.44040  0.84300  1.0000 0.6375915388
C   C44       1.0  0.55960  0.12190  0.84300  1.0000 0.6375915388
C   C45       1.0  0.87810  0.43770  0.84300  1.0000 0.6375915388
C   C46       1.0  0.12190  0.55960  0.65700  1.0000 0.6375915388
C   C47       1.0  0.43770  0.87810  0.65700  1.0000 0.6375915388
C   C48       1.0  0.44040  0.56230  0.65700  1.0000 0.6375915388
N   N1        1.0  0.34900  0.38880  0.05790  1.0000 -0.2476223703
N   N2        1.0  0.61120  0.96020  0.05790  1.0000 -0.2476223703
N   N3        1.0  0.03980  0.65100  0.05790  1.0000 -0.2476223703
N   N4        1.0  0.96020  0.61120  0.44210  1.0000 -0.2476223703
N   N5        1.0  0.65100  0.03980  0.44210  1.0000 -0.2476223703
N   N6        1.0  0.38880  0.34900  0.44210  1.0000 -0.2476223703
N   N7        1.0  0.65100  0.61120  0.94210  1.0000 -0.2476223703
N   N8        1.0  0.38880  0.03980  0.94210  1.0000 -0.2476223703
N   N9        1.0  0.96020  0.34900  0.94210  1.0000 -0.2476223703
N   N10       1.0  0.03980  0.38880  0.55790  1.0000 -0.2476223703
N   N11       1.0  0.34900  0.96020  0.55790  1.0000 -0.2476223703
N   N12       1.0  0.61120  0.65100  0.55790  1.0000 -0.2476223703
O   O1        1.0  0.36270  0.54730  0.94280  1.0000 -0.6261033386
O   O2        1.0  0.45270  0.81540  0.94280  1.0000 -0.6261033386
O   O3        1.0  0.18460  0.63730  0.94280  1.0000 -0.6261033386
O   O4        1.0  0.81540  0.45270  0.55720  1.0000 -0.6261033386
O   O5        1.0  0.63730  0.18460  0.55720  1.0000 -0.6261033386
O   O6        1.0  0.54730  0.36270  0.55720  1.0000 -0.6261033386
O   O7        1.0  0.63730  0.45270  0.05720  1.0000 -0.6261033386
O   O8        1.0  0.54730  0.18460  0.05720  1.0000 -0.6261033386
O   O9        1.0  0.81540  0.36270  0.05720  1.0000 -0.6261033386
O   O10       1.0  0.18460  0.54730  0.44280  1.0000 -0.6261033386
O   O11       1.0  0.36270  0.81540  0.44280  1.0000 -0.6261033386
O   O12       1.0  0.45270  0.63730  0.44280  1.0000 -0.6261033386
O   O13       1.0  0.19730  0.43810  0.87570  1.0000 -0.5911382457
O   O14       1.0  0.56190  0.75920  0.87570  1.0000 -0.5911382457
O   O15       1.0  0.24080  0.80270  0.87570  1.0000 -0.5911382457
O   O16       1.0  0.75920  0.56190  0.62430  1.0000 -0.5911382457
O   O17       1.0  0.80270  0.24080  0.62430  1.0000 -0.5911382457
O   O18       1.0  0.43810  0.19730  0.62430  1.0000 -0.5911382457
O   O19       1.0  0.80270  0.56190  0.12430  1.0000 -0.5911382457
O   O20       1.0  0.43810  0.24080  0.12430  1.0000 -0.5911382457
O   O21       1.0  0.75920  0.19730  0.12430  1.0000 -0.5911382457
O   O22       1.0  0.24080  0.43810  0.37570  1.0000 -0.5911382457
O   O23       1.0  0.19730  0.75920  0.37570  1.0000 -0.5911382457
O   O24       1.0  0.56190  0.80270  0.37570  1.0000 -0.5911382457
O   O25       1.0  0.43610  0.61400  0.22460  1.0000 -0.6139060428
O   O26       1.0  0.38600  0.82210  0.22460  1.0000 -0.6139060428
O   O27       1.0  0.17790  0.56390  0.22460  1.0000 -0.6139060428
O   O28       1.0  0.82210  0.38600  0.27540  1.0000 -0.6139060428
O   O29       1.0  0.56390  0.17790  0.27540  1.0000 -0.6139060428
O   O30       1.0  0.61400  0.43610  0.27540  1.0000 -0.6139060428
O   O31       1.0  0.56390  0.38600  0.77540  1.0000 -0.6139060428
O   O32       1.0  0.61400  0.17790  0.77540  1.0000 -0.6139060428
O   O33       1.0  0.82210  0.43610  0.77540  1.0000 -0.6139060428
O   O34       1.0  0.17790  0.61400  0.72460  1.0000 -0.6139060428
O   O35       1.0  0.43610  0.82210  0.72460  1.0000 -0.6139060428
O   O36       1.0  0.38600  0.56390  0.72460  1.0000 -0.6139060428
O   O37       1.0  0.52360  0.59740  0.10540  1.0000 -0.5086912831
O   O38       1.0  0.40260  0.92620  0.10540  1.0000 -0.5086912831
O   O39       1.0  0.07380  0.47640  0.10540  1.0000 -0.5086912831
O   O40       1.0  0.92620  0.40260  0.39460  1.0000 -0.5086912831
O   O41       1.0  0.47640  0.07380  0.39460  1.0000 -0.5086912831
O   O42       1.0  0.59740  0.52360  0.39460  1.0000 -0.5086912831
O   O43       1.0  0.47640  0.40260  0.89460  1.0000 -0.5086912831
O   O44       1.0  0.59740  0.07380  0.89460  1.0000 -0.5086912831
O   O45       1.0  0.92620  0.52360  0.89460  1.0000 -0.5086912831
O   O46       1.0  0.07380  0.59740  0.60540  1.0000 -0.5086912831
O   O47       1.0  0.52360  0.92620  0.60540  1.0000 -0.5086912831
O   O48       1.0  0.40260  0.47640  0.60540  1.0000 -0.5086912831
