# DDEC6 charges by PACMAN v1.1 (https://github.com/mtap-research/PACMAN-charge/)
data_2011[Zn][nan]3[ASR]2
_chemical_formula_sum              "Zn8 H96 C120 N16 O32"
_cell_length_a       19.9029
_cell_length_b       19.9029
_cell_length_c       12.34
_cell_angle_alpha    85.4407
_cell_angle_beta     94.5593
_cell_angle_gamma    77.2273

_symmetry_space_group_name_H-M    "P 1"
_symmetry_Int_Tables_number       1

loop_
  _symmetry_equiv_pos_as_xyz
  'x, y, z'

loop_
  _atom_site_type_symbol
  _atom_site_label
  _atom_site_symmetry_multiplicity
  _atom_site_fract_x
  _atom_site_fract_y
  _atom_site_fract_z
  _atom_site_occupancy
  _atom_site_charge
Zn  Zn1       1.0  0.56510  0.92360  0.61190  1.0000 0.8147833195
Zn  Zn2       1.0  0.07640  0.43490  0.11190  1.0000 0.8147833195
Zn  Zn3       1.0  0.52631  0.98313  0.80880  1.0000 0.8147833195
Zn  Zn4       1.0  0.01687  0.47369  0.30880  1.0000 0.8147833195
Zn  Zn5       1.0  0.60818  0.66022  0.41050  1.0000 0.8294921067
Zn  Zn6       1.0  0.33978  0.39182  0.91050  1.0000 0.8294921067
Zn  Zn7       1.0  0.74876  0.51272  0.50006  1.0000 0.8294921067
Zn  Zn8       1.0  0.48728  0.25124  0.00006  1.0000 0.8294921067
H   H1        1.0  0.54180  0.79980  0.49380  1.0000 0.1204515626
H   H2        1.0  0.20020  0.45820  0.99380  1.0000 0.1204515626
H   H3        1.0  0.61900  0.77920  0.55330  1.0000 0.1113714253
H   H4        1.0  0.22080  0.38100  0.05330  1.0000 0.1113714253
H   H5        1.0  0.69750  0.85670  0.52690  1.0000 0.1113714253
H   H6        1.0  0.14330  0.30250  0.02690  1.0000 0.1113714253
H   H7        1.0  0.67100  0.92860  0.45160  1.0000 0.1113714253
H   H8        1.0  0.07140  0.32900  0.95160  1.0000 0.1113714253
H   H9        1.0  0.55200  0.95980  0.36220  1.0000 0.0998515382
H   H10       1.0  0.04020  0.44800  0.86220  1.0000 0.0998515382
H   H11       1.0  0.50190  0.90750  0.37820  1.0000 0.1113714253
H   H12       1.0  0.09250  0.49810  0.87820  1.0000 0.1113714253
H   H13       1.0  0.70580  0.74820  0.31990  1.0000 0.1113714253
H   H14       1.0  0.25180  0.29420  0.81990  1.0000 0.1113714253
H   H15       1.0  0.71730  0.74990  0.44960  1.0000 0.1113714253
H   H16       1.0  0.25010  0.28270  0.94960  1.0000 0.1113714253
H   H17       1.0  0.66280  0.85780  0.20380  1.0000 0.0998515382
H   H18       1.0  0.14220  0.33720  0.70380  1.0000 0.0998515382
H   H19       1.0  0.64830  0.92910  0.25860  1.0000 0.0998515382
H   H20       1.0  0.07090  0.35170  0.75860  1.0000 0.0998515382
H   H21       1.0  0.52240  0.80080  0.29650  1.0000 0.1113714253
H   H22       1.0  0.19920  0.47760  0.79650  1.0000 0.1113714253
H   H23       1.0  0.58710  0.77950  0.22700  1.0000 0.1113714253
H   H24       1.0  0.22050  0.41290  0.72700  1.0000 0.1113714253
H   H25       1.0  0.47210  0.12730  0.86490  1.0000 0.1113714253
H   H26       1.0  0.87270  0.52790  0.36490  1.0000 0.1113714253
H   H27       1.0  0.55100  0.10920  0.91700  1.0000 0.1204515626
H   H28       1.0  0.89080  0.44900  0.41700  1.0000 0.1204515626
H   H29       1.0  0.42910  0.97710  0.98480  1.0000 0.1113714253
H   H30       1.0  0.02290  0.57090  0.48480  1.0000 0.1113714253
H   H31       1.0  0.39790  0.04710  0.90690  1.0000 0.1113714253
H   H32       1.0  0.95290  0.60210  0.40690  1.0000 0.1113714253
H   H33       1.0  0.59800  0.00160  0.03500  1.0000 0.1113714253
H   H34       1.0  0.99840  0.40200  0.53500  1.0000 0.1113714253
H   H35       1.0  0.54910  0.94970  0.06210  1.0000 0.0998515382
H   H36       1.0  0.05030  0.45090  0.56210  1.0000 0.0998515382
H   H37       1.0  0.37860  0.15600  0.98280  1.0000 0.1113714253
H   H38       1.0  0.84400  0.62140  0.48280  1.0000 0.1113714253
H   H39       1.0  0.39700  0.15800  0.11100  1.0000 0.1113714253
H   H40       1.0  0.84200  0.60300  0.61100  1.0000 0.1113714253
H   H41       1.0  0.45930  0.98030  0.17670  1.0000 0.0949524488
H   H42       1.0  0.01970  0.54070  0.67670  1.0000 0.0998515382
H   H43       1.0  0.44730  0.05330  0.22690  1.0000 0.0998515382
H   H44       1.0  0.94670  0.55270  0.72690  1.0000 0.0998515382
H   H45       1.0  0.51980  0.13080  0.18810  1.0000 0.1113714253
H   H46       1.0  0.86920  0.48020  0.68810  1.0000 0.1204515626
H   H47       1.0  0.57950  0.11110  0.10860  1.0000 0.1113714253
H   H48       1.0  0.88890  0.42050  0.60860  1.0000 0.1113714253
H   H49       1.0  0.34390  0.14010  0.65870  1.0000 0.1204515626
H   H50       1.0  0.85990  0.65610  0.15870  1.0000 0.1204515626
H   H51       1.0  0.32300  0.13740  0.27880  1.0000 0.1113714253
H   H52       1.0  0.86260  0.67700  0.77880  1.0000 0.1113714253
H   H53       1.0  0.40460  0.05320  0.38950  1.0000 0.1113714253
H   H54       1.0  0.94680  0.59540  0.88950  1.0000 0.1113714253
H   H55       1.0  0.24630  0.24490  0.64040  1.0000 0.1113714253
H   H56       1.0  0.75510  0.75370  0.14040  1.0000 0.1113714253
H   H57       1.0  0.16230  0.32630  0.53360  1.0000 0.1113714253
H   H58       1.0  0.67370  0.83770  0.03360  1.0000 0.1113714253
H   H59       1.0  0.22900  0.24500  0.26090  1.0000 0.1204515626
H   H60       1.0  0.75500  0.77100  0.76090  1.0000 0.1204515626
H   H61       1.0  0.40600  0.84020  0.92560  1.0000 0.1204515626
H   H62       1.0  0.15980  0.59400  0.42560  1.0000 0.1204515626
H   H63       1.0  0.35440  0.74940  0.97140  1.0000 0.1272513307
H   H64       1.0  0.25060  0.64560  0.47140  1.0000 0.1272513307
H   H65       1.0  0.46410  0.75550  0.65080  1.0000 0.1272513307
H   H66       1.0  0.24450  0.53590  0.15080  1.0000 0.1272513307
H   H67       1.0  0.32480  0.63940  0.93270  1.0000 0.1204515626
H   H68       1.0  0.36060  0.67520  0.43270  1.0000 0.1204515626
H   H69       1.0  0.39610  0.54610  0.67220  1.0000 0.1272513307
H   H70       1.0  0.45390  0.60390  0.17220  1.0000 0.1204515626
H   H71       1.0  0.44160  0.63920  0.61850  1.0000 0.1272513307
H   H72       1.0  0.36080  0.55840  0.11850  1.0000 0.1272513307
H   H73       1.0  0.63260  0.65900  0.11890  1.0000 0.1204515626
H   H74       1.0  0.34100  0.36740  0.61890  1.0000 0.1204515626
H   H75       1.0  0.79980  0.49100  0.97760  1.0000 0.1204515626
H   H76       1.0  0.50900  0.20020  0.47760  1.0000 0.1204515626
H   H77       1.0  0.79870  0.49610  0.16420  1.0000 0.1204515626
H   H78       1.0  0.50390  0.20130  0.66420  1.0000 0.1204515626
H   H79       1.0  0.58220  0.70600  0.92800  1.0000 0.1204515626
H   H80       1.0  0.29400  0.41780  0.42800  1.0000 0.1204515626
H   H81       1.0  0.58260  0.70240  0.74170  1.0000 0.1204515626
H   H82       1.0  0.29760  0.41740  0.24170  1.0000 0.1204515626
H   H83       1.0  0.75120  0.54160  0.78850  1.0000 0.1204515626
H   H84       1.0  0.45840  0.24880  0.28850  1.0000 0.1204515626
H   H85       1.0  0.62920  0.14940  0.77680  1.0000 0.1272513307
H   H86       1.0  0.85060  0.37080  0.27680  1.0000 0.1272513307
H   H87       1.0  0.72140  0.17080  0.44140  1.0000 0.1204515626
H   H88       1.0  0.82920  0.27860  0.94140  1.0000 0.1204515626
H   H89       1.0  0.67570  0.07650  0.48730  1.0000 0.1204515626
H   H90       1.0  0.92350  0.32430  0.98730  1.0000 0.1204515626
H   H91       1.0  0.65130  0.26250  0.81830  1.0000 0.1272513307
H   H92       1.0  0.73750  0.34870  0.31830  1.0000 0.1272513307
H   H93       1.0  0.69460  0.35820  0.77020  1.0000 0.1204515626
H   H94       1.0  0.64180  0.30540  0.27020  1.0000 0.1204515626
H   H95       1.0  0.74340  0.28600  0.48430  1.0000 0.1204515626
H   H96       1.0  0.71400  0.25660  0.98430  1.0000 0.1204515626
C   C1        1.0  0.59019  0.80263  0.48600  1.0000 -0.0291413907
C   C2        1.0  0.19737  0.40981  0.98600  1.0000 -0.0291413907
C   C3        1.0  0.66754  0.87962  0.46030  1.0000 -0.0291413907
C   C4        1.0  0.12038  0.33246  0.96030  1.0000 -0.0291413907
C   C5        1.0  0.55053  0.91025  0.37200  1.0000 -0.0291413907
C   C6        1.0  0.08975  0.44947  0.87200  1.0000 -0.0291413907
C   C7        1.0  0.68796  0.77248  0.38230  1.0000 -0.0214608316
C   C8        1.0  0.22752  0.31204  0.88230  1.0000 -0.0214608316
C   C9        1.0  0.64608  0.87988  0.26870  1.0000 -0.0291413907
C   C10       1.0  0.12012  0.35392  0.76870  1.0000 -0.0291413907
C   C11       1.0  0.57118  0.80308  0.29110  1.0000 -0.0214608316
C   C12       1.0  0.19692  0.42882  0.79110  1.0000 -0.0214608316
C   C13       1.0  0.50362  0.10532  0.93050  1.0000 -0.0291413907
C   C14       1.0  0.89468  0.49638  0.43050  1.0000 -0.0291413907
C   C15       1.0  0.43076  0.02638  0.97150  1.0000 -0.0291413907
C   C16       1.0  0.97362  0.56924  0.47150  1.0000 -0.0291413907
C   C17       1.0  0.55009  0.99915  0.04820  1.0000 -0.0291413907
C   C18       1.0  0.00085  0.44991  0.54820  1.0000 -0.0291413907
C   C19       1.0  0.41166  0.13404  0.04660  1.0000 -0.0214608316
C   C20       1.0  0.86596  0.58834  0.54660  1.0000 -0.0214608316
C   C21       1.0  0.46070  0.02950  0.16160  1.0000 -0.0291413907
C   C22       1.0  0.97050  0.53930  0.66160  1.0000 -0.0291413907
C   C23       1.0  0.53213  0.10719  0.12230  1.0000 -0.0291413907
C   C24       1.0  0.89281  0.46787  0.62230  1.0000 -0.0291413907
C   C25       1.0  0.44009  0.03985  0.60370  1.0000 0.5903594043
C   C26       1.0  0.96015  0.55991  0.10370  1.0000 0.5903594043
C   C27       1.0  0.38270  0.09204  0.53540  1.0000 -0.0214608316
C   C28       1.0  0.90796  0.61730  0.03540  1.0000 -0.0214608316
C   C29       1.0  0.33966  0.14016  0.58150  1.0000 -0.1498317644
C   C30       1.0  0.85984  0.66034  0.08150  1.0000 -0.1498317644
C   C31       1.0  0.28723  0.19199  0.51710  1.0000 0.0804850768
C   C32       1.0  0.80801  0.71277  0.01710  1.0000 0.0804850768
C   C33       1.0  0.28142  0.19158  0.40300  1.0000 0.0804850768
C   C34       1.0  0.80842  0.71858  0.90300  1.0000 0.0804850768
C   C35       1.0  0.32661  0.13869  0.35580  1.0000 -0.1599247638
C   C36       1.0  0.86131  0.67339  0.85580  1.0000 -0.1599247638
C   C37       1.0  0.37550  0.08930  0.42120  1.0000 -0.1305291377
C   C38       1.0  0.91070  0.62450  0.92120  1.0000 -0.1305291377
C   C39       1.0  0.24232  0.24368  0.56340  1.0000 -0.1498317644
C   C40       1.0  0.75632  0.75768  0.06340  1.0000 -0.1498317644
C   C41       1.0  0.19288  0.29232  0.49990  1.0000 -0.1305291377
C   C42       1.0  0.70768  0.80712  0.99990  1.0000 -0.1305291377
C   C43       1.0  0.18603  0.29339  0.38500  1.0000 -0.0214608316
C   C44       1.0  0.70661  0.81397  0.88500  1.0000 -0.0214608316
C   C45       1.0  0.23140  0.24388  0.33820  1.0000 -0.1599247638
C   C46       1.0  0.75612  0.76860  0.83820  1.0000 -0.1599247638
C   C47       1.0  0.13370  0.34988  0.31790  1.0000 0.5811789598
C   C48       1.0  0.65012  0.86630  0.81790  1.0000 0.5811789598
C   C49       1.0  0.47481  0.86371  0.75380  1.0000 0.5811789598
C   C50       1.0  0.13629  0.52519  0.25380  1.0000 0.5811789598
C   C51       1.0  0.43986  0.80520  0.78230  1.0000 -0.0214608316
C   C52       1.0  0.19480  0.56014  0.28230  1.0000 -0.0214608316
C   C53       1.0  0.40718  0.80398  0.87940  1.0000 -0.1305291377
C   C54       1.0  0.19602  0.59282  0.37940  1.0000 -0.1305291377
C   C55       1.0  0.37714  0.74994  0.90660  1.0000 -0.1498317644
C   C56       1.0  0.25006  0.62286  0.40660  1.0000 -0.1498317644
C   C57       1.0  0.37952  0.69512  0.84040  1.0000 0.0804850768
C   C58       1.0  0.30488  0.62048  0.34040  1.0000 0.0804850768
C   C59       1.0  0.41230  0.69678  0.74410  1.0000 0.0804850768
C   C60       1.0  0.30322  0.58770  0.24410  1.0000 0.0804850768
C   C61       1.0  0.44226  0.75368  0.71630  1.0000 -0.1498317644
C   C62       1.0  0.24632  0.55774  0.21630  1.0000 -0.1498317644
C   C63       1.0  0.35003  0.63883  0.87060  1.0000 -0.1599247638
C   C64       1.0  0.36117  0.64997  0.37060  1.0000 -0.1599247638
C   C65       1.0  0.35811  0.58351  0.81020  1.0000 -0.0083291068
C   C66       1.0  0.41649  0.64189  0.31020  1.0000 -0.0083291068
C   C67       1.0  0.39181  0.58423  0.71490  1.0000 -0.1101463983
C   C68       1.0  0.41577  0.60819  0.21490  1.0000 -0.1101463983
C   C69       1.0  0.41849  0.63949  0.68300  1.0000 -0.1444929246
C   C70       1.0  0.36051  0.58151  0.18300  1.0000 -0.1444929246
C   C71       1.0  0.33309  0.52009  0.85210  1.0000 0.5473905649
C   C72       1.0  0.47991  0.66691  0.35210  1.0000 0.5473905649
C   C73       1.0  0.71516  0.58144  0.27930  1.0000 0.5811789598
C   C74       1.0  0.41856  0.28484  0.77930  1.0000 0.5811789598
C   C75       1.0  0.71462  0.57914  0.15770  1.0000 -0.0214608316
C   C76       1.0  0.42086  0.28538  0.65770  1.0000 -0.0214608316
C   C77       1.0  0.66604  0.62542  0.08950  1.0000 -0.1599247638
C   C78       1.0  0.37458  0.33396  0.58950  1.0000 -0.1599247638
C   C79       1.0  0.66495  0.62389  0.97400  1.0000 0.0804850768
C   C80       1.0  0.37611  0.33505  0.47400  1.0000 0.0804850768
C   C81       1.0  0.71688  0.57414  0.93130  1.0000 0.0804850768
C   C82       1.0  0.42586  0.28312  0.43130  1.0000 0.0804850768
C   C83       1.0  0.76627  0.52545  0.00500  1.0000 -0.1444929246
C   C84       1.0  0.47455  0.23373  0.50500  1.0000 -0.1498317644
C   C85       1.0  0.76530  0.52834  0.11540  1.0000 -0.1101463983
C   C86       1.0  0.47166  0.23470  0.61540  1.0000 -0.1154284406
C   C87       1.0  0.61618  0.67204  0.90020  1.0000 -0.1498317644
C   C88       1.0  0.32796  0.38382  0.40020  1.0000 -0.1498317644
C   C89       1.0  0.61691  0.67089  0.78990  1.0000 -0.1101463983
C   C90       1.0  0.32911  0.38309  0.28990  1.0000 -0.1101463983
C   C91       1.0  0.66921  0.62223  0.74760  1.0000 -0.0291413907
C   C92       1.0  0.37777  0.33079  0.24760  1.0000 -0.0291413907
C   C93       1.0  0.71720  0.57472  0.81770  1.0000 -0.1599247638
C   C94       1.0  0.42528  0.28280  0.31770  1.0000 -0.1599247638
C   C95       1.0  0.67051  0.62203  0.62760  1.0000 0.5811789598
C   C96       1.0  0.37797  0.32949  0.12760  1.0000 0.5811789598
C   C97       1.0  0.61543  0.04431  0.66480  1.0000 0.5811789598
C   C98       1.0  0.95569  0.38457  0.16480  1.0000 0.5811789598
C   C99       1.0  0.64647  0.10417  0.63700  1.0000 -0.0291413907
C   C100      1.0  0.89583  0.35353  0.13700  1.0000 -0.0291413907
C   C101      1.0  0.64686  0.15438  0.70800  1.0000 -0.1498317644
C   C102      1.0  0.84562  0.35314  0.20800  1.0000 -0.1498317644
C   C103      1.0  0.67309  0.21289  0.67980  1.0000 0.0804850768
C   C104      1.0  0.78711  0.32691  0.17980  1.0000 0.0804850768
C   C105      1.0  0.70025  0.21985  0.57920  1.0000 0.0804850768
C   C106      1.0  0.78015  0.29975  0.07920  1.0000 0.0804850768
C   C107      1.0  0.70168  0.16728  0.50870  1.0000 -0.1498317644
C   C108      1.0  0.83272  0.29832  0.00870  1.0000 -0.1498317644
C   C109      1.0  0.67496  0.11116  0.53630  1.0000 -0.1305291377
C   C110      1.0  0.88884  0.32504  0.03630  1.0000 -0.1305291377
C   C111      1.0  0.67063  0.26629  0.75070  1.0000 -0.1498317644
C   C112      1.0  0.73371  0.32937  0.25070  1.0000 -0.1498317644
C   C113      1.0  0.69609  0.32309  0.72200  1.0000 -0.1101463983
C   C114      1.0  0.67691  0.30391  0.22200  1.0000 -0.1101463983
C   C115      1.0  0.72448  0.33000  0.62240  1.0000 -0.0214608316
C   C116      1.0  0.67000  0.27552  0.12240  1.0000 -0.0214608316
C   C117      1.0  0.72539  0.28039  0.55260  1.0000 -0.1498317644
C   C118      1.0  0.71961  0.27461  0.05260  1.0000 -0.1498317644
C   C119      1.0  0.74530  0.39490  0.58690  1.0000 0.5397337523
C   C120      1.0  0.60510  0.25470  0.08690  1.0000 0.5397337523
N   N1        1.0  0.59413  0.87653  0.47360  1.0000 -0.1885984288
N   N2        1.0  0.12347  0.40587  0.97360  1.0000 -0.1885984288
N   N3        1.0  0.61426  0.76696  0.39150  1.0000 -0.1885984288
N   N4        1.0  0.23304  0.38574  0.89150  1.0000 -0.1885984288
N   N5        1.0  0.69175  0.84595  0.36620  1.0000 -0.1498317644
N   N6        1.0  0.15405  0.30825  0.86620  1.0000 -0.1498317644
N   N7        1.0  0.57566  0.87584  0.27600  1.0000 -0.1802151564
N   N8        1.0  0.12416  0.42434  0.77600  1.0000 -0.1802151564
N   N9        1.0  0.50191  0.03071  0.94800  1.0000 -0.1802151564
N   N10       1.0  0.96929  0.49809  0.44800  1.0000 -0.1885984288
N   N11       1.0  0.48247  0.14265  0.02620  1.0000 -0.1885984288
N   N12       1.0  0.85735  0.51753  0.52620  1.0000 -0.1885984288
N   N13       1.0  0.40942  0.06174  0.06560  1.0000 -0.1498317644
N   N14       1.0  0.93826  0.59058  0.56560  1.0000 -0.1498317644
N   N15       1.0  0.53135  0.03383  0.14300  1.0000 -0.1802151564
N   N16       1.0  0.96617  0.46865  0.64300  1.0000 -0.1802151564
O   O1        1.0  0.47719  0.99471  0.55280  1.0000 -0.5510634336
O   O2        1.0  0.00529  0.52281  0.05280  1.0000 -0.5510634336
O   O3        1.0  0.44846  0.04510  0.70470  1.0000 -0.5407204721
O   O4        1.0  0.95490  0.55154  0.20470  1.0000 -0.5407204721
O   O5        1.0  0.09332  0.38948  0.36810  1.0000 -0.5321583304
O   O6        1.0  0.61052  0.90668  0.86810  1.0000 -0.5321583304
O   O7        1.0  0.13501  0.35343  0.21560  1.0000 -0.5407204721
O   O8        1.0  0.64657  0.86499  0.71560  1.0000 -0.5407204721
O   O9        1.0  0.50652  0.86074  0.67040  1.0000 -0.5321583304
O   O10       1.0  0.13926  0.49348  0.17040  1.0000 -0.5321583304
O   O11       1.0  0.46976  0.91106  0.81770  1.0000 -0.5510634336
O   O12       1.0  0.08894  0.53024  0.31770  1.0000 -0.5510634336
O   O13       1.0  0.29193  0.52553  0.92490  1.0000 -0.5719657395
O   O14       1.0  0.47447  0.70807  0.42490  1.0000 -0.5719657395
O   O15       1.0  0.35655  0.46607  0.81310  1.0000 -0.5209610138
O   O16       1.0  0.53393  0.64345  0.31310  1.0000 -0.5209610138
O   O17       1.0  0.61525  0.00175  0.59590  1.0000 -0.5407204721
O   O18       1.0  0.99825  0.38475  0.09590  1.0000 -0.5407204721
O   O19       1.0  0.74830  0.52902  0.33853  1.0000 -0.5209610138
O   O20       1.0  0.47098  0.25170  0.83853  1.0000 -0.5209610138
O   O21       1.0  0.68326  0.63604  0.31433  1.0000 -0.5719657395
O   O22       1.0  0.36396  0.31674  0.81433  1.0000 -0.5719657395
O   O23       1.0  0.61581  0.65453  0.56959  1.0000 -0.5407204721
O   O24       1.0  0.34547  0.38419  0.06959  1.0000 -0.5407204721
O   O25       1.0  0.72551  0.59257  0.58990  1.0000 -0.5822737369
O   O26       1.0  0.40743  0.27449  0.08990  1.0000 -0.5822737369
O   O27       1.0  0.58959  0.04271  0.75410  1.0000 -0.5407204721
O   O28       1.0  0.95729  0.41041  0.25410  1.0000 -0.5407204721
O   O29       1.0  0.73910  0.44320  0.64910  1.0000 -0.5510634336
O   O30       1.0  0.55680  0.26090  0.14910  1.0000 -0.5510634336
O   O31       1.0  0.76369  0.40437  0.49440  1.0000 -0.5321583304
O   O32       1.0  0.59563  0.23631  0.99440  1.0000 -0.5209610138
