# DDEC6 charges by PACMAN v1.1 (https://github.com/mtap-research/PACMAN-charge/)
data_2011[CuW][ths]3[ASR]2
_chemical_formula_sum              "Cu12 H84 W4 C108 S12 Br4 N28"
_cell_length_a       19.2649
_cell_length_b       19.2649
_cell_length_c       30.23
_cell_angle_alpha    53.1325
_cell_angle_beta     126.867
_cell_angle_gamma    151.995

_symmetry_space_group_name_H-M    "P 1"
_symmetry_Int_Tables_number       1

loop_
  _symmetry_equiv_pos_as_xyz
  'x, y, z'

loop_
  _atom_site_type_symbol
  _atom_site_label
  _atom_site_symmetry_multiplicity
  _atom_site_fract_x
  _atom_site_fract_y
  _atom_site_fract_z
  _atom_site_occupancy
  _atom_site_charge
Cu  Cu1       1.0  0.62194  0.40818  0.95871  1.0000 0.4091660237
Cu  Cu2       1.0  0.59182  0.37806  0.45871  1.0000 0.4091660237
Cu  Cu3       1.0  0.77907  0.50325  0.87414  1.0000 0.3249706781
Cu  Cu4       1.0  0.49675  0.22093  0.37414  1.0000 0.3249706781
Cu  Cu5       1.0  0.69745  0.64631  0.82316  1.0000 0.3446849441
Cu  Cu6       1.0  0.35369  0.30255  0.32316  1.0000 0.3446849441
Cu  Cu7       1.0  0.40818  0.62194  0.54129  1.0000 0.4091660237
Cu  Cu8       1.0  0.37806  0.59182  0.04129  1.0000 0.4091660237
Cu  Cu9       1.0  0.50325  0.77907  0.62586  1.0000 0.3249706781
Cu  Cu10      1.0  0.22093  0.49675  0.12586  1.0000 0.3249706781
Cu  Cu11      1.0  0.64631  0.69745  0.67684  1.0000 0.3454813218
Cu  Cu12      1.0  0.30255  0.35369  0.17684  1.0000 0.3446849441
H   H1        1.0  0.94890  0.17950  0.29950  1.0000 0.1217244243
H   H2        1.0  0.82050  0.05110  0.79950  1.0000 0.1217244243
H   H3        1.0  0.77830  0.14910  0.26100  1.0000 0.1217244243
H   H4        1.0  0.85090  0.22170  0.76100  1.0000 0.1217244243
H   H5        1.0  0.49800  0.82460  0.18610  1.0000 0.1292753794
H   H6        1.0  0.17540  0.50200  0.68610  1.0000 0.1292753794
H   H7        1.0  0.67480  0.86660  0.21990  1.0000 0.1217244243
H   H8        1.0  0.13340  0.32520  0.71990  1.0000 0.1217244243
H   H9        1.0  0.13160  0.26120  0.28630  1.0000 0.1107468681
H   H10       1.0  0.73880  0.86840  0.78630  1.0000 0.1107468681
H   H11       1.0  0.03750  0.95270  0.32420  1.0000 0.1107468681
H   H12       1.0  0.04730  0.96250  0.82420  1.0000 0.1107468681
H   H13       1.0  0.96110  0.61730  0.99350  1.0000 0.1107468681
H   H14       1.0  0.38270  0.03890  0.49350  1.0000 0.1107468681
H   H15       1.0  0.10190  0.85770  0.85100  1.0000 0.1107468681
H   H16       1.0  0.14230  0.89810  0.35100  1.0000 0.1107468681
H   H17       1.0  0.32180  0.00960  0.92280  1.0000 0.1217244243
H   H18       1.0  0.99040  0.67820  0.42280  1.0000 0.1217244243
H   H19       1.0  0.44730  0.99450  0.01840  1.0000 0.1292753794
H   H20       1.0  0.00550  0.55270  0.51840  1.0000 0.1292753794
H   H21       1.0  0.10630  0.75010  0.06670  1.0000 0.1217244243
H   H22       1.0  0.24990  0.89370  0.56670  1.0000 0.1217244243
H   H23       1.0  0.25170  0.80530  0.15640  1.0000 0.1217244243
H   H24       1.0  0.19470  0.74830  0.65640  1.0000 0.1217244243
H   H25       1.0  0.60150  0.08630  0.09990  1.0000 0.1292753794
H   H26       1.0  0.91370  0.39850  0.59990  1.0000 0.1292753794
H   H27       1.0  0.41610  0.95310  0.44020  1.0000 0.1217244243
H   H28       1.0  0.04690  0.58390  0.94020  1.0000 0.1217244243
H   H29       1.0  0.53620  0.20740  0.29240  1.0000 0.0992179519
H   H30       1.0  0.79260  0.46380  0.79240  1.0000 0.0992179519
H   H31       1.0  0.39200  0.85320  0.39920  1.0000 0.1217244243
H   H32       1.0  0.14680  0.60800  0.89920  1.0000 0.1217244243
H   H33       1.0  0.49630  0.14870  0.22550  1.0000 0.1217244243
H   H34       1.0  0.85130  0.50370  0.72550  1.0000 0.1217244243
H   H35       1.0  0.46920  0.87740  0.35350  1.0000 0.1292753794
H   H36       1.0  0.12260  0.53080  0.85350  1.0000 0.1292753794
H   H37       1.0  0.48120  0.84820  0.29600  1.0000 0.1292753794
H   H38       1.0  0.15180  0.51880  0.79600  1.0000 0.1292753794
H   H39       1.0  0.50920  0.12020  0.16650  1.0000 0.1292753794
H   H40       1.0  0.87980  0.49080  0.66650  1.0000 0.1292753794
H   H41       1.0  0.80160  0.82760  0.30210  1.0000 0.1292753794
H   H42       1.0  0.17240  0.19840  0.80210  1.0000 0.1292753794
H   H43       1.0  0.17950  0.94890  0.20050  1.0000 0.1217244243
H   H44       1.0  0.05110  0.82050  0.70050  1.0000 0.1217244243
H   H45       1.0  0.14910  0.77830  0.23900  1.0000 0.1292753794
H   H46       1.0  0.22170  0.85090  0.73900  1.0000 0.1217244243
H   H47       1.0  0.82460  0.49800  0.31390  1.0000 0.1292753794
H   H48       1.0  0.50200  0.17540  0.81390  1.0000 0.1292753794
H   H49       1.0  0.86660  0.67480  0.28010  1.0000 0.1217244243
H   H50       1.0  0.32520  0.13340  0.78010  1.0000 0.1217244243
H   H51       1.0  0.26120  0.13160  0.21370  1.0000 0.1107468681
H   H52       1.0  0.86840  0.73880  0.71370  1.0000 0.1107468681
H   H53       1.0  0.95270  0.03750  0.17580  1.0000 0.1107468681
H   H54       1.0  0.96250  0.04730  0.67580  1.0000 0.1107468681
H   H55       1.0  0.61730  0.96110  0.50650  1.0000 0.1107468681
H   H56       1.0  0.03890  0.38270  0.00650  1.0000 0.1107468681
H   H57       1.0  0.85770  0.10190  0.64900  1.0000 0.1107468681
H   H58       1.0  0.89810  0.14230  0.14900  1.0000 0.1107468681
H   H59       1.0  0.00960  0.32180  0.57720  1.0000 0.1217244243
H   H60       1.0  0.67820  0.99040  0.07720  1.0000 0.1217244243
H   H61       1.0  0.99450  0.44730  0.48160  1.0000 0.1292753794
H   H62       1.0  0.55270  0.00550  0.98160  1.0000 0.1292753794
H   H63       1.0  0.75010  0.10630  0.43330  1.0000 0.1217244243
H   H64       1.0  0.89370  0.24990  0.93330  1.0000 0.1217244243
H   H65       1.0  0.80530  0.25170  0.34360  1.0000 0.1217244243
H   H66       1.0  0.74830  0.19470  0.84360  1.0000 0.1217244243
H   H67       1.0  0.08630  0.60150  0.40010  1.0000 0.1292753794
H   H68       1.0  0.39850  0.91370  0.90010  1.0000 0.1292753794
H   H69       1.0  0.95310  0.41610  0.05980  1.0000 0.1217244243
H   H70       1.0  0.58390  0.04690  0.55980  1.0000 0.1217244243
H   H71       1.0  0.20740  0.53620  0.20760  1.0000 0.0992179519
H   H72       1.0  0.46380  0.79260  0.70760  1.0000 0.0992179519
H   H73       1.0  0.85320  0.39200  0.10080  1.0000 0.1217244243
H   H74       1.0  0.60800  0.14680  0.60080  1.0000 0.1217244243
H   H75       1.0  0.14870  0.49630  0.27450  1.0000 0.1217244243
H   H76       1.0  0.50370  0.85130  0.77450  1.0000 0.1217244243
H   H77       1.0  0.87740  0.46920  0.14650  1.0000 0.1292753794
H   H78       1.0  0.53080  0.12260  0.64650  1.0000 0.1292753794
H   H79       1.0  0.84820  0.48120  0.20400  1.0000 0.1292753794
H   H80       1.0  0.51880  0.15180  0.70400  1.0000 0.1292753794
H   H81       1.0  0.12020  0.50920  0.33350  1.0000 0.1292753794
H   H82       1.0  0.49080  0.87980  0.83350  1.0000 0.1292753794
H   H83       1.0  0.82760  0.80160  0.19790  1.0000 0.1292753794
H   H84       1.0  0.19840  0.17240  0.69790  1.0000 0.1292753794
W   W1        1.0  0.52103  0.36447  0.85718  1.0000 0.6671822673
W   W2        1.0  0.63553  0.47897  0.35718  1.0000 0.6671822673
W   W3        1.0  0.36447  0.52103  0.64282  1.0000 0.6671822673
W   W4        1.0  0.47897  0.63553  0.14282  1.0000 0.6671822673
C   C1        1.0  0.62640  0.99280  0.21630  1.0000 0.1650877154
C   C2        1.0  0.00720  0.37360  0.71630  1.0000 0.1650877154
C   C3        1.0  0.85880  0.10940  0.27630  1.0000 -0.1684354999
C   C4        1.0  0.89060  0.14120  0.77630  1.0000 -0.1684354999
C   C5        1.0  0.75780  0.09260  0.25250  1.0000 -0.1684354999
C   C6        1.0  0.90740  0.24220  0.75250  1.0000 -0.1684354999
C   C7        1.0  0.59076  0.89984  0.20710  1.0000 -0.1684354999
C   C8        1.0  0.10016  0.40924  0.70710  1.0000 -0.1684354999
C   C9        1.0  0.82340  0.02020  0.26490  1.0000 0.1292753794
C   C10       1.0  0.97980  0.17660  0.76490  1.0000 0.1292753794
C   C11       1.0  0.69330  0.92050  0.22910  1.0000 -0.1546420934
C   C12       1.0  0.07950  0.30670  0.72910  1.0000 -0.1546420934
C   C13       1.0  0.07870  0.16810  0.29400  1.0000 0.0992179519
C   C14       1.0  0.83190  0.92130  0.79400  1.0000 0.0992179519
C   C15       1.0  0.02720  0.99900  0.31510  1.0000 -0.0305951791
C   C16       1.0  0.00100  0.97280  0.81510  1.0000 -0.0305951791
C   C17       1.0  0.02390  0.69570  0.96720  1.0000 0.0940668514
C   C18       1.0  0.30430  0.97610  0.46720  1.0000 0.0940668514
C   C19       1.0  0.10130  0.82770  0.88910  1.0000 -0.0536666078
C   C20       1.0  0.17230  0.89870  0.38910  1.0000 -0.0536666078
C   C21       1.0  0.22360  0.91260  0.92860  1.0000 -0.1267982455
C   C22       1.0  0.08740  0.77640  0.42860  1.0000 -0.1267982455
C   C23       1.0  0.26570  0.87090  0.03300  1.0000 0.1496839492
C   C24       1.0  0.12910  0.73430  0.53300  1.0000 0.1496839492
C   C25       1.0  0.40980  0.96320  0.04480  1.0000 -0.1406756186
C   C26       1.0  0.03680  0.59020  0.54480  1.0000 -0.1406756186
C   C27       1.0  0.20410  0.81190  0.07450  1.0000 -0.1627203633
C   C28       1.0  0.18810  0.79590  0.57450  1.0000 -0.1627203633
C   C29       1.0  0.29330  0.84810  0.12810  1.0000 -0.1792272373
C   C30       1.0  0.15190  0.70670  0.62810  1.0000 -0.1792272373
C   C31       1.0  0.49890  0.00970  0.09510  1.0000 -0.1684354999
C   C32       1.0  0.99030  0.50110  0.59510  1.0000 -0.1684354999
C   C33       1.0  0.44190  0.94610  0.14010  1.0000 0.1849133229
C   C34       1.0  0.05390  0.55810  0.64010  1.0000 0.1849133229
C   C35       1.0  0.50690  0.98910  0.22700  1.0000 0.1496839492
C   C36       1.0  0.01090  0.49310  0.72700  1.0000 0.1496839492
C   C37       1.0  0.43660  0.99160  0.40530  1.0000 -0.0536666078
C   C38       1.0  0.00840  0.56340  0.90530  1.0000 -0.0536666078
C   C39       1.0  0.50266  0.13154  0.32400  1.0000 0.0743003643
C   C40       1.0  0.86846  0.49734  0.82400  1.0000 0.0743003643
C   C41       1.0  0.42360  0.93620  0.38260  1.0000 -0.1083662541
C   C42       1.0  0.06380  0.57640  0.88260  1.0000 -0.1083662541
C   C43       1.0  0.47690  0.01290  0.29470  1.0000 0.1366219675
C   C44       1.0  0.98710  0.52310  0.79470  1.0000 0.1366219675
C   C45       1.0  0.49280  0.08760  0.23970  1.0000 -0.1939115369
C   C46       1.0  0.91240  0.50720  0.73970  1.0000 -0.1939115369
C   C47       1.0  0.47660  0.92600  0.31610  1.0000 -0.1684354999
C   C48       1.0  0.07400  0.52340  0.81610  1.0000 -0.1684354999
C   C49       1.0  0.48730  0.91150  0.28190  1.0000 -0.1627203633
C   C50       1.0  0.08850  0.51270  0.78190  1.0000 -0.1627203633
C   C51       1.0  0.50390  0.07370  0.20420  1.0000 -0.1684354999
C   C52       1.0  0.92630  0.49610  0.70420  1.0000 -0.1627203633
C   C53       1.0  0.89700  0.93000  0.30180  1.0000 -0.1152162453
C   C54       1.0  0.07000  0.10300  0.80180  1.0000 -0.1152162453
C   C55       1.0  0.99280  0.62640  0.28370  1.0000 0.1650877154
C   C56       1.0  0.37360  0.00720  0.78370  1.0000 0.1650877154
C   C57       1.0  0.10940  0.85880  0.22370  1.0000 -0.1684354999
C   C58       1.0  0.14120  0.89060  0.72370  1.0000 -0.1684354999
C   C59       1.0  0.09260  0.75780  0.24750  1.0000 -0.1684354999
C   C60       1.0  0.24220  0.90740  0.74750  1.0000 -0.1684354999
C   C61       1.0  0.89984  0.59076  0.29290  1.0000 -0.1684354999
C   C62       1.0  0.40924  0.10016  0.79290  1.0000 -0.1684354999
C   C63       1.0  0.02020  0.82340  0.23510  1.0000 0.1292753794
C   C64       1.0  0.17660  0.97980  0.73510  1.0000 0.1292753794
C   C65       1.0  0.92050  0.69330  0.27090  1.0000 -0.1546420934
C   C66       1.0  0.30670  0.07950  0.77090  1.0000 -0.1546420934
C   C67       1.0  0.16810  0.07870  0.20600  1.0000 0.0992179519
C   C68       1.0  0.92130  0.83190  0.70600  1.0000 0.0992179519
C   C69       1.0  0.99900  0.02720  0.18490  1.0000 -0.0305951791
C   C70       1.0  0.97280  0.00100  0.68490  1.0000 -0.0305951791
C   C71       1.0  0.69570  0.02390  0.53280  1.0000 0.0940668514
C   C72       1.0  0.97610  0.30430  0.03280  1.0000 0.0940668514
C   C73       1.0  0.82770  0.10130  0.61090  1.0000 -0.0536666078
C   C74       1.0  0.89870  0.17230  0.11090  1.0000 -0.0536666078
C   C75       1.0  0.91260  0.22360  0.57140  1.0000 -0.1267982455
C   C76       1.0  0.77640  0.08740  0.07140  1.0000 -0.1267982455
C   C77       1.0  0.87090  0.26570  0.46700  1.0000 0.1496839492
C   C78       1.0  0.73430  0.12910  0.96700  1.0000 0.1496839492
C   C79       1.0  0.96320  0.40980  0.45520  1.0000 -0.1406756186
C   C80       1.0  0.59020  0.03680  0.95520  1.0000 -0.1406756186
C   C81       1.0  0.81190  0.20410  0.42550  1.0000 -0.1627203633
C   C82       1.0  0.79590  0.18810  0.92550  1.0000 -0.1627203633
C   C83       1.0  0.84810  0.29330  0.37190  1.0000 -0.1792272373
C   C84       1.0  0.70670  0.15190  0.87190  1.0000 -0.1792272373
C   C85       1.0  0.00970  0.49890  0.40490  1.0000 -0.1792272373
C   C86       1.0  0.50110  0.99030  0.90490  1.0000 -0.1792272373
C   C87       1.0  0.94610  0.44190  0.35990  1.0000 0.1849133229
C   C88       1.0  0.55810  0.05390  0.85990  1.0000 0.1849133229
C   C89       1.0  0.98910  0.50690  0.27300  1.0000 0.1496839492
C   C90       1.0  0.49310  0.01090  0.77300  1.0000 0.1496839492
C   C91       1.0  0.99160  0.43660  0.09470  1.0000 -0.0536666078
C   C92       1.0  0.56340  0.00840  0.59470  1.0000 -0.0536666078
C   C93       1.0  0.13154  0.50266  0.17600  1.0000 0.0743003643
C   C94       1.0  0.49734  0.86846  0.67600  1.0000 0.0743003643
C   C95       1.0  0.93620  0.42360  0.11740  1.0000 -0.1083662541
C   C96       1.0  0.57640  0.06380  0.61740  1.0000 -0.1083662541
C   C97       1.0  0.01290  0.47690  0.20530  1.0000 0.1366219675
C   C98       1.0  0.52310  0.98710  0.70530  1.0000 0.1366219675
C   C99       1.0  0.08760  0.49280  0.26030  1.0000 -0.1939115369
C   C100      1.0  0.50720  0.91240  0.76030  1.0000 -0.1939115369
C   C101      1.0  0.92600  0.47660  0.18390  1.0000 -0.1684354999
C   C102      1.0  0.52340  0.07400  0.68390  1.0000 -0.1684354999
C   C103      1.0  0.91150  0.48730  0.21810  1.0000 -0.1627203633
C   C104      1.0  0.51270  0.08850  0.71810  1.0000 -0.1627203633
C   C105      1.0  0.07370  0.50390  0.29580  1.0000 -0.1684354999
C   C106      1.0  0.49610  0.92630  0.79580  1.0000 -0.1684354999
C   C107      1.0  0.93000  0.89700  0.19820  1.0000 -0.1152162453
C   C108      1.0  0.10300  0.07000  0.69820  1.0000 -0.1152162453
S   S1        1.0  0.61404  0.31040  0.93488  1.0000 -0.5420279497
S   S2        1.0  0.68960  0.38596  0.43488  1.0000 -0.5420279497
S   S3        1.0  0.67063  0.53933  0.79339  1.0000 -0.5632844263
S   S4        1.0  0.46067  0.32937  0.29339  1.0000 -0.5632844263
S   S5        1.0  0.53179  0.46405  0.88162  1.0000 -0.4883934105
S   S6        1.0  0.53595  0.46821  0.38162  1.0000 -0.4883934105
S   S7        1.0  0.31040  0.61404  0.56512  1.0000 -0.5420279497
S   S8        1.0  0.38596  0.68960  0.06512  1.0000 -0.5420279497
S   S9        1.0  0.53933  0.67063  0.70661  1.0000 -0.5632844263
S   S10       1.0  0.32937  0.46067  0.20661  1.0000 -0.5632844263
S   S11       1.0  0.46405  0.53179  0.61838  1.0000 -0.4883934105
S   S12       1.0  0.46821  0.53595  0.11838  1.0000 -0.4883934105
Br  Br1       1.0  0.70533  0.44593  0.04511  1.0000 -0.5160296404
Br  Br2       1.0  0.55407  0.29467  0.54511  1.0000 -0.5160296404
Br  Br3       1.0  0.44593  0.70533  0.45489  1.0000 -0.5160296404
Br  Br4       1.0  0.29467  0.55407  0.95489  1.0000 -0.5160296404
N   N1        1.0  0.97550  0.69090  0.91320  1.0000 -0.2480241837
N   N2        1.0  0.30910  0.02450  0.41320  1.0000 -0.2480241837
N   N3        1.0  0.17534  0.82726  0.98040  1.0000 -0.0007708279
N   N4        1.0  0.17274  0.82466  0.48040  1.0000 0.0013684925
N   N5        1.0  0.52825  0.98215  0.19240  1.0000 -0.1627203633
N   N6        1.0  0.01785  0.47175  0.69240  1.0000 -0.1627203633
N   N7        1.0  0.48690  0.11790  0.36630  1.0000 -0.2480241837
N   N8        1.0  0.88210  0.51310  0.86630  1.0000 -0.2480241837
N   N9        1.0  0.46592  0.02568  0.33050  1.0000 0.0013684925
N   N10       1.0  0.97432  0.53408  0.83050  1.0000 0.0013684925
N   N11       1.0  0.14135  0.14485  0.31340  1.0000 -0.21080549
N   N12       1.0  0.85515  0.85865  0.81340  1.0000 -0.21080549
N   N13       1.0  0.93183  0.04037  0.28770  1.0000 0.0013684925
N   N14       1.0  0.95963  0.06817  0.78770  1.0000 0.0013684925
N   N15       1.0  0.69090  0.97550  0.58680  1.0000 -0.2480241837
N   N16       1.0  0.02450  0.30910  0.08680  1.0000 -0.2480241837
N   N17       1.0  0.82726  0.17534  0.51960  1.0000 -0.0007708279
N   N18       1.0  0.82466  0.17274  0.01960  1.0000 -0.0007708279
N   N19       1.0  0.98215  0.52825  0.30760  1.0000 -0.1627203633
N   N20       1.0  0.47175  0.01785  0.80760  1.0000 -0.1627203633
N   N21       1.0  0.11790  0.48690  0.13370  1.0000 -0.2480241837
N   N22       1.0  0.51310  0.88210  0.63370  1.0000 -0.2480241837
N   N23       1.0  0.02568  0.46592  0.16950  1.0000 0.0013684925
N   N24       1.0  0.53408  0.97432  0.66950  1.0000 0.0013684925
N   N25       1.0  0.14485  0.14135  0.18660  1.0000 -0.21080549
N   N26       1.0  0.85865  0.85515  0.68660  1.0000 -0.21080549
N   N27       1.0  0.04037  0.93183  0.21230  1.0000 0.0013684925
N   N28       1.0  0.06817  0.95963  0.71230  1.0000 0.0013684925
