# DDEC6 charges by PACMAN v1.1 (https://github.com/mtap-research/PACMAN-charge/)
data_2011[Co][pts]3[ASR]1
_chemical_formula_sum              "Co8 H16 C80 O64"
_cell_length_a       18.8794
_cell_length_b       18.8794
_cell_length_c       18.8794
_cell_angle_alpha    128.945
_cell_angle_beta     128.945
_cell_angle_gamma    75.0996

_symmetry_space_group_name_H-M    "P 1"
_symmetry_Int_Tables_number       1

loop_
  _symmetry_equiv_pos_as_xyz
  'x, y, z'

loop_
  _atom_site_type_symbol
  _atom_site_label
  _atom_site_symmetry_multiplicity
  _atom_site_fract_x
  _atom_site_fract_y
  _atom_site_fract_z
  _atom_site_occupancy
  _atom_site_charge
Co  Co1       1.0  0.52931  0.97069  0.00000  1.0000 1.127043765
Co  Co2       1.0  0.97069  0.52931  0.00000  1.0000 1.127043765
Co  Co3       1.0  0.72069  0.22069  0.94138  1.0000 1.127043765
Co  Co4       1.0  0.27931  0.77931  0.05862  1.0000 1.127043765
Co  Co5       1.0  0.22069  0.27931  0.50000  1.0000 1.127043765
Co  Co6       1.0  0.77931  0.72069  0.50000  1.0000 1.127043765
Co  Co7       1.0  0.02931  0.02931  0.55862  1.0000 1.127043765
Co  Co8       1.0  0.47069  0.47069  0.44138  1.0000 1.127043765
H   H1        1.0  0.01580  0.87500  0.64080  1.0000 0.1316189132
H   H2        1.0  0.23420  0.37500  0.35920  1.0000 0.1316189132
H   H3        1.0  0.62500  0.48420  0.35920  1.0000 0.1316189132
H   H4        1.0  0.12500  0.26580  0.64080  1.0000 0.1316189132
H   H5        1.0  0.73420  0.37500  0.85920  1.0000 0.1316189132
H   H6        1.0  0.51580  0.87500  0.14080  1.0000 0.1316189132
H   H7        1.0  0.12500  0.76580  0.14080  1.0000 0.1316189132
H   H8        1.0  0.62500  0.98420  0.85920  1.0000 0.1316189132
H   H9        1.0  0.29700  0.87500  0.92200  1.0000 0.1458647065
H   H10       1.0  0.95300  0.37500  0.07800  1.0000 0.1458647065
H   H11       1.0  0.62500  0.20300  0.07800  1.0000 0.1458647065
H   H12       1.0  0.12500  0.54700  0.92200  1.0000 0.1458647065
H   H13       1.0  0.45300  0.37500  0.57800  1.0000 0.1458647065
H   H14       1.0  0.79700  0.87500  0.42200  1.0000 0.1458647065
H   H15       1.0  0.12500  0.04700  0.42200  1.0000 0.1458647065
H   H16       1.0  0.62500  0.70300  0.57800  1.0000 0.1458647065
C   C1        1.0  0.07300  0.87500  0.69800  1.0000 -0.089824674
C   C2        1.0  0.17700  0.37500  0.30200  1.0000 -0.089824674
C   C3        1.0  0.62500  0.42700  0.30200  1.0000 -0.089824674
C   C4        1.0  0.12500  0.32300  0.69800  1.0000 -0.089824674
C   C5        1.0  0.67700  0.37500  0.80200  1.0000 -0.089824674
C   C6        1.0  0.57300  0.87500  0.19800  1.0000 -0.089824674
C   C7        1.0  0.12500  0.82300  0.19800  1.0000 -0.089824674
C   C8        1.0  0.62500  0.92700  0.80200  1.0000 -0.089824674
C   C9        1.0  0.24005  0.90932  0.81799  1.0000 -0.0187654965
C   C10       1.0  0.09133  0.42206  0.18201  1.0000 -0.0187654965
C   C11       1.0  0.00995  0.32794  0.16927  1.0000 -0.0187654965
C   C12       1.0  0.15867  0.84068  0.83073  1.0000 -0.0187654965
C   C13       1.0  0.59068  0.25995  0.18201  1.0000 -0.0187654965
C   C14       1.0  0.07794  0.40867  0.81799  1.0000 -0.0187654965
C   C15       1.0  0.17206  0.49005  0.83073  1.0000 -0.0187654965
C   C16       1.0  0.65932  0.34133  0.16927  1.0000 -0.0187654965
C   C17       1.0  0.50995  0.34068  0.68201  1.0000 -0.0187654965
C   C18       1.0  0.65867  0.82794  0.31799  1.0000 -0.0187654965
C   C19       1.0  0.74005  0.92206  0.33073  1.0000 -0.0187654965
C   C20       1.0  0.59133  0.40932  0.66927  1.0000 -0.0187654965
C   C21       1.0  0.15932  0.99005  0.31799  1.0000 -0.0187654965
C   C22       1.0  0.67206  0.84133  0.68201  1.0000 -0.0187654965
C   C23       1.0  0.57794  0.75995  0.66927  1.0000 -0.0187654965
C   C24       1.0  0.09068  0.90867  0.33073  1.0000 -0.0187654965
C   C25       1.0  0.33347  0.94815  0.86620  1.0000 0.5597695913
C   C26       1.0  0.08195  0.46727  0.13380  1.0000 0.5597695913
C   C27       1.0  0.91653  0.28273  0.11468  1.0000 0.5597695913
C   C28       1.0  0.16805  0.80185  0.88532  1.0000 0.5597695913
C   C29       1.0  0.55185  0.16653  0.13380  1.0000 0.5597695913
C   C30       1.0  0.03273  0.41805  0.86620  1.0000 0.5597695913
C   C31       1.0  0.21727  0.58347  0.88532  1.0000 0.5597695913
C   C32       1.0  0.69815  0.33195  0.11468  1.0000 0.5597695913
C   C33       1.0  0.41653  0.30185  0.63380  1.0000 0.5597695913
C   C34       1.0  0.66805  0.78273  0.36620  1.0000 0.5597695913
C   C35       1.0  0.83347  0.96727  0.38532  1.0000 0.5597695913
C   C36       1.0  0.58195  0.44815  0.61468  1.0000 0.5597695913
C   C37       1.0  0.19815  0.08347  0.36620  1.0000 0.5597695913
C   C38       1.0  0.71727  0.83195  0.63380  1.0000 0.5597695913
C   C39       1.0  0.53273  0.66653  0.61468  1.0000 0.5597695913
C   C40       1.0  0.05185  0.91805  0.38532  1.0000 0.5597695913
C   C41       1.0  0.15398  0.90764  0.73018  1.0000 -0.0096567671
C   C42       1.0  0.17746  0.42380  0.26982  1.0000 -0.0096567671
C   C43       1.0  0.09602  0.32620  0.25366  1.0000 -0.0096567671
C   C44       1.0  0.07254  0.84236  0.74634  1.0000 -0.0096567671
C   C45       1.0  0.59236  0.34602  0.26982  1.0000 -0.0096567671
C   C46       1.0  0.07620  0.32254  0.73018  1.0000 -0.0096567671
C   C47       1.0  0.17380  0.40398  0.74634  1.0000 -0.0096567671
C   C48       1.0  0.65764  0.42746  0.25366  1.0000 -0.0096567671
C   C49       1.0  0.59602  0.34236  0.76982  1.0000 -0.0096567671
C   C50       1.0  0.57254  0.82620  0.23018  1.0000 -0.0096567671
C   C51       1.0  0.65398  0.92380  0.24634  1.0000 -0.0096567671
C   C52       1.0  0.67746  0.40764  0.75366  1.0000 -0.0096567671
C   C53       1.0  0.15764  0.90398  0.23018  1.0000 -0.0096567671
C   C54       1.0  0.67380  0.92746  0.76982  1.0000 -0.0096567671
C   C55       1.0  0.57620  0.84602  0.75366  1.0000 -0.0096567671
C   C56       1.0  0.09236  0.82254  0.24634  1.0000 -0.0096567671
C   C57       1.0  0.23990  0.87500  0.86490  1.0000 -0.0841745902
C   C58       1.0  0.01010  0.37500  0.13510  1.0000 -0.089824674
C   C59       1.0  0.62500  0.26010  0.13510  1.0000 -0.089824674
C   C60       1.0  0.12500  0.48990  0.86490  1.0000 -0.089824674
C   C61       1.0  0.51010  0.37500  0.63510  1.0000 -0.0841745902
C   C62       1.0  0.73990  0.87500  0.36490  1.0000 -0.0841745902
C   C63       1.0  0.12500  0.98990  0.36490  1.0000 -0.089824674
C   C64       1.0  0.62500  0.76010  0.63510  1.0000 -0.0841745902
C   C65       1.0  0.14203  0.93104  0.66019  1.0000 0.5597695913
C   C66       1.0  0.27085  0.48184  0.33981  1.0000 0.5597695913
C   C67       1.0  0.10797  0.26816  0.28901  1.0000 0.5597695913
C   C68       1.0  0.97915  0.81896  0.71099  1.0000 0.5597695913
C   C69       1.0  0.56896  0.35797  0.33981  1.0000 0.5597695913
C   C70       1.0  0.01816  0.22915  0.66019  1.0000 0.5597695913
C   C71       1.0  0.23184  0.39203  0.71099  1.0000 0.5597695913
C   C72       1.0  0.68104  0.52085  0.28901  1.0000 0.5597695913
C   C73       1.0  0.60797  0.31896  0.83981  1.0000 0.5597695913
C   C74       1.0  0.47915  0.76816  0.16019  1.0000 0.5597695913
C   C75       1.0  0.64203  0.98184  0.21099  1.0000 0.5597695913
C   C76       1.0  0.77085  0.43104  0.78901  1.0000 0.5597695913
C   C77       1.0  0.18104  0.89203  0.16019  1.0000 0.5597695913
C   C78       1.0  0.73184  0.02085  0.83981  1.0000 0.5597695913
C   C79       1.0  0.51816  0.85797  0.78901  1.0000 0.5597695913
C   C80       1.0  0.06896  0.72915  0.21099  1.0000 0.5597695913
O   O1        1.0  0.17260  0.88702  0.60610  1.0000 -0.3544355818
O   O2        1.0  0.28092  0.56650  0.39390  1.0000 -0.3544355818
O   O3        1.0  0.07740  0.18350  0.21442  1.0000 -0.3551762589
O   O4        1.0  0.96908  0.86298  0.78558  1.0000 -0.3544355818
O   O5        1.0  0.61298  0.32740  0.39390  1.0000 -0.3544355818
O   O6        1.0  0.93350  0.21908  0.60610  1.0000 -0.3544355818
O   O7        1.0  0.31650  0.42260  0.78558  1.0000 -0.3551762589
O   O8        1.0  0.63702  0.53092  0.21442  1.0000 -0.3544355818
O   O9        1.0  0.57740  0.36298  0.89390  1.0000 -0.3551762589
O   O10       1.0  0.46908  0.68350  0.10610  1.0000 -0.3544355818
O   O11       1.0  0.67260  0.06650  0.28558  1.0000 -0.3544355818
O   O12       1.0  0.78092  0.38702  0.71442  1.0000 -0.3544355818
O   O13       1.0  0.13702  0.92260  0.10610  1.0000 -0.3544355818
O   O14       1.0  0.81650  0.03092  0.89390  1.0000 -0.3544355818
O   O15       1.0  0.43350  0.82740  0.71442  1.0000 -0.3544355818
O   O16       1.0  0.11298  0.71908  0.28558  1.0000 -0.3551762589
O   O17       1.0  0.33939  0.00017  0.85106  1.0000 -0.3918395881
O   O18       1.0  0.14911  0.48833  0.14894  1.0000 -0.3918395881
O   O19       1.0  0.91061  0.26167  0.16078  1.0000 -0.3918395881
O   O20       1.0  0.10089  0.74983  0.83922  1.0000 -0.3918395881
O   O21       1.0  0.49983  0.16061  0.14894  1.0000 -0.3918395881
O   O22       1.0  0.01167  0.35089  0.85106  1.0000 -0.3918395881
O   O23       1.0  0.23833  0.58939  0.83922  1.0000 -0.3918395881
O   O24       1.0  0.75017  0.39911  0.16078  1.0000 -0.3918395881
O   O25       1.0  0.41061  0.24983  0.64894  1.0000 -0.3918395881
O   O26       1.0  0.60089  0.76167  0.35106  1.0000 -0.3918395881
O   O27       1.0  0.83939  0.98833  0.33922  1.0000 -0.3918395881
O   O28       1.0  0.64911  0.50017  0.66078  1.0000 -0.3918395881
O   O29       1.0  0.25017  0.08939  0.35106  1.0000 -0.3918395881
O   O30       1.0  0.73833  0.89911  0.64894  1.0000 -0.3918395881
O   O31       1.0  0.51167  0.66061  0.66078  1.0000 -0.3918395881
O   O32       1.0  0.99983  0.85089  0.33922  1.0000 -0.3918395881
O   O33       1.0  0.40226  0.92482  0.92524  1.0000 -0.4727358806
O   O34       1.0  0.99958  0.47702  0.07476  1.0000 -0.4799923646
O   O35       1.0  0.84774  0.27298  0.02256  1.0000 -0.4727358806
O   O36       1.0  0.25042  0.82518  0.97744  1.0000 -0.4799923646
O   O37       1.0  0.57518  0.09774  0.07476  1.0000 -0.4727358806
O   O38       1.0  0.02298  0.50042  0.92524  1.0000 -0.4799923646
O   O39       1.0  0.22702  0.65226  0.97744  1.0000 -0.4727358806
O   O40       1.0  0.67482  0.24958  0.02256  1.0000 -0.4727358806
O   O41       1.0  0.34774  0.32518  0.57476  1.0000 -0.4727358806
O   O42       1.0  0.75042  0.77298  0.42524  1.0000 -0.4799923646
O   O43       1.0  0.90226  0.97702  0.47744  1.0000 -0.4799923646
O   O44       1.0  0.49958  0.42482  0.52256  1.0000 -0.4799923646
O   O45       1.0  0.17482  0.15226  0.42524  1.0000 -0.4799923646
O   O46       1.0  0.72702  0.74958  0.57476  1.0000 -0.4727358806
O   O47       1.0  0.52298  0.59774  0.52256  1.0000 -0.4727358806
O   O48       1.0  0.07518  0.00042  0.47744  1.0000 -0.4727358806
O   O49       1.0  0.09409  0.99243  0.65884  1.0000 -0.4852026888
O   O50       1.0  0.33359  0.43525  0.34116  1.0000 -0.4799923646
O   O51       1.0  0.15591  0.31475  0.39834  1.0000 -0.4852026888
O   O52       1.0  0.91641  0.75757  0.60166  1.0000 -0.4799923646
O   O53       1.0  0.50757  0.40591  0.34116  1.0000 -0.4799923646
O   O54       1.0  0.06475  0.16641  0.65884  1.0000 -0.4852026888
O   O55       1.0  0.18525  0.34409  0.60166  1.0000 -0.4852026888
O   O56       1.0  0.74243  0.58359  0.39834  1.0000 -0.4799923646
O   O57       1.0  0.65591  0.25757  0.84116  1.0000 -0.4852026888
O   O58       1.0  0.41641  0.81475  0.15884  1.0000 -0.4799923646
O   O59       1.0  0.59409  0.93525  0.10166  1.0000 -0.4799923646
O   O60       1.0  0.83359  0.49243  0.89834  1.0000 -0.4852026888
O   O61       1.0  0.24243  0.84409  0.15884  1.0000 -0.4799923646
O   O62       1.0  0.68525  0.08359  0.84116  1.0000 -0.4799923646
O   O63       1.0  0.56475  0.90591  0.89834  1.0000 -0.4852026888
O   O64       1.0  0.00757  0.66641  0.10166  1.0000 -0.4852026888
