# DDEC6 charges by PACMAN v1.1 (https://github.com/mtap-research/PACMAN-charge/)
data_2011[Cd][nan]3[ASR]8
_chemical_formula_sum              "Cd12 H36 C114 O48 F36"
_cell_length_a       23.1896
_cell_length_b       23.1896
_cell_length_c       23.1896
_cell_angle_alpha    118.788
_cell_angle_beta     118.788
_cell_angle_gamma    118.788

_symmetry_space_group_name_H-M    "P 1"
_symmetry_Int_Tables_number       1

loop_
  _symmetry_equiv_pos_as_xyz
  'x, y, z'

loop_
  _atom_site_type_symbol
  _atom_site_label
  _atom_site_symmetry_multiplicity
  _atom_site_fract_x
  _atom_site_fract_y
  _atom_site_fract_z
  _atom_site_occupancy
  _atom_site_charge
Cd  Cd1       1.0  0.74614  0.18320  0.22191  1.0000 1.0857446333
Cd  Cd2       1.0  0.18320  0.22191  0.74614  1.0000 1.0845848461
Cd  Cd3       1.0  0.22191  0.74614  0.18320  1.0000 1.0845848461
Cd  Cd4       1.0  0.25386  0.81680  0.77809  1.0000 1.0845848461
Cd  Cd5       1.0  0.81680  0.77809  0.25386  1.0000 1.0857446333
Cd  Cd6       1.0  0.77809  0.25386  0.81680  1.0000 1.0845848461
Cd  Cd7       1.0  0.18308  0.58393  0.70520  1.0000 1.0459310949
Cd  Cd8       1.0  0.58393  0.70520  0.18308  1.0000 1.0459310949
Cd  Cd9       1.0  0.70520  0.18308  0.58393  1.0000 1.0459310949
Cd  Cd10      1.0  0.81692  0.41607  0.29480  1.0000 1.0459310949
Cd  Cd11      1.0  0.41607  0.29480  0.81692  1.0000 1.0459310949
Cd  Cd12      1.0  0.29480  0.81692  0.41607  1.0000 1.0459310949
H   H1        1.0  0.97010  0.36040  0.26940  1.0000 0.1355624587
H   H2        1.0  0.36040  0.26940  0.97010  1.0000 0.1355624587
H   H3        1.0  0.26940  0.97010  0.36040  1.0000 0.1355624587
H   H4        1.0  0.02990  0.63960  0.73060  1.0000 0.1355624587
H   H5        1.0  0.63960  0.73060  0.02990  1.0000 0.1355624587
H   H6        1.0  0.73060  0.02990  0.63960  1.0000 0.1355624587
H   H7        1.0  0.39660  0.63860  0.60390  1.0000 0.1112515531
H   H8        1.0  0.63860  0.60390  0.39660  1.0000 0.1112515531
H   H9        1.0  0.60390  0.39660  0.63860  1.0000 0.1112515531
H   H10       1.0  0.60340  0.36140  0.39610  1.0000 0.1112515531
H   H11       1.0  0.36140  0.39610  0.60340  1.0000 0.1112515531
H   H12       1.0  0.39610  0.60340  0.36140  1.0000 0.1112515531
H   H13       1.0  0.53620  0.83440  0.83190  1.0000 0.1223055263
H   H14       1.0  0.83440  0.83190  0.53620  1.0000 0.1223055263
H   H15       1.0  0.83190  0.53620  0.83440  1.0000 0.1223055263
H   H16       1.0  0.46380  0.16560  0.16810  1.0000 0.1223055263
H   H17       1.0  0.16560  0.16810  0.46380  1.0000 0.1223055263
H   H18       1.0  0.16810  0.46380  0.16560  1.0000 0.1223055263
H   H19       1.0  0.11360  0.48990  0.28410  1.0000 0.1223055263
H   H20       1.0  0.48990  0.28410  0.11360  1.0000 0.1223055263
H   H21       1.0  0.28410  0.11360  0.48990  1.0000 0.1223055263
H   H22       1.0  0.88640  0.51010  0.71590  1.0000 0.1223055263
H   H23       1.0  0.51010  0.71590  0.88640  1.0000 0.1223055263
H   H24       1.0  0.71590  0.88640  0.51010  1.0000 0.1223055263
H   H25       1.0  0.52620  0.88580  0.69390  1.0000 0.1263658245
H   H26       1.0  0.88580  0.69390  0.52620  1.0000 0.1263658245
H   H27       1.0  0.69390  0.52620  0.88580  1.0000 0.1263658245
H   H28       1.0  0.47380  0.11420  0.30610  1.0000 0.1263658245
H   H29       1.0  0.11420  0.30610  0.47380  1.0000 0.1263658245
H   H30       1.0  0.30610  0.47380  0.11420  1.0000 0.1263658245
H   H31       1.0  0.71450  0.99880  0.89510  1.0000 0.1112515531
H   H32       1.0  0.99880  0.89510  0.71450  1.0000 0.1112515531
H   H33       1.0  0.89510  0.71450  0.99880  1.0000 0.1112515531
H   H34       1.0  0.28550  0.00120  0.10490  1.0000 0.1112515531
H   H35       1.0  0.00120  0.10490  0.28550  1.0000 0.1112515531
H   H36       1.0  0.10490  0.28550  0.00120  1.0000 0.1112515531
C   C1        1.0  0.44446  0.85803  0.84931  1.0000 0.5884944737
C   C2        1.0  0.85803  0.84931  0.44446  1.0000 0.5884944737
C   C3        1.0  0.84931  0.44446  0.85803  1.0000 0.5884944737
C   C4        1.0  0.55554  0.14197  0.15069  1.0000 0.5884944737
C   C5        1.0  0.14197  0.15069  0.55554  1.0000 0.5884944737
C   C6        1.0  0.15069  0.55554  0.14197  1.0000 0.5884944737
C   C7        1.0  0.34342  0.72335  0.69263  1.0000 -0.0337892036
C   C8        1.0  0.72335  0.69263  0.34342  1.0000 -0.0337892036
C   C9        1.0  0.69263  0.34342  0.72335  1.0000 -0.0337892036
C   C10       1.0  0.65658  0.27665  0.30737  1.0000 -0.0337892036
C   C11       1.0  0.27665  0.30737  0.65658  1.0000 -0.0337892036
C   C12       1.0  0.30737  0.65658  0.27665  1.0000 -0.0337892036
C   C13       1.0  0.17201  0.57926  0.52213  1.0000 -0.0174705519
C   C14       1.0  0.57926  0.52213  0.17201  1.0000 -0.0174705519
C   C15       1.0  0.52213  0.17201  0.57926  1.0000 -0.0174705519
C   C16       1.0  0.82799  0.42074  0.47787  1.0000 -0.0174705519
C   C17       1.0  0.42074  0.47787  0.82799  1.0000 -0.0174705519
C   C18       1.0  0.47787  0.82799  0.42074  1.0000 -0.0174705519
C   C19       1.0  0.08593  0.45832  0.38355  1.0000 -0.1371755312
C   C20       1.0  0.45832  0.38355  0.08593  1.0000 -0.1371755312
C   C21       1.0  0.38355  0.08593  0.45832  1.0000 -0.1371755312
C   C22       1.0  0.91407  0.54168  0.61645  1.0000 -0.1371755312
C   C23       1.0  0.54168  0.61645  0.91407  1.0000 -0.1371755312
C   C24       1.0  0.61645  0.91407  0.54168  1.0000 -0.1371755312
C   C25       1.0  0.17135  0.48204  0.41361  1.0000 0.0864188338
C   C26       1.0  0.48204  0.41361  0.17135  1.0000 0.0864188338
C   C27       1.0  0.41361  0.17135  0.48204  1.0000 0.0864188338
C   C28       1.0  0.82865  0.51796  0.58639  1.0000 0.0864188338
C   C29       1.0  0.51796  0.58639  0.82865  1.0000 0.0864188338
C   C30       1.0  0.58639  0.82865  0.51796  1.0000 0.0864188338
C   C31       1.0  0.33935  0.62298  0.58227  1.0000 -0.1481387327
C   C32       1.0  0.62298  0.58227  0.33935  1.0000 -0.1481387327
C   C33       1.0  0.58227  0.33935  0.62298  1.0000 -0.1481387327
C   C34       1.0  0.66065  0.37702  0.41773  1.0000 -0.1481387327
C   C35       1.0  0.37702  0.41773  0.66065  1.0000 -0.1481387327
C   C36       1.0  0.41773  0.66065  0.37702  1.0000 -0.1481387327
C   C37       1.0  0.42364  0.74128  0.71958  1.0000 -0.0838120962
C   C38       1.0  0.74128  0.71958  0.42364  1.0000 -0.0838120962
C   C39       1.0  0.71958  0.42364  0.74128  1.0000 -0.0838120962
C   C40       1.0  0.57636  0.25872  0.28042  1.0000 -0.0838120962
C   C41       1.0  0.25872  0.28042  0.57636  1.0000 -0.0838120962
C   C42       1.0  0.28042  0.57636  0.25872  1.0000 -0.0838120962
C   C43       1.0  0.08211  0.55839  0.48530  1.0000 0.5884944737
C   C44       1.0  0.55839  0.48530  0.08211  1.0000 0.5884944737
C   C45       1.0  0.48530  0.08211  0.55839  1.0000 0.5884944737
C   C46       1.0  0.91789  0.44161  0.51470  1.0000 0.5884944737
C   C47       1.0  0.44161  0.51470  0.91789  1.0000 0.5884944737
C   C48       1.0  0.51470  0.91789  0.44161  1.0000 0.5884944737
C   C49       1.0  0.07252  0.34578  0.25720  1.0000 -0.2746277313
C   C50       1.0  0.34578  0.25720  0.07252  1.0000 -0.2746277313
C   C51       1.0  0.25720  0.07252  0.34578  1.0000 -0.2746277313
C   C52       1.0  0.92748  0.65422  0.74280  1.0000 -0.2746277313
C   C53       1.0  0.65422  0.74280  0.92748  1.0000 -0.2746277313
C   C54       1.0  0.74280  0.92748  0.65422  1.0000 -0.2746277313
C   C55       1.0  0.93622  0.25755  0.11273  1.0000 0.071212734
C   C56       1.0  0.25755  0.11273  0.93622  1.0000 0.071212734
C   C57       1.0  0.11273  0.93622  0.25755  1.0000 0.071212734
C   C58       1.0  0.06378  0.74245  0.88727  1.0000 0.071212734
C   C59       1.0  0.74245  0.88727  0.06378  1.0000 0.071212734
C   C60       1.0  0.88727  0.06378  0.74245  1.0000 0.071212734
C   C61       1.0  0.99589  0.36753  0.16418  1.0000 -0.1481387327
C   C62       1.0  0.36753  0.16418  0.99589  1.0000 -0.1481387327
C   C63       1.0  0.16418  0.99589  0.36753  1.0000 -0.1481387327
C   C64       1.0  0.00411  0.63247  0.83582  1.0000 -0.1481387327
C   C65       1.0  0.63247  0.83582  0.00411  1.0000 -0.1371755312
C   C66       1.0  0.83582  0.00411  0.63247  1.0000 -0.1481387327
C   C67       1.0  0.88574  0.30127  0.04269  1.0000 -0.0387704488
C   C68       1.0  0.30127  0.04269  0.88574  1.0000 -0.0387704488
C   C69       1.0  0.04269  0.88574  0.30127  1.0000 -0.0387704488
C   C70       1.0  0.11426  0.69873  0.95731  1.0000 -0.0387704488
C   C71       1.0  0.69873  0.95731  0.11426  1.0000 -0.0387704488
C   C72       1.0  0.95731  0.11426  0.69873  1.0000 -0.0387704488
C   C73       1.0  0.70704  0.11886  0.86440  1.0000 -0.0174705519
C   C74       1.0  0.11886  0.86440  0.70704  1.0000 -0.0174705519
C   C75       1.0  0.86440  0.70704  0.11886  1.0000 -0.0174705519
C   C76       1.0  0.29296  0.88114  0.13560  1.0000 -0.0174705519
C   C77       1.0  0.88114  0.13560  0.29296  1.0000 -0.0174705519
C   C78       1.0  0.13560  0.29296  0.88114  1.0000 -0.0174705519
C   C79       1.0  0.64566  0.00820  0.81264  1.0000 -0.0952029983
C   C80       1.0  0.00820  0.81264  0.64566  1.0000 -0.0952029983
C   C81       1.0  0.81264  0.64566  0.00820  1.0000 -0.0952029983
C   C82       1.0  0.35434  0.99180  0.18736  1.0000 -0.0952029983
C   C83       1.0  0.99180  0.18736  0.35434  1.0000 -0.0952029983
C   C84       1.0  0.18736  0.35434  0.99180  1.0000 -0.0952029983
C   C85       1.0  0.75878  0.07644  0.93428  1.0000 -0.1371755312
C   C86       1.0  0.07644  0.93428  0.75878  1.0000 -0.1371755312
C   C87       1.0  0.93428  0.75878  0.07644  1.0000 -0.1371755312
C   C88       1.0  0.24122  0.92356  0.06572  1.0000 -0.1371755312
C   C89       1.0  0.92356  0.06572  0.24122  1.0000 -0.1371755312
C   C90       1.0  0.06572  0.24122  0.92356  1.0000 -0.1371755312
C   C91       1.0  0.96685  0.43375  0.11320  1.0000 0.5884944737
C   C92       1.0  0.43375  0.11320  0.96685  1.0000 0.5884944737
C   C93       1.0  0.11320  0.96685  0.43375  1.0000 0.5884944737
C   C94       1.0  0.03315  0.56625  0.88680  1.0000 0.5884944737
C   C95       1.0  0.56625  0.88680  0.03315  1.0000 0.5884944737
C   C96       1.0  0.88680  0.03315  0.56625  1.0000 0.5884944737
C   C97       1.0  0.57158  0.02926  0.71986  1.0000 0.5799813608
C   C98       1.0  0.02926  0.71986  0.57158  1.0000 0.5799813608
C   C99       1.0  0.71986  0.57158  0.02926  1.0000 0.5799813608
C   C100      1.0  0.42842  0.97074  0.28014  1.0000 0.5799813608
C   C101      1.0  0.97074  0.28014  0.42842  1.0000 0.5799813608
C   C102      1.0  0.28014  0.42842  0.97074  1.0000 0.5799813608
C   C103      1.0  0.20535  0.43695  0.32180  1.0000 0.6651315828
C   C104      1.0  0.43695  0.32180  0.20535  1.0000 0.6651315828
C   C105      1.0  0.32180  0.20535  0.43695  1.0000 0.6651315828
C   C106      1.0  0.79465  0.56305  0.67820  1.0000 0.6651315828
C   C107      1.0  0.56305  0.67820  0.79465  1.0000 0.6651315828
C   C108      1.0  0.67820  0.79465  0.56305  1.0000 0.6651315828
C   C109      1.0  0.98650  0.21026  0.18594  1.0000 0.6612156769
C   C110      1.0  0.21026  0.18594  0.98650  1.0000 0.6612156769
C   C111      1.0  0.18594  0.98650  0.21026  1.0000 0.6612156769
C   C112      1.0  0.01350  0.78974  0.81406  1.0000 0.6612156769
C   C113      1.0  0.78974  0.81406  0.01350  1.0000 0.6612156769
C   C114      1.0  0.81406  0.01350  0.78974  1.0000 0.6612156769
O   O1        1.0  0.35896  0.80818  0.82386  1.0000 -0.6399789512
O   O2        1.0  0.80818  0.82386  0.35896  1.0000 -0.6399789512
O   O3        1.0  0.82386  0.35896  0.80818  1.0000 -0.6399789512
O   O4        1.0  0.64104  0.19182  0.17614  1.0000 -0.6399789512
O   O5        1.0  0.19182  0.17614  0.64104  1.0000 -0.6399789512
O   O6        1.0  0.17614  0.64104  0.19182  1.0000 -0.6399789512
O   O7        1.0  0.60992  0.01226  0.99912  1.0000 -0.5082409938
O   O8        1.0  0.01226  0.99912  0.60992  1.0000 -0.5082409938
O   O9        1.0  0.99912  0.60992  0.01226  1.0000 -0.5082409938
O   O10       1.0  0.39008  0.98774  0.00088  1.0000 -0.5082409938
O   O11       1.0  0.98774  0.00088  0.39008  1.0000 -0.5082409938
O   O12       1.0  0.00088  0.39008  0.98774  1.0000 -0.5082409938
O   O13       1.0  0.16441  0.68864  0.58325  1.0000 -0.5496400008
O   O14       1.0  0.68864  0.58325  0.16441  1.0000 -0.5496400008
O   O15       1.0  0.58325  0.16441  0.68864  1.0000 -0.5496400008
O   O16       1.0  0.83559  0.31136  0.41675  1.0000 -0.5496400008
O   O17       1.0  0.31136  0.41675  0.83559  1.0000 -0.5496400008
O   O18       1.0  0.41675  0.83559  0.31136  1.0000 -0.5496400008
O   O19       1.0  0.92029  0.40617  0.34964  1.0000 -0.5821709096
O   O20       1.0  0.40617  0.34964  0.92029  1.0000 -0.5821709096
O   O21       1.0  0.34964  0.92029  0.40617  1.0000 -0.5821709096
O   O22       1.0  0.07971  0.59383  0.65036  1.0000 -0.5821709096
O   O23       1.0  0.59383  0.65036  0.07971  1.0000 -0.5821709096
O   O24       1.0  0.65036  0.07971  0.59383  1.0000 -0.5821709096
O   O25       1.0  0.13023  0.59444  0.27753  1.0000 -0.5316008985
O   O26       1.0  0.59444  0.27753  0.13023  1.0000 -0.5316008985
O   O27       1.0  0.27753  0.13023  0.59444  1.0000 -0.5316008985
O   O28       1.0  0.86977  0.40556  0.72247  1.0000 -0.5316008985
O   O29       1.0  0.40556  0.72247  0.86977  1.0000 -0.5316008985
O   O30       1.0  0.72247  0.86977  0.40556  1.0000 -0.5316008985
O   O31       1.0  0.87193  0.37928  0.00849  1.0000 -0.5496400008
O   O32       1.0  0.37928  0.00849  0.87193  1.0000 -0.5496400008
O   O33       1.0  0.00849  0.87193  0.37928  1.0000 -0.5496400008
O   O34       1.0  0.12807  0.62072  0.99151  1.0000 -0.5496400008
O   O35       1.0  0.62072  0.99151  0.12807  1.0000 -0.5496400008
O   O36       1.0  0.99151  0.12807  0.62072  1.0000 -0.5496400008
O   O37       1.0  0.46394  0.96633  0.66063  1.0000 -0.4618165255
O   O38       1.0  0.96633  0.66063  0.46394  1.0000 -0.4618165255
O   O39       1.0  0.66063  0.46394  0.96633  1.0000 -0.4618165255
O   O40       1.0  0.53606  0.03367  0.33937  1.0000 -0.4618165255
O   O41       1.0  0.03367  0.33937  0.53606  1.0000 -0.4618165255
O   O42       1.0  0.33937  0.53606  0.03367  1.0000 -0.4618165255
O   O43       1.0  0.56231  0.00670  0.65029  1.0000 -0.6029993057
O   O44       1.0  0.00670  0.65029  0.56231  1.0000 -0.6029993057
O   O45       1.0  0.65029  0.56231  0.00670  1.0000 -0.6029993057
O   O46       1.0  0.43769  0.99330  0.34971  1.0000 -0.6029993057
O   O47       1.0  0.99330  0.34971  0.43769  1.0000 -0.6029993057
O   O48       1.0  0.34971  0.43769  0.99330  1.0000 -0.6029993057
F   F1        1.0  0.12279  0.33495  0.18776  1.0000 -0.1908498549
F   F2        1.0  0.33495  0.18776  0.12279  1.0000 -0.1908498549
F   F3        1.0  0.18776  0.12279  0.33495  1.0000 -0.1908498549
F   F4        1.0  0.87721  0.66505  0.81224  1.0000 -0.1908498549
F   F5        1.0  0.66505  0.81224  0.87721  1.0000 -0.1908498549
F   F6        1.0  0.81224  0.87721  0.66505  1.0000 -0.1908498549
F   F7        1.0  0.30234  0.47854  0.41152  1.0000 -0.1908498549
F   F8        1.0  0.47854  0.41152  0.30234  1.0000 -0.1908498549
F   F9        1.0  0.41152  0.30234  0.47854  1.0000 -0.1908498549
F   F10       1.0  0.69766  0.52146  0.58848  1.0000 -0.1908498549
F   F11       1.0  0.52146  0.58848  0.69766  1.0000 -0.1908498549
F   F12       1.0  0.58848  0.69766  0.52146  1.0000 -0.1908498549
F   F13       1.0  0.32136  0.58924  0.43120  1.0000 -0.1822213975
F   F14       1.0  0.58924  0.43120  0.32136  1.0000 -0.1822213975
F   F15       1.0  0.43120  0.32136  0.58924  1.0000 -0.1822213975
F   F16       1.0  0.67864  0.41076  0.56880  1.0000 -0.1822213975
F   F17       1.0  0.41076  0.56880  0.67864  1.0000 -0.1822213975
F   F18       1.0  0.56880  0.67864  0.41076  1.0000 -0.1822213975
F   F19       1.0  0.91248  0.09594  0.06168  1.0000 -0.1963637332
F   F20       1.0  0.09594  0.06168  0.91248  1.0000 -0.1963637332
F   F21       1.0  0.06168  0.91248  0.09594  1.0000 -0.1963637332
F   F22       1.0  0.08752  0.90406  0.93832  1.0000 -0.1963637332
F   F23       1.0  0.90406  0.93832  0.08752  1.0000 -0.1963637332
F   F24       1.0  0.93832  0.08752  0.90406  1.0000 -0.1963637332
F   F25       1.0  0.10199  0.28695  0.31266  1.0000 -0.1908498549
F   F26       1.0  0.28695  0.31266  0.10199  1.0000 -0.1908498549
F   F27       1.0  0.31266  0.10199  0.28695  1.0000 -0.1908498549
F   F28       1.0  0.89801  0.71305  0.68734  1.0000 -0.1908498549
F   F29       1.0  0.71305  0.68734  0.89801  1.0000 -0.1908498549
F   F30       1.0  0.68734  0.89801  0.71305  1.0000 -0.1908498549
F   F31       1.0  0.85966  0.11681  0.11403  1.0000 -0.1822213975
F   F32       1.0  0.11681  0.11403  0.85966  1.0000 -0.1822213975
F   F33       1.0  0.11403  0.85966  0.11681  1.0000 -0.1822213975
F   F34       1.0  0.14034  0.88319  0.88597  1.0000 -0.1822213975
F   F35       1.0  0.88319  0.88597  0.14034  1.0000 -0.1822213975
F   F36       1.0  0.88597  0.14034  0.88319  1.0000 -0.1822213975
