# DDEC6 charges by PACMAN v1.1 (https://github.com/mtap-research/PACMAN-charge/)
data_2011[Mg][nan]3[ASR]1
_chemical_formula_sum              "Mg12 H36 C84 N12 O48"
_cell_length_a       12.3475
_cell_length_b       11.1929
_cell_length_c       29.4296
_cell_angle_alpha    90
_cell_angle_beta     105.678
_cell_angle_gamma    90

_symmetry_space_group_name_H-M    "P 1"
_symmetry_Int_Tables_number       1

loop_
  _symmetry_equiv_pos_as_xyz
  'x, y, z'

loop_
  _atom_site_type_symbol
  _atom_site_label
  _atom_site_symmetry_multiplicity
  _atom_site_fract_x
  _atom_site_fract_y
  _atom_site_fract_z
  _atom_site_occupancy
  _atom_site_charge
Mg  Mg1       1.0  0.52281  0.82673  0.85988  1.0000 1.2932661818
Mg  Mg2       1.0  0.47719  0.32673  0.64012  1.0000 1.2932661818
Mg  Mg3       1.0  0.47719  0.17327  0.14012  1.0000 1.2932661818
Mg  Mg4       1.0  0.52281  0.67327  0.35988  1.0000 1.2932661818
Mg  Mg5       1.0  0.28050  0.54225  0.83391  1.0000 1.3914419757
Mg  Mg6       1.0  0.71950  0.04225  0.66609  1.0000 1.3914419757
Mg  Mg7       1.0  0.71950  0.45775  0.16609  1.0000 1.3914419757
Mg  Mg8       1.0  0.28050  0.95775  0.33391  1.0000 1.3914419757
Mg  Mg9       1.0  0.86898  0.71020  0.14158  1.0000 1.2564542935
Mg  Mg10      1.0  0.13102  0.21020  0.35842  1.0000 1.2564542935
Mg  Mg11      1.0  0.13102  0.28980  0.85842  1.0000 1.2564542935
Mg  Mg12      1.0  0.86898  0.78980  0.64158  1.0000 1.2564542935
H   H1        1.0  0.38390  0.48400  0.71590  1.0000 0.111297992
H   H2        1.0  0.61610  0.98400  0.78410  1.0000 0.111297992
H   H3        1.0  0.61610  0.51600  0.28410  1.0000 0.111297992
H   H4        1.0  0.38390  0.01600  0.21590  1.0000 0.111297992
H   H5        1.0  0.53800  0.80590  0.73360  1.0000 0.1289298729
H   H6        1.0  0.46200  0.30590  0.76640  1.0000 0.1289298729
H   H7        1.0  0.46200  0.19410  0.26640  1.0000 0.1289298729
H   H8        1.0  0.53800  0.69410  0.23360  1.0000 0.1289298729
H   H9        1.0  0.58790  0.56730  0.63870  1.0000 0.1028066845
H   H10       1.0  0.41210  0.06730  0.86130  1.0000 0.1028066845
H   H11       1.0  0.41210  0.43270  0.36130  1.0000 0.1028066845
H   H12       1.0  0.58790  0.93270  0.13870  1.0000 0.1028066845
H   H13       1.0  0.66980  0.65640  0.98540  1.0000 0.1289298729
H   H14       1.0  0.33020  0.15640  0.51460  1.0000 0.1289298729
H   H15       1.0  0.33020  0.34360  0.01460  1.0000 0.1289298729
H   H16       1.0  0.66980  0.84360  0.48540  1.0000 0.1289298729
H   H17       1.0  0.51030  0.35040  0.93520  1.0000 0.111297992
H   H18       1.0  0.48970  0.85040  0.56480  1.0000 0.111297992
H   H19       1.0  0.48970  0.64960  0.06480  1.0000 0.111297992
H   H20       1.0  0.51030  0.14960  0.43520  1.0000 0.111297992
H   H21       1.0  0.71150  0.35510  0.06350  1.0000 0.111297992
H   H22       1.0  0.28850  0.85510  0.43650  1.0000 0.111297992
H   H23       1.0  0.28850  0.64490  0.93650  1.0000 0.111297992
H   H24       1.0  0.71150  0.14490  0.56350  1.0000 0.111297992
H   H25       1.0  0.23620  0.03390  0.88380  1.0000 0.1155531732
H   H26       1.0  0.76380  0.53390  0.61620  1.0000 0.1155531732
H   H27       1.0  0.76380  0.96610  0.11620  1.0000 0.1155531732
H   H28       1.0  0.23620  0.46610  0.38380  1.0000 0.1155531732
H   H29       1.0  0.10010  0.79950  0.78020  1.0000 0.1371717834
H   H30       1.0  0.89990  0.29950  0.71980  1.0000 0.1371717834
H   H31       1.0  0.89990  0.20050  0.21980  1.0000 0.1371717834
H   H32       1.0  0.10010  0.70050  0.28020  1.0000 0.1371717834
H   H33       1.0  0.96680  0.12800  0.78430  1.0000 0.1155531732
H   H34       1.0  0.03320  0.62800  0.71570  1.0000 0.1155531732
H   H35       1.0  0.03320  0.87200  0.21570  1.0000 0.1155531732
H   H36       1.0  0.96680  0.37200  0.28430  1.0000 0.1155531732
C   C1        1.0  0.43372  0.53930  0.70762  1.0000 0.0751571478
C   C2        1.0  0.56628  0.03930  0.79238  1.0000 0.0712681266
C   C3        1.0  0.56628  0.46070  0.29238  1.0000 0.0751571478
C   C4        1.0  0.43372  0.96070  0.20762  1.0000 0.0712681266
C   C5        1.0  0.45201  0.64940  0.73091  1.0000 -0.0693640828
C   C6        1.0  0.54799  0.14940  0.76909  1.0000 -0.0693640828
C   C7        1.0  0.54799  0.35060  0.26909  1.0000 -0.0693640828
C   C8        1.0  0.45201  0.85060  0.23091  1.0000 -0.0693640828
C   C9        1.0  0.52407  0.73030  0.71847  1.0000 -0.0602587292
C   C10       1.0  0.47593  0.23030  0.78153  1.0000 -0.0602587292
C   C11       1.0  0.47593  0.26970  0.28153  1.0000 -0.0602587292
C   C12       1.0  0.52407  0.76970  0.21847  1.0000 -0.0602587292
C   C13       1.0  0.57580  0.69959  0.68358  1.0000 -0.0693640828
C   C14       1.0  0.42420  0.19959  0.81642  1.0000 -0.0693640828
C   C15       1.0  0.42420  0.30041  0.31642  1.0000 -0.0693640828
C   C16       1.0  0.57580  0.80041  0.18358  1.0000 -0.0693640828
C   C17       1.0  0.55265  0.58810  0.66255  1.0000 0.0712681266
C   C18       1.0  0.44735  0.08810  0.83745  1.0000 0.0712681266
C   C19       1.0  0.44735  0.41190  0.33745  1.0000 0.0712681266
C   C20       1.0  0.55265  0.91190  0.16255  1.0000 0.0712681266
C   C21       1.0  0.40215  0.67560  0.77129  1.0000 0.6324880517
C   C22       1.0  0.59785  0.17560  0.72871  1.0000 0.6324880517
C   C23       1.0  0.59785  0.32440  0.22871  1.0000 0.6324880517
C   C24       1.0  0.40215  0.82440  0.27129  1.0000 0.6324880517
C   C25       1.0  0.27493  0.81564  0.85737  1.0000 0.6324880517
C   C26       1.0  0.72507  0.31564  0.64263  1.0000 0.6324880517
C   C27       1.0  0.72507  0.18436  0.14263  1.0000 0.6324880517
C   C28       1.0  0.27493  0.68436  0.35737  1.0000 0.6324880517
C   C29       1.0  0.51666  0.57540  0.90762  1.0000 0.6410335646
C   C30       1.0  0.48334  0.07540  0.59238  1.0000 0.6410335646
C   C31       1.0  0.48334  0.42460  0.09238  1.0000 0.6410335646
C   C32       1.0  0.51666  0.92460  0.40762  1.0000 0.6410335646
C   C33       1.0  0.77050  0.58540  0.07310  1.0000 0.6103810969
C   C34       1.0  0.22950  0.08540  0.42690  1.0000 0.6103810969
C   C35       1.0  0.22950  0.41460  0.92690  1.0000 0.6103810969
C   C36       1.0  0.77050  0.91460  0.57310  1.0000 0.6103810969
C   C37       1.0  0.70034  0.51630  0.03154  1.0000 -0.0693640828
C   C38       1.0  0.29966  0.01630  0.46846  1.0000 -0.0693640828
C   C39       1.0  0.29966  0.48370  0.96846  1.0000 -0.0693640828
C   C40       1.0  0.70034  0.98370  0.53154  1.0000 -0.0693640828
C   C41       1.0  0.65249  0.57500  0.98928  1.0000 -0.0602587292
C   C42       1.0  0.34751  0.07500  0.51072  1.0000 -0.0602587292
C   C43       1.0  0.34751  0.42500  0.01072  1.0000 -0.0602587292
C   C44       1.0  0.65249  0.92500  0.48928  1.0000 -0.0602587292
C   C45       1.0  0.57916  0.51350  0.95275  1.0000 -0.0768438038
C   C46       1.0  0.42084  0.01350  0.54725  1.0000 -0.0768438038
C   C47       1.0  0.42084  0.48650  0.04725  1.0000 -0.0768438038
C   C48       1.0  0.57916  0.98650  0.45275  1.0000 -0.0768438038
C   C49       1.0  0.56100  0.39290  0.95990  1.0000 0.0531805157
C   C50       1.0  0.43900  0.89290  0.54010  1.0000 0.0531805157
C   C51       1.0  0.43900  0.60710  0.04010  1.0000 0.0531805157
C   C52       1.0  0.56100  0.10710  0.45990  1.0000 0.0531805157
C   C53       1.0  0.67764  0.39550  0.03474  1.0000 0.0640669263
C   C54       1.0  0.32236  0.89550  0.46526  1.0000 0.0640669263
C   C55       1.0  0.32236  0.60450  0.96526  1.0000 0.0640669263
C   C56       1.0  0.67764  0.10450  0.53474  1.0000 0.0640669263
C   C57       1.0  0.65985  0.78154  0.67110  1.0000 0.6103810969
C   C58       1.0  0.34015  0.28154  0.82890  1.0000 0.6103810969
C   C59       1.0  0.34015  0.21846  0.32890  1.0000 0.6150994943
C   C60       1.0  0.65985  0.71846  0.17110  1.0000 0.6103810969
C   C61       1.0  0.93758  0.94451  0.72703  1.0000 0.6324880517
C   C62       1.0  0.06242  0.44451  0.77297  1.0000 0.6324880517
C   C63       1.0  0.06242  0.05549  0.27297  1.0000 0.6324880517
C   C64       1.0  0.93758  0.55549  0.22703  1.0000 0.6324880517
C   C65       1.0  0.02194  0.96232  0.77425  1.0000 -0.0693640828
C   C66       1.0  0.97806  0.46232  0.72575  1.0000 -0.0693640828
C   C67       1.0  0.97806  0.03768  0.22575  1.0000 -0.0693640828
C   C68       1.0  0.02194  0.53768  0.27425  1.0000 -0.0693640828
C   C69       1.0  0.17941  0.01481  0.85589  1.0000 0.0712681266
C   C70       1.0  0.82059  0.51481  0.64411  1.0000 0.0712681266
C   C71       1.0  0.82059  0.98519  0.14411  1.0000 0.0640669263
C   C72       1.0  0.17941  0.48519  0.35589  1.0000 0.0640669263
C   C73       1.0  0.18225  0.90338  0.83595  1.0000 -0.0768438038
C   C74       1.0  0.81775  0.40338  0.66405  1.0000 -0.0768438038
C   C75       1.0  0.81775  0.09662  0.16405  1.0000 -0.0768438038
C   C76       1.0  0.18225  0.59662  0.33595  1.0000 -0.0768438038
C   C77       1.0  0.10126  0.87577  0.79445  1.0000 -0.0602587292
C   C78       1.0  0.89874  0.37577  0.70555  1.0000 -0.0602587292
C   C79       1.0  0.89874  0.12423  0.20555  1.0000 -0.0602587292
C   C80       1.0  0.10126  0.62423  0.29445  1.0000 -0.0602587292
C   C81       1.0  0.02328  0.07070  0.79757  1.0000 0.0712681266
C   C82       1.0  0.97672  0.57070  0.70243  1.0000 0.0712681266
C   C83       1.0  0.97672  0.92930  0.20243  1.0000 0.0712681266
C   C84       1.0  0.02328  0.42930  0.29757  1.0000 0.0712681266
N   N1        1.0  0.48350  0.50816  0.67400  1.0000 -0.3575433447
N   N2        1.0  0.51650  0.00816  0.82600  1.0000 -0.3575433447
N   N3        1.0  0.51650  0.49184  0.32600  1.0000 -0.3575433447
N   N4        1.0  0.48350  0.99184  0.17400  1.0000 -0.3575433447
N   N5        1.0  0.10039  0.09787  0.83780  1.0000 -0.3293008833
N   N6        1.0  0.89961  0.59787  0.66220  1.0000 -0.3293008833
N   N7        1.0  0.89961  0.90213  0.16220  1.0000 -0.3293008833
N   N8        1.0  0.10039  0.40213  0.33780  1.0000 -0.3293008833
N   N9        1.0  0.61070  0.33321  0.99950  1.0000 -0.2697734862
N   N10       1.0  0.38930  0.83321  0.50050  1.0000 -0.2697734862
N   N11       1.0  0.38930  0.66679  0.00050  1.0000 -0.2697734862
N   N12       1.0  0.61070  0.16679  0.49950  1.0000 -0.2697734862
O   O1        1.0  0.24707  0.70799  0.85442  1.0000 -0.6288617506
O   O2        1.0  0.75293  0.20799  0.64558  1.0000 -0.6288617506
O   O3        1.0  0.75293  0.29201  0.14558  1.0000 -0.6288617506
O   O4        1.0  0.24707  0.79201  0.35442  1.0000 -0.6288617506
O   O5        1.0  0.37088  0.85775  0.87635  1.0000 -0.6382896199
O   O6        1.0  0.62912  0.35775  0.62365  1.0000 -0.6382896199
O   O7        1.0  0.62912  0.14225  0.12365  1.0000 -0.6288617506
O   O8        1.0  0.37088  0.64225  0.37635  1.0000 -0.6288617506
O   O9        1.0  0.43129  0.52361  0.88317  1.0000 -0.6382896199
O   O10       1.0  0.56871  0.02361  0.61683  1.0000 -0.6382896199
O   O11       1.0  0.56871  0.47639  0.11683  1.0000 -0.6382896199
O   O12       1.0  0.43129  0.97639  0.38317  1.0000 -0.6382896199
O   O13       1.0  0.55648  0.67299  0.89890  1.0000 -0.6560895993
O   O14       1.0  0.44352  0.17299  0.60110  1.0000 -0.6560895993
O   O15       1.0  0.44352  0.32701  0.10110  1.0000 -0.6560895993
O   O16       1.0  0.55648  0.82701  0.39890  1.0000 -0.6560895993
O   O17       1.0  0.32937  0.60559  0.77734  1.0000 -0.6120885714
O   O18       1.0  0.67063  0.10559  0.72266  1.0000 -0.6120885714
O   O19       1.0  0.67063  0.39441  0.22266  1.0000 -0.6120885714
O   O20       1.0  0.32937  0.89441  0.27734  1.0000 -0.6120885714
O   O21       1.0  0.44040  0.76539  0.79580  1.0000 -0.6539286702
O   O22       1.0  0.55960  0.26539  0.70420  1.0000 -0.6539286702
O   O23       1.0  0.55960  0.23461  0.20420  1.0000 -0.6539286702
O   O24       1.0  0.44040  0.73461  0.29580  1.0000 -0.6539286702
O   O25       1.0  0.79723  0.53789  0.11406  1.0000 -0.6706800415
O   O26       1.0  0.20277  0.03789  0.38594  1.0000 -0.6706800415
O   O27       1.0  0.20277  0.46211  0.88594  1.0000 -0.6706800415
O   O28       1.0  0.79723  0.96211  0.61406  1.0000 -0.6706800415
O   O29       1.0  0.80177  0.68961  0.06698  1.0000 -0.5993728592
O   O30       1.0  0.19823  0.18961  0.43302  1.0000 -0.5993728592
O   O31       1.0  0.19823  0.31039  0.93302  1.0000 -0.5993728592
O   O32       1.0  0.80177  0.81039  0.56698  1.0000 -0.5993728592
O   O33       1.0  0.71053  0.74105  0.64255  1.0000 -0.6382896199
O   O34       1.0  0.28947  0.24105  0.85745  1.0000 -0.6382896199
O   O35       1.0  0.28947  0.25895  0.35745  1.0000 -0.6382896199
O   O36       1.0  0.71053  0.75895  0.14255  1.0000 -0.6382896199
O   O37       1.0  0.67578  0.88070  0.69077  1.0000 -0.5993728592
O   O38       1.0  0.32422  0.38070  0.80923  1.0000 -0.5993728592
O   O39       1.0  0.32422  0.11930  0.30923  1.0000 -0.5993728592
O   O40       1.0  0.67578  0.61930  0.19077  1.0000 -0.5993728592
O   O41       1.0  0.93629  0.84307  0.70825  1.0000 -0.6539286702
O   O42       1.0  0.06371  0.34307  0.79175  1.0000 -0.6539286702
O   O43       1.0  0.06371  0.15693  0.29175  1.0000 -0.6539286702
O   O44       1.0  0.93629  0.65693  0.20825  1.0000 -0.6539286702
O   O45       1.0  0.87825  0.03199  0.71031  1.0000 -0.6120885714
O   O46       1.0  0.12175  0.53199  0.78969  1.0000 -0.6120885714
O   O47       1.0  0.12175  0.96801  0.28969  1.0000 -0.6120885714
O   O48       1.0  0.87825  0.46801  0.21031  1.0000 -0.6120885714
