# DDEC6 charges by PACMAN v1.1 (https://github.com/mtap-research/PACMAN-charge/)
data_2011[ZnGd][nan]3[ASR]1
_chemical_formula_sum              "Gd4 Zn4 H20 C52 N8 O32"
_cell_length_a       10.1045
_cell_length_b       9.5831
_cell_length_c       20.385
_cell_angle_alpha    90
_cell_angle_beta     105.585
_cell_angle_gamma    90

_symmetry_space_group_name_H-M    "P 1"
_symmetry_Int_Tables_number       1

loop_
  _symmetry_equiv_pos_as_xyz
  'x, y, z'

loop_
  _atom_site_type_symbol
  _atom_site_label
  _atom_site_symmetry_multiplicity
  _atom_site_fract_x
  _atom_site_fract_y
  _atom_site_fract_z
  _atom_site_occupancy
  _atom_site_charge
Gd  Gd1       1.0  0.97022  0.42944  0.20145  1.0000 2.0576277396
Gd  Gd2       1.0  0.02978  0.92944  0.29855  1.0000 2.0576277396
Gd  Gd3       1.0  0.02978  0.57056  0.79855  1.0000 2.0576277396
Gd  Gd4       1.0  0.97022  0.07056  0.70145  1.0000 2.0576277396
Zn  Zn1       1.0  0.63988  0.86150  0.33621  1.0000 0.7868691108
Zn  Zn2       1.0  0.36012  0.36150  0.16379  1.0000 0.7868691108
Zn  Zn3       1.0  0.36012  0.13850  0.66379  1.0000 0.7868691108
Zn  Zn4       1.0  0.63988  0.63850  0.83621  1.0000 0.7868691108
H   H1        1.0  0.79080  0.00770  0.84650  1.0000 0.1052458159
H   H2        1.0  0.20920  0.50770  0.65350  1.0000 0.1052458159
H   H3        1.0  0.20920  0.99230  0.15350  1.0000 0.1052458159
H   H4        1.0  0.79080  0.49230  0.34650  1.0000 0.1052458159
H   H5        1.0  0.76700  0.90160  0.94350  1.0000 0.1194037469
H   H6        1.0  0.23300  0.40160  0.55650  1.0000 0.1194037469
H   H7        1.0  0.23300  0.09840  0.05650  1.0000 0.1194037469
H   H8        1.0  0.76700  0.59840  0.44350  1.0000 0.1194037469
H   H9        1.0  0.82490  0.01870  0.04570  1.0000 0.1194037469
H   H10       1.0  0.17510  0.51870  0.45430  1.0000 0.1194037469
H   H11       1.0  0.17510  0.98130  0.95430  1.0000 0.1194037469
H   H12       1.0  0.82490  0.48130  0.54570  1.0000 0.1194037469
H   H13       1.0  0.93680  0.35170  0.95320  1.0000 0.1387240684
H   H14       1.0  0.06320  0.85170  0.54680  1.0000 0.1387240684
H   H15       1.0  0.06320  0.64830  0.04680  1.0000 0.1387240684
H   H16       1.0  0.93680  0.14830  0.45320  1.0000 0.1387240684
H   H17       1.0  0.38160  0.62730  0.27980  1.0000 0.1194037469
H   H18       1.0  0.61840  0.12730  0.22020  1.0000 0.1194037469
H   H19       1.0  0.61840  0.37270  0.72020  1.0000 0.1194037469
H   H20       1.0  0.38160  0.87270  0.77980  1.0000 0.1194037469
C   C1        1.0  0.86460  0.19150  0.88940  1.0000 -0.0442772179
C   C2        1.0  0.13540  0.69150  0.61060  1.0000 -0.0442772179
C   C3        1.0  0.13540  0.80850  0.11060  1.0000 -0.0442772179
C   C4        1.0  0.86460  0.30850  0.38940  1.0000 -0.0442772179
C   C5        1.0  0.81470  0.05590  0.88760  1.0000 -0.0994663273
C   C6        1.0  0.18530  0.55590  0.61240  1.0000 -0.0994663273
C   C7        1.0  0.18530  0.94410  0.11240  1.0000 -0.0994663273
C   C8        1.0  0.81470  0.44410  0.38760  1.0000 -0.0994663273
C   C9        1.0  0.80040  0.99230  0.94550  1.0000 -0.0994663273
C   C10       1.0  0.19960  0.49230  0.55450  1.0000 -0.0994663273
C   C11       1.0  0.19960  0.00770  0.05450  1.0000 -0.0994663273
C   C12       1.0  0.80040  0.50770  0.44550  1.0000 -0.0994663273
C   C13       1.0  0.83510  0.06220  0.00660  1.0000 -0.0924943813
C   C14       1.0  0.16490  0.56220  0.49340  1.0000 -0.0924943813
C   C15       1.0  0.16490  0.93780  0.99340  1.0000 -0.0924943813
C   C16       1.0  0.83510  0.43780  0.50660  1.0000 -0.0924943813
C   C17       1.0  0.88570  0.19790  0.01000  1.0000 -0.025868328
C   C18       1.0  0.11430  0.69790  0.49000  1.0000 -0.025868328
C   C19       1.0  0.11430  0.80210  0.99000  1.0000 -0.025868328
C   C20       1.0  0.88570  0.30210  0.51000  1.0000 -0.025868328
C   C21       1.0  0.90140  0.26170  0.95110  1.0000 -0.0994663273
C   C22       1.0  0.09860  0.76170  0.54890  1.0000 -0.0994663273
C   C23       1.0  0.09860  0.73830  0.04890  1.0000 -0.0994663273
C   C24       1.0  0.90140  0.23830  0.45110  1.0000 -0.0994663273
C   C25       1.0  0.92080  0.27420  0.07640  1.0000 0.5607020429
C   C26       1.0  0.07920  0.77420  0.42360  1.0000 0.5607020429
C   C27       1.0  0.07920  0.72580  0.92360  1.0000 0.5607020429
C   C28       1.0  0.92080  0.22580  0.57640  1.0000 0.5607020429
C   C29       1.0  0.87970  0.25930  0.82540  1.0000 0.6468170903
C   C30       1.0  0.12030  0.75930  0.67460  1.0000 0.6468170903
C   C31       1.0  0.12030  0.74070  0.17460  1.0000 0.6468170903
C   C32       1.0  0.87970  0.24070  0.32540  1.0000 0.6468170903
C   C33       1.0  0.79710  0.70180  0.26080  1.0000 0.6016491077
C   C34       1.0  0.20290  0.20180  0.23920  1.0000 0.6016491077
C   C35       1.0  0.20290  0.29820  0.73920  1.0000 0.6016491077
C   C36       1.0  0.79710  0.79820  0.76080  1.0000 0.6016491077
C   C37       1.0  0.65890  0.63870  0.24720  1.0000 -0.0097633267
C   C38       1.0  0.34110  0.13870  0.25280  1.0000 -0.0097633267
C   C39       1.0  0.34110  0.36130  0.75280  1.0000 -0.0097633267
C   C40       1.0  0.65890  0.86130  0.74720  1.0000 -0.0097633267
C   C41       1.0  0.59110  0.53650  0.20460  1.0000 -0.0044085527
C   C42       1.0  0.40890  0.03650  0.29540  1.0000 -0.0044085527
C   C43       1.0  0.40890  0.46350  0.79540  1.0000 -0.0044085527
C   C44       1.0  0.59110  0.96350  0.70460  1.0000 -0.0044085527
C   C45       1.0  0.62560  0.44840  0.15170  1.0000 0.6016491077
C   C46       1.0  0.37440  0.94840  0.34830  1.0000 0.6016491077
C   C47       1.0  0.37440  0.55160  0.84830  1.0000 0.6016491077
C   C48       1.0  0.62560  0.05160  0.65170  1.0000 0.6016491077
C   C49       1.0  0.45760  0.61480  0.26290  1.0000 0.1979868955
C   C50       1.0  0.54240  0.11480  0.23710  1.0000 0.1979868955
C   C51       1.0  0.54240  0.38520  0.73710  1.0000 0.1979868955
C   C52       1.0  0.45760  0.88520  0.76290  1.0000 0.1979868955
N   N1        1.0  0.57410  0.68690  0.28420  1.0000 -0.3143756815
N   N2        1.0  0.42590  0.18690  0.21580  1.0000 -0.3143756815
N   N3        1.0  0.42590  0.31310  0.71580  1.0000 -0.3143756815
N   N4        1.0  0.57410  0.81310  0.78420  1.0000 -0.3143756815
N   N5        1.0  0.46230  0.52180  0.21420  1.0000 -0.3247447588
N   N6        1.0  0.53770  0.02180  0.28580  1.0000 -0.3247447588
N   N7        1.0  0.53770  0.47820  0.78580  1.0000 -0.3247447588
N   N8        1.0  0.46230  0.97820  0.71420  1.0000 -0.3252667167
O   O1        1.0  0.90040  0.21950  0.12852  1.0000 -0.6040314563
O   O2        1.0  0.09960  0.71950  0.37148  1.0000 -0.6040314563
O   O3        1.0  0.09960  0.78050  0.87148  1.0000 -0.6040314563
O   O4        1.0  0.90040  0.28050  0.62852  1.0000 -0.6040314563
O   O5        1.0  0.96990  0.39710  0.07944  1.0000 -0.6208321766
O   O6        1.0  0.03010  0.89710  0.42056  1.0000 -0.6208321766
O   O7        1.0  0.03010  0.60290  0.92056  1.0000 -0.6208321766
O   O8        1.0  0.96990  0.10290  0.57944  1.0000 -0.6208321766
O   O9        1.0  0.90810  0.38690  0.82855  1.0000 -0.6523071208
O   O10       1.0  0.09190  0.88690  0.67145  1.0000 -0.6523071208
O   O11       1.0  0.09190  0.61310  0.17145  1.0000 -0.6523071208
O   O12       1.0  0.90810  0.11310  0.32855  1.0000 -0.6523071208
O   O13       1.0  0.86050  0.18610  0.77249  1.0000 -0.6852719762
O   O14       1.0  0.13950  0.68610  0.72751  1.0000 -0.6852719762
O   O15       1.0  0.13950  0.81390  0.22751  1.0000 -0.6852719762
O   O16       1.0  0.86050  0.31390  0.27249  1.0000 -0.6852719762
O   O17       1.0  0.89090  0.64990  0.24070  1.0000 -0.6208321766
O   O18       1.0  0.10910  0.14990  0.25930  1.0000 -0.6208321766
O   O19       1.0  0.10910  0.35010  0.75930  1.0000 -0.6208321766
O   O20       1.0  0.89090  0.85010  0.74070  1.0000 -0.6208321766
O   O21       1.0  0.81250  0.81400  0.29607  1.0000 -0.6208321766
O   O22       1.0  0.18750  0.31400  0.20393  1.0000 -0.6208321766
O   O23       1.0  0.18750  0.18600  0.70393  1.0000 -0.6208321766
O   O24       1.0  0.81250  0.68600  0.79607  1.0000 -0.6208321766
O   O25       1.0  0.73920  0.46670  0.13794  1.0000 -0.6208321766
O   O26       1.0  0.26080  0.96670  0.36206  1.0000 -0.6208321766
O   O27       1.0  0.26080  0.53330  0.86206  1.0000 -0.6208321766
O   O28       1.0  0.73920  0.03330  0.63794  1.0000 -0.6208321766
O   O29       1.0  0.53690  0.36180  0.12201  1.0000 -0.5160812416
O   O30       1.0  0.46310  0.86180  0.37799  1.0000 -0.5160812416
O   O31       1.0  0.46310  0.63820  0.87799  1.0000 -0.5160812416
O   O32       1.0  0.53690  0.13820  0.62201  1.0000 -0.5160812416
