# DDEC6 charges by PACMAN v1.1 (https://github.com/mtap-research/PACMAN-charge/)
data_2011[Zn][dia]3[ASR]1
_chemical_formula_sum              "Zn2 H48 C60 N4 O8"
_cell_length_a       12.8535
_cell_length_b       12.8535
_cell_length_c       20.98
_cell_angle_alpha    87.6828
_cell_angle_beta     92.3172
_cell_angle_gamma    153.623

_symmetry_space_group_name_H-M    "P 1"
_symmetry_Int_Tables_number       1

loop_
  _symmetry_equiv_pos_as_xyz
  'x, y, z'

loop_
  _atom_site_type_symbol
  _atom_site_label
  _atom_site_symmetry_multiplicity
  _atom_site_fract_x
  _atom_site_fract_y
  _atom_site_fract_z
  _atom_site_occupancy
  _atom_site_charge
Zn  Zn1       1.0  0.28245  0.28245  0.75000  1.0000 0.7389185668
Zn  Zn2       1.0  0.71755  0.71755  0.25000  1.0000 0.7389185668
H   H1        1.0  0.25200  0.35400  0.61860  1.0000 0.1100786903
H   H2        1.0  0.35400  0.25200  0.88140  1.0000 0.1100786903
H   H3        1.0  0.74800  0.64600  0.38140  1.0000 0.1100786903
H   H4        1.0  0.64600  0.74800  0.11860  1.0000 0.1100786903
H   H5        1.0  0.99330  0.21250  0.55410  1.0000 0.1369566635
H   H6        1.0  0.21250  0.99330  0.94590  1.0000 0.1369566635
H   H7        1.0  0.00670  0.78750  0.44590  1.0000 0.1369566635
H   H8        1.0  0.78750  0.00670  0.05410  1.0000 0.1369566635
H   H9        1.0  0.50580  0.73660  0.69110  1.0000 0.1369566635
H   H10       1.0  0.73660  0.50580  0.80890  1.0000 0.1369566635
H   H11       1.0  0.49420  0.26340  0.30890  1.0000 0.1369566635
H   H12       1.0  0.26340  0.49420  0.19110  1.0000 0.1369566635
H   H13       1.0  0.78380  0.90180  0.75370  1.0000 0.1190097248
H   H14       1.0  0.90180  0.78380  0.74630  1.0000 0.1190097248
H   H15       1.0  0.21620  0.09820  0.24630  1.0000 0.1190097248
H   H16       1.0  0.09820  0.21620  0.25370  1.0000 0.1190097248
H   H17       1.0  0.60500  0.92840  0.52930  1.0000 0.1190097248
H   H18       1.0  0.92840  0.60500  0.97070  1.0000 0.1190097248
H   H19       1.0  0.39500  0.07160  0.47070  1.0000 0.1190097248
H   H20       1.0  0.07160  0.39500  0.02930  1.0000 0.1190097248
H   H21       1.0  0.28780  0.64360  0.62820  1.0000 0.1100786903
H   H22       1.0  0.64360  0.28780  0.87180  1.0000 0.1100786903
H   H23       1.0  0.71220  0.35640  0.37180  1.0000 0.1100786903
H   H24       1.0  0.35640  0.71220  0.12820  1.0000 0.1100786903
H   H25       1.0  0.37330  0.80250  0.46210  1.0000 0.1190097248
H   H26       1.0  0.80250  0.37330  0.03790  1.0000 0.1190097248
H   H27       1.0  0.62670  0.19750  0.53790  1.0000 0.1190097248
H   H28       1.0  0.19750  0.62670  0.96210  1.0000 0.1190097248
H   H29       1.0  0.90340  0.36700  0.60460  1.0000 0.1190097248
H   H30       1.0  0.36700  0.90340  0.89540  1.0000 0.1190097248
H   H31       1.0  0.09660  0.63300  0.39540  1.0000 0.1190097248
H   H32       1.0  0.63300  0.09660  0.10460  1.0000 0.1190097248
H   H33       1.0  0.60610  0.36870  0.58380  1.0000 0.134948367
H   H34       1.0  0.36870  0.60610  0.91620  1.0000 0.134948367
H   H35       1.0  0.39390  0.63130  0.41620  1.0000 0.134948367
H   H36       1.0  0.63130  0.39390  0.08380  1.0000 0.134948367
H   H37       1.0  0.79010  0.61210  0.61270  1.0000 0.1493902185
H   H38       1.0  0.61210  0.79010  0.88730  1.0000 0.1493902185
H   H39       1.0  0.20990  0.38790  0.38730  1.0000 0.1493902185
H   H40       1.0  0.38790  0.20990  0.11270  1.0000 0.1493902185
H   H41       1.0  0.83820  0.82520  0.56070  1.0000 0.1190097248
H   H42       1.0  0.82520  0.83820  0.93930  1.0000 0.1190097248
H   H43       1.0  0.16180  0.17480  0.43930  1.0000 0.1190097248
H   H44       1.0  0.17480  0.16180  0.06070  1.0000 0.1190097248
H   H45       1.0  0.26890  0.14630  0.51660  1.0000 0.1190097248
H   H46       1.0  0.14630  0.26890  0.98340  1.0000 0.1190097248
H   H47       1.0  0.73110  0.85370  0.48340  1.0000 0.1190097248
H   H48       1.0  0.85370  0.73110  0.01660  1.0000 0.1190097248
C   C1        1.0  0.10004  0.22976  0.63357  1.0000 0.0785239876
C   C2        1.0  0.22976  0.10004  0.86643  1.0000 0.0785239876
C   C3        1.0  0.89996  0.77024  0.36643  1.0000 0.0785239876
C   C4        1.0  0.77024  0.89996  0.13357  1.0000 0.0785239876
C   C5        1.0  0.94543  0.14457  0.59470  1.0000 -0.1977693796
C   C6        1.0  0.14457  0.94543  0.90530  1.0000 -0.1977693796
C   C7        1.0  0.05457  0.85543  0.40530  1.0000 -0.1977693796
C   C8        1.0  0.85543  0.05457  0.09470  1.0000 -0.1977693796
C   C9        1.0  0.71764  0.95816  0.61430  1.0000 0.1649181486
C   C10       1.0  0.95816  0.71764  0.88570  1.0000 0.1649181486
C   C11       1.0  0.28236  0.04184  0.38570  1.0000 0.1649181486
C   C12       1.0  0.04184  0.28236  0.11430  1.0000 0.1649181486
C   C13       1.0  0.65838  0.86502  0.67560  1.0000 -0.1860984473
C   C14       1.0  0.86502  0.65838  0.82440  1.0000 -0.1860984473
C   C15       1.0  0.34162  0.13498  0.32440  1.0000 -0.1860984473
C   C16       1.0  0.13498  0.34162  0.17560  1.0000 -0.1860984473
C   C17       1.0  0.82492  0.96328  0.71250  1.0000 0.1033235879
C   C18       1.0  0.96328  0.82492  0.78750  1.0000 0.1033235879
C   C19       1.0  0.17508  0.03672  0.28750  1.0000 0.1033235879
C   C20       1.0  0.03672  0.17508  0.21250  1.0000 0.1033235879
C   C21       1.0  0.55405  0.86655  0.57100  1.0000 -0.1601400434
C   C22       1.0  0.86655  0.55405  0.92900  1.0000 -0.1601400434
C   C23       1.0  0.44595  0.13345  0.42900  1.0000 -0.1601400434
C   C24       1.0  0.13345  0.44595  0.07100  1.0000 -0.1601400434
C   C25       1.0  0.33696  0.70124  0.58610  1.0000 -0.1420448593
C   C26       1.0  0.70124  0.33696  0.91390  1.0000 -0.1420448593
C   C27       1.0  0.66304  0.29876  0.41390  1.0000 -0.1420448593
C   C28       1.0  0.29876  0.66304  0.08610  1.0000 -0.1420448593
C   C29       1.0  0.16878  0.60282  0.54110  1.0000 0.1033235879
C   C30       1.0  0.60282  0.16878  0.95890  1.0000 0.1033235879
C   C31       1.0  0.83122  0.39718  0.45890  1.0000 0.1033235879
C   C32       1.0  0.39718  0.83122  0.04110  1.0000 0.1033235879
C   C33       1.0  0.22247  0.68013  0.47760  1.0000 -0.1420448593
C   C34       1.0  0.68013  0.22247  0.02240  1.0000 -0.1420448593
C   C35       1.0  0.77753  0.31987  0.52240  1.0000 -0.1420448593
C   C36       1.0  0.31987  0.77753  0.97760  1.0000 -0.1420448593
C   C37       1.0  0.94339  0.42141  0.56220  1.0000 -0.1489575415
C   C38       1.0  0.42141  0.94339  0.93780  1.0000 -0.1489575415
C   C39       1.0  0.05661  0.57859  0.43780  1.0000 -0.1489575415
C   C40       1.0  0.57859  0.05661  0.06220  1.0000 -0.1489575415
C   C41       1.0  0.46394  0.32866  0.65490  1.0000 0.6289212347
C   C42       1.0  0.32866  0.46394  0.84510  1.0000 0.6289212347
C   C43       1.0  0.53606  0.67134  0.34510  1.0000 0.6289212347
C   C44       1.0  0.67134  0.53606  0.15490  1.0000 0.6289212347
C   C45       1.0  0.62661  0.45739  0.59920  1.0000 -0.3935739755
C   C46       1.0  0.45739  0.62661  0.90080  1.0000 -0.3958400249
C   C47       1.0  0.37339  0.54261  0.40080  1.0000 -0.3958400249
C   C48       1.0  0.54261  0.37339  0.09920  1.0000 -0.3958400249
C   C49       1.0  0.70140  0.69340  0.53630  1.0000 -0.1601400434
C   C50       1.0  0.69340  0.70140  0.96370  1.0000 -0.1601400434
C   C51       1.0  0.29860  0.30660  0.46370  1.0000 -0.1601400434
C   C52       1.0  0.30660  0.29860  0.03630  1.0000 -0.1601400434
C   C53       1.0  0.56455  0.48205  0.54708  1.0000 0.1369566635
C   C54       1.0  0.48205  0.56455  0.95292  1.0000 0.1369566635
C   C55       1.0  0.43545  0.51795  0.45292  1.0000 0.1369566635
C   C56       1.0  0.51795  0.43545  0.04708  1.0000 0.1369566635
C   C57       1.0  0.36278  0.28982  0.51000  1.0000 -0.167969039
C   C58       1.0  0.28982  0.36278  0.99000  1.0000 -0.167969039
C   C59       1.0  0.63722  0.71018  0.49000  1.0000 -0.167969039
C   C60       1.0  0.71018  0.63722  0.01000  1.0000 -0.167969039
N   N1        1.0  0.04401  0.14319  0.69264  1.0000 -0.2393235437
N   N2        1.0  0.14319  0.04401  0.80736  1.0000 -0.2393235437
N   N3        1.0  0.95599  0.85681  0.30736  1.0000 -0.2393235437
N   N4        1.0  0.85681  0.95599  0.19264  1.0000 -0.2393235437
O   O1        1.0  0.52175  0.45345  0.69141  1.0000 -0.5639060943
O   O2        1.0  0.45345  0.52175  0.80859  1.0000 -0.5639060943
O   O3        1.0  0.47825  0.54655  0.30859  1.0000 -0.5639060943
O   O4        1.0  0.54655  0.47825  0.19141  1.0000 -0.5639060943
O   O5        1.0  0.27941  0.11359  0.66050  1.0000 -0.5742267727
O   O6        1.0  0.11359  0.27941  0.83950  1.0000 -0.5742267727
O   O7        1.0  0.72059  0.88641  0.33950  1.0000 -0.5742267727
O   O8        1.0  0.88641  0.72059  0.16050  1.0000 -0.5742267727
