# DDEC6 charges by PACMAN v1.1 (https://github.com/mtap-research/PACMAN-charge/)
data_2011[Er][bnn]3[ASR]1
_chemical_formula_sum              "Er2 H14 C30 O14"
_cell_length_a       9.349
_cell_length_b       9.8
_cell_length_c       11.379
_cell_angle_alpha    94.441
_cell_angle_beta     99.305
_cell_angle_gamma    111.527

_symmetry_space_group_name_H-M    "P 1"
_symmetry_Int_Tables_number       1

loop_
  _symmetry_equiv_pos_as_xyz
  'x, y, z'

loop_
  _atom_site_type_symbol
  _atom_site_label
  _atom_site_symmetry_multiplicity
  _atom_site_fract_x
  _atom_site_fract_y
  _atom_site_fract_z
  _atom_site_occupancy
  _atom_site_charge
Er  Er1       1.0  0.27581  0.54510  0.98869  1.0000 2.0712979119
Er  Er2       1.0  0.72419  0.45490  0.01131  1.0000 2.0712979119
H   H1        1.0  0.27060  0.22770  0.62420  1.0000 0.1186978296
H   H2        1.0  0.72940  0.77230  0.37580  1.0000 0.1186978296
H   H3        1.0  0.17680  0.10160  0.43450  1.0000 0.131011812
H   H4        1.0  0.82320  0.89840  0.56550  1.0000 0.131011812
H   H5        1.0  0.84700  0.27440  0.38320  1.0000 0.1471279245
H   H6        1.0  0.15300  0.72560  0.61680  1.0000 0.1471279245
H   H7        1.0  0.93360  0.39360  0.57920  1.0000 0.1186978296
H   H8        1.0  0.06640  0.60640  0.42080  1.0000 0.1186978296
H   H9        1.0  0.92320  0.85950  0.16270  1.0000 0.1471279245
H   H10       1.0  0.07680  0.14050  0.83730  1.0000 0.1471279245
H   H11       1.0  0.32190  0.00360  0.03910  1.0000 0.1410891917
H   H12       1.0  0.67810  0.99640  0.96090  1.0000 0.1410891917
H   H13       1.0  0.19710  0.29240  0.22310  1.0000 0.1471279245
H   H14       1.0  0.80290  0.70760  0.77690  1.0000 0.1471279245
C   C1        1.0  0.17610  0.41300  0.74700  1.0000 0.5484785121
C   C2        1.0  0.82390  0.58700  0.25300  1.0000 0.5484785121
C   C3        1.0  0.11700  0.33020  0.62590  1.0000 -0.0614109747
C   C4        1.0  0.88300  0.66980  0.37410  1.0000 -0.0614109747
C   C5        1.0  0.18510  0.23760  0.57670  1.0000 -0.0614109747
C   C6        1.0  0.81490  0.76240  0.42330  1.0000 -0.0614109747
C   C7        1.0  0.13060  0.16310  0.46330  1.0000 -0.2192659918
C   C8        1.0  0.86940  0.83690  0.53670  1.0000 -0.2192659918
C   C9        1.0  0.00470  0.17900  0.38980  1.0000 0.2504747789
C   C10       1.0  0.99530  0.82100  0.61020  1.0000 0.2504747789
C   C11       1.0  0.93160  0.26510  0.43240  1.0000 -0.1999644097
C   C12       1.0  0.06840  0.73490  0.56760  1.0000 -0.1999644097
C   C13       1.0  0.98540  0.33780  0.54960  1.0000 -0.0724713374
C   C14       1.0  0.01460  0.66220  0.45040  1.0000 -0.0724713374
C   C15       1.0  0.04930  0.07780  0.20650  1.0000 0.2226119545
C   C16       1.0  0.95070  0.92220  0.79350  1.0000 0.2226119545
C   C17       1.0  0.01430  0.93600  0.15440  1.0000 -0.1744154934
C   C18       1.0  0.98570  0.06400  0.84560  1.0000 -0.1744154934
C   C19       1.0  0.11560  0.90710  0.08940  1.0000 -0.0317291468
C   C20       1.0  0.88440  0.09290  0.91060  1.0000 -0.0317291468
C   C21       1.0  0.25050  0.02310  0.07890  1.0000 -0.1045157332
C   C22       1.0  0.74950  0.97690  0.92110  1.0000 -0.1045157332
C   C23       1.0  0.28110  0.16800  0.12680  1.0000 -0.0247883573
C   C24       1.0  0.71890  0.83200  0.87320  1.0000 -0.0247883573
C   C25       1.0  0.17900  0.19590  0.19090  1.0000 -0.1999644097
C   C26       1.0  0.82100  0.80410  0.80910  1.0000 -0.1999644097
C   C27       1.0  0.08150  0.75420  0.03360  1.0000 0.6570789497
C   C28       1.0  0.91850  0.24580  0.96640  1.0000 0.6570789497
C   C29       1.0  0.41690  0.29150  0.10320  1.0000 0.6445182245
C   C30       1.0  0.58310  0.70850  0.89680  1.0000 0.6445182245
O   O1        1.0  0.12220  0.50520  0.78330  1.0000 -0.6087593753
O   O2        1.0  0.87780  0.49480  0.21670  1.0000 -0.6087593753
O   O3        1.0  0.28020  0.38850  0.81740  1.0000 -0.6336103845
O   O4        1.0  0.71980  0.61150  0.18260  1.0000 -0.6336103845
O   O5        1.0  0.54760  0.27740  0.10610  1.0000 -0.6336103845
O   O6        1.0  0.45240  0.72260  0.89390  1.0000 -0.6336103845
O   O7        1.0  0.39980  0.40940  0.07810  1.0000 -0.7364724595
O   O8        1.0  0.60020  0.59060  0.92190  1.0000 -0.7364724595
O   O9        1.0  0.18980  0.73130  0.99100  1.0000 -0.6818426717
O   O10       1.0  0.81020  0.26870  0.00900  1.0000 -0.6818426717
O   O11       1.0  0.94970  0.65530  0.02930  1.0000 -0.6818426717
O   O12       1.0  0.05030  0.34470  0.97070  1.0000 -0.6818426717
O   O13       1.0  0.94350  0.10440  0.27270  1.0000 -0.2192659918
O   O14       1.0  0.05650  0.89560  0.72730  1.0000 -0.2192659918
