# DDEC6 charges by PACMAN v1.1 (https://github.com/mtap-research/PACMAN-charge/)
data_2012[Mg][dia]2[ASR]1
_chemical_formula_sum              "Mg6 H36 C24 O24"
_cell_length_a       21.0072
_cell_length_b       20.8637
_cell_length_c       8.58791
_cell_angle_alpha    79.1027
_cell_angle_beta     77.2292
_cell_angle_gamma    23.668

_symmetry_space_group_name_H-M    "P 1"
_symmetry_Int_Tables_number       1

loop_
  _symmetry_equiv_pos_as_xyz
  'x, y, z'

loop_
  _atom_site_type_symbol
  _atom_site_label
  _atom_site_symmetry_multiplicity
  _atom_site_fract_x
  _atom_site_fract_y
  _atom_site_fract_z
  _atom_site_occupancy
  _atom_site_charge
Mg  Mg1       1.0  0.08313  0.74953  0.78965  1.0000 1.3911120436
Mg  Mg2       1.0  0.78965  0.37769  0.08313  1.0000 1.3911120436
Mg  Mg3       1.0  0.87231  0.46035  0.50047  1.0000 1.3911120436
Mg  Mg4       1.0  0.50047  0.16687  0.87231  1.0000 1.3911120436
Mg  Mg5       1.0  0.20273  0.79727  0.20273  1.0000 1.3911120436
Mg  Mg6       1.0  0.45273  0.04727  0.45273  1.0000 1.3911120436
H   H1        1.0  0.53310  0.34650  0.45870  1.0000 0.151535174
H   H2        1.0  0.45870  0.66170  0.53310  1.0000 0.151535174
H   H3        1.0  0.58830  0.79130  0.90350  1.0000 0.151535174
H   H4        1.0  0.90350  0.71690  0.58830  1.0000 0.151535174
H   H5        1.0  0.47020  0.42740  0.28860  1.0000 0.151535174
H   H6        1.0  0.28860  0.81380  0.47020  1.0000 0.151535174
H   H7        1.0  0.43620  0.96140  0.82260  1.0000 0.151535174
H   H8        1.0  0.82260  0.77980  0.43620  1.0000 0.151535174
H   H9        1.0  0.53180  0.42380  0.38100  1.0000 0.151535174
H   H10       1.0  0.38100  0.66340  0.53180  1.0000 0.151535174
H   H11       1.0  0.58660  0.86900  0.82620  1.0000 0.151535174
H   H12       1.0  0.82620  0.71820  0.58660  1.0000 0.151535174
H   H13       1.0  0.48930  0.43170  0.77790  1.0000 0.1568926092
H   H14       1.0  0.77790  0.30110  0.48930  1.0000 0.1568926092
H   H15       1.0  0.94890  0.47210  0.81830  1.0000 0.1568926092
H   H16       1.0  0.81830  0.76070  0.94890  1.0000 0.1568926092
H   H17       1.0  0.56080  0.35580  0.94500  1.0000 0.151535174
H   H18       1.0  0.94500  0.13840  0.56080  1.0000 0.151535174
H   H19       1.0  0.11160  0.30500  0.89420  1.0000 0.151535174
H   H20       1.0  0.89420  0.68920  0.11160  1.0000 0.151535174
H   H21       1.0  0.45060  0.40140  0.90660  1.0000 0.151535174
H   H22       1.0  0.90660  0.24140  0.45060  1.0000 0.151535174
H   H23       1.0  0.00860  0.34340  0.84860  1.0000 0.151535174
H   H24       1.0  0.84860  0.79940  0.00860  1.0000 0.151535174
H   H25       1.0  0.05190  0.70170  0.14670  1.0000 0.151535174
H   H26       1.0  0.14670  0.09970  0.05190  1.0000 0.151535174
H   H27       1.0  0.15030  0.10330  0.54830  1.0000 0.151535174
H   H28       1.0  0.54830  0.19810  0.15030  1.0000 0.151535174
H   H29       1.0  0.13930  0.56230  0.24890  1.0000 0.151535174
H   H30       1.0  0.24890  0.04950  0.13930  1.0000 0.151535174
H   H31       1.0  0.20050  0.00110  0.68770  1.0000 0.151535174
H   H32       1.0  0.68770  0.11070  0.20050  1.0000 0.151535174
H   H33       1.0  0.22470  0.55410  0.19670  1.0000 0.1568926092
H   H34       1.0  0.19670  0.02450  0.22470  1.0000 0.1568926092
H   H35       1.0  0.22550  0.05330  0.69590  1.0000 0.1568926092
H   H36       1.0  0.69590  0.02530  0.22550  1.0000 0.1568926092
C   C1        1.0  0.30770  0.59262  0.47636  1.0000 0.7188961845
C   C2        1.0  0.47636  0.62332  0.30770  1.0000 0.7188961845
C   C3        1.0  0.62668  0.77364  0.65738  1.0000 0.7188961845
C   C4        1.0  0.65738  0.94230  0.62668  1.0000 0.7188961845
C   C5        1.0  0.47546  0.43356  0.39392  1.0000 -0.6021819471
C   C6        1.0  0.39392  0.69706  0.47546  1.0000 -0.6021819471
C   C7        1.0  0.55294  0.85608  0.81644  1.0000 -0.6021819471
C   C8        1.0  0.81644  0.77454  0.55294  1.0000 -0.6021819471
C   C9        1.0  0.32178  0.59806  0.96494  1.0000 0.7188961845
C   C10       1.0  0.96494  0.11522  0.32178  1.0000 0.7188961845
C   C11       1.0  0.13478  0.28506  0.65194  1.0000 0.7188961845
C   C12       1.0  0.65194  0.92822  0.13478  1.0000 0.7188961845
C   C13       1.0  0.46856  0.43214  0.89218  1.0000 -0.6021819471
C   C14       1.0  0.89218  0.20712  0.46856  1.0000 -0.6021819471
C   C15       1.0  0.04288  0.35782  0.81786  1.0000 -0.6021819471
C   C16       1.0  0.81786  0.78144  0.04288  1.0000 -0.6021819471
C   C17       1.0  0.23258  0.49650  0.01118  1.0000 0.7149418336
C   C18       1.0  0.01118  0.25974  0.23258  1.0000 0.7149418336
C   C19       1.0  0.99026  0.23882  0.75350  1.0000 0.7149418336
C   C20       1.0  0.75350  0.01742  0.99026  1.0000 0.7149418336
C   C21       1.0  0.15529  0.58663  0.16439  1.0000 -0.6021819471
C   C22       1.0  0.16439  0.09369  0.15529  1.0000 -0.6021819471
C   C23       1.0  0.15631  0.08561  0.66337  1.0000 -0.6021819471
C   C24       1.0  0.66337  0.09471  0.15631  1.0000 -0.6021819471
O   O1        1.0  0.26853  0.59067  0.60703  1.0000 -0.6239189986
O   O2        1.0  0.60703  0.53377  0.26853  1.0000 -0.6239189986
O   O3        1.0  0.71623  0.64297  0.65933  1.0000 -0.6239189986
O   O4        1.0  0.65933  0.98147  0.71623  1.0000 -0.6239189986
O   O5        1.0  0.21622  0.71912  0.41130  1.0000 -0.6405947316
O   O6        1.0  0.41130  0.65336  0.21622  1.0000 -0.6405947316
O   O7        1.0  0.59664  0.83870  0.53088  1.0000 -0.6405947316
O   O8        1.0  0.53088  0.03378  0.59664  1.0000 -0.6405947316
O   O9        1.0  0.18645  0.70765  0.93097  1.0000 -0.6405947316
O   O10       1.0  0.93097  0.17493  0.18645  1.0000 -0.6405947316
O   O11       1.0  0.07507  0.31903  0.54235  1.0000 -0.6405947316
O   O12       1.0  0.54235  0.06355  0.07507  1.0000 -0.6405947316
O   O13       1.0  0.34196  0.61872  0.05522  1.0000 -0.6288526613
O   O14       1.0  0.05522  0.98410  0.34196  1.0000 -0.6288526613
O   O15       1.0  0.26590  0.19478  0.63128  1.0000 -0.6288526613
O   O16       1.0  0.63128  0.90804  0.26590  1.0000 -0.6288526613
O   O17       1.0  0.33084  0.36088  0.02206  1.0000 -0.6239189986
O   O18       1.0  0.02206  0.28622  0.33084  1.0000 -0.6239189986
O   O19       1.0  0.96378  0.22794  0.88912  1.0000 -0.6239189986
O   O20       1.0  0.88912  0.91916  0.96378  1.0000 -0.6239189986
O   O21       1.0  0.19507  0.56257  0.87963  1.0000 -0.649507742
O   O22       1.0  0.87963  0.36273  0.19507  1.0000 -0.649507742
O   O23       1.0  0.88727  0.37037  0.68743  1.0000 -0.649507742
O   O24       1.0  0.68743  0.05493  0.88727  1.0000 -0.649507742
