# DDEC6 charges by PACMAN v1.1 (https://github.com/mtap-research/PACMAN-charge/)
data_2012[Fe][nan]3[ASR]5
_chemical_formula_sum              "Fe3 H24 C26 N24 O4"
_cell_length_a       13.7208
_cell_length_b       13.7208
_cell_length_c       12.118
_cell_angle_alpha    81.0372
_cell_angle_beta     98.9628
_cell_angle_gamma    52.3551

_symmetry_space_group_name_H-M    "P 1"
_symmetry_Int_Tables_number       1

loop_
  _symmetry_equiv_pos_as_xyz
  'x, y, z'

loop_
  _atom_site_type_symbol
  _atom_site_label
  _atom_site_symmetry_multiplicity
  _atom_site_fract_x
  _atom_site_fract_y
  _atom_site_fract_z
  _atom_site_occupancy
  _atom_site_charge
Fe  Fe1       1.0  0.00000  0.00000  0.00000  1.0000 0.2864627063
Fe  Fe2       1.0  0.10403  0.89597  0.74295  1.0000 0.2067982763
Fe  Fe3       1.0  0.89597  0.10403  0.25705  1.0000 0.2014890372
H   H1        1.0  0.52950  0.47050  0.69820  1.0000 0.1169045347
H   H2        1.0  0.47050  0.52950  0.30180  1.0000 0.1169045347
H   H3        1.0  0.66290  0.33710  0.44170  1.0000 0.1169045347
H   H4        1.0  0.33710  0.66290  0.55830  1.0000 0.1169045347
H   H5        1.0  0.33720  0.09080  0.08740  1.0000 0.1169045347
H   H6        1.0  0.09080  0.33720  0.91260  1.0000 0.1169045347
H   H7        1.0  0.66280  0.90920  0.91260  1.0000 0.1169045347
H   H8        1.0  0.90920  0.66280  0.08740  1.0000 0.1169045347
H   H9        1.0  0.51230  0.88310  0.87400  1.0000 0.1112837646
H   H10       1.0  0.88310  0.51230  0.12600  1.0000 0.1112837646
H   H11       1.0  0.48770  0.11690  0.12600  1.0000 0.1112837646
H   H12       1.0  0.11690  0.48770  0.87400  1.0000 0.1112837646
H   H13       1.0  0.72240  0.27760  0.83320  1.0000 0.2784773171
H   H14       1.0  0.27760  0.72240  0.16680  1.0000 0.2784773171
H   H15       1.0  0.83220  0.16780  0.56070  1.0000 0.2784773171
H   H16       1.0  0.16780  0.83220  0.43930  1.0000 0.2784773171
H   H17       1.0  0.23500  0.00480  0.08410  1.0000 0.2784773171
H   H18       1.0  0.00480  0.23500  0.91590  1.0000 0.2784773171
H   H19       1.0  0.76500  0.99520  0.91590  1.0000 0.2784773171
H   H20       1.0  0.99520  0.76500  0.08410  1.0000 0.2784773171
H   H21       1.0  0.33770  0.90390  0.81020  1.0000 0.2864627063
H   H22       1.0  0.90390  0.33770  0.18980  1.0000 0.2864627063
H   H23       1.0  0.66230  0.09610  0.18980  1.0000 0.2864627063
H   H24       1.0  0.09610  0.66230  0.81020  1.0000 0.2864627063
C   C1        1.0  0.51890  0.48110  0.61670  1.0000 -0.1481963486
C   C2        1.0  0.48110  0.51890  0.38330  1.0000 -0.1481963486
C   C3        1.0  0.61440  0.38560  0.58540  1.0000 0.0033092348
C   C4        1.0  0.38560  0.61440  0.41460  1.0000 0.0033092348
C   C5        1.0  0.59710  0.40290  0.46710  1.0000 -0.1481963486
C   C6        1.0  0.40290  0.59710  0.53290  1.0000 -0.1481963486
C   C7        1.0  0.73660  0.26340  0.66760  1.0000 0.1874283462
C   C8        1.0  0.26340  0.73660  0.33240  1.0000 0.1874283462
C   C9        1.0  0.40410  0.05270  0.05230  1.0000 -0.1601844743
C   C10       1.0  0.05270  0.40410  0.94770  1.0000 -0.1601844743
C   C11       1.0  0.59590  0.94730  0.94770  1.0000 -0.1601844743
C   C12       1.0  0.94730  0.59590  0.05230  1.0000 -0.1601844743
C   C13       1.0  0.40910  0.98210  0.98170  1.0000 0.0033092348
C   C14       1.0  0.98210  0.40910  0.01830  1.0000 0.0033092348
C   C15       1.0  0.59090  0.01790  0.01830  1.0000 0.0033092348
C   C16       1.0  0.01790  0.59090  0.98170  1.0000 0.0033092348
C   C17       1.0  0.50810  0.92990  0.92590  1.0000 -0.1601844743
C   C18       1.0  0.92990  0.50810  0.07410  1.0000 -0.1601844743
C   C19       1.0  0.49190  0.07010  0.07410  1.0000 -0.1601844743
C   C20       1.0  0.07010  0.49190  0.92590  1.0000 -0.1601844743
C   C21       1.0  0.31710  0.96070  0.95670  1.0000 0.142030096
C   C22       1.0  0.96070  0.31710  0.04330  1.0000 0.142030096
C   C23       1.0  0.68290  0.03930  0.04330  1.0000 0.142030096
C   C24       1.0  0.03930  0.68290  0.95670  1.0000 0.142030096
C   C25       1.0  0.03180  0.03180  0.50000  1.0000 0.4268635571
C   C26       1.0  0.96820  0.96820  0.50000  1.0000 0.4268635571
N   N1        1.0  0.76940  0.23060  0.78800  1.0000 -0.3097585231
N   N2        1.0  0.23060  0.76940  0.21200  1.0000 -0.3097585231
N   N3        1.0  0.88760  0.11240  0.82430  1.0000 -0.0542520076
N   N4        1.0  0.11240  0.88760  0.17570  1.0000 -0.0542520076
N   N5        1.0  0.92140  0.07860  0.73520  1.0000 -0.0612173698
N   N6        1.0  0.07860  0.92140  0.26480  1.0000 -0.0612173698
N   N7        1.0  0.82960  0.17040  0.63550  1.0000 -0.1223518268
N   N8        1.0  0.17040  0.82960  0.36450  1.0000 -0.1223518268
N   N9        1.0  0.23800  0.98160  0.02010  1.0000 -0.2895386309
N   N10       1.0  0.98160  0.23800  0.97990  1.0000 -0.2895386309
N   N11       1.0  0.76200  0.01840  0.97990  1.0000 -0.2895386309
N   N12       1.0  0.01840  0.76200  0.02010  1.0000 -0.2895386309
N   N13       1.0  0.16362  0.95922  0.96420  1.0000 -0.0612173698
N   N14       1.0  0.95922  0.16362  0.03580  1.0000 -0.0612173698
N   N15       1.0  0.83638  0.04078  0.03580  1.0000 -0.0612173698
N   N16       1.0  0.04078  0.83638  0.96420  1.0000 -0.0612173698
N   N17       1.0  0.20140  0.92300  0.87490  1.0000 -0.0691569239
N   N18       1.0  0.92300  0.20140  0.12510  1.0000 -0.0691569239
N   N19       1.0  0.79860  0.07700  0.12510  1.0000 -0.0691569239
N   N20       1.0  0.07700  0.79860  0.87490  1.0000 -0.0691569239
N   N21       1.0  0.29460  0.92540  0.86460  1.0000 -0.1685756386
N   N22       1.0  0.92540  0.29460  0.13540  1.0000 -0.1685756386
N   N23       1.0  0.70540  0.07460  0.13540  1.0000 -0.1685756386
N   N24       1.0  0.07460  0.70540  0.86460  1.0000 -0.1685756386
O   O1        1.0  0.10611  0.00471  0.59720  1.0000 -0.4841290057
O   O2        1.0  0.00471  0.10611  0.40280  1.0000 -0.485948805
O   O3        1.0  0.89389  0.99529  0.40280  1.0000 -0.485948805
O   O4        1.0  0.99529  0.89389  0.59720  1.0000 -0.485948805
