# DDEC6 charges by PACMAN v1.1 (https://github.com/mtap-research/PACMAN-charge/)
data_2012[Mn][nan]3[ASR]2
_chemical_formula_sum              "Mn6 H52 C88 O24"
_cell_length_a       16.3329
_cell_length_b       16.3329
_cell_length_c       18.68
_cell_angle_alpha    58.9433
_cell_angle_beta     121.057
_cell_angle_gamma    130.978

_symmetry_space_group_name_H-M    "P 1"
_symmetry_Int_Tables_number       1

loop_
  _symmetry_equiv_pos_as_xyz
  'x, y, z'

loop_
  _atom_site_type_symbol
  _atom_site_label
  _atom_site_symmetry_multiplicity
  _atom_site_fract_x
  _atom_site_fract_y
  _atom_site_fract_z
  _atom_site_occupancy
  _atom_site_charge
Mn  Mn1       1.0  0.54414  0.54414  0.75000  1.0000 1.0854414342
Mn  Mn2       1.0  0.45586  0.45586  0.25000  1.0000 1.0838217376
Mn  Mn3       1.0  0.58844  0.51766  0.60204  1.0000 0.989101374
Mn  Mn4       1.0  0.51766  0.58844  0.89796  1.0000 0.989101374
Mn  Mn5       1.0  0.41156  0.48234  0.39796  1.0000 0.989101374
Mn  Mn6       1.0  0.48234  0.41156  0.10204  1.0000 0.989101374
H   H1        1.0  0.94148  0.60812  0.74960  1.0000 0.1207810743
H   H2        1.0  0.60812  0.94148  0.75040  1.0000 0.1207810743
H   H3        1.0  0.05852  0.39188  0.25040  1.0000 0.1207810743
H   H4        1.0  0.39188  0.05852  0.24960  1.0000 0.1207810743
H   H5        1.0  0.12960  0.70300  0.81890  1.0000 0.1207810743
H   H6        1.0  0.70300  0.12960  0.68110  1.0000 0.1207810743
H   H7        1.0  0.87040  0.29700  0.18110  1.0000 0.1207810743
H   H8        1.0  0.29700  0.87040  0.31890  1.0000 0.1207810743
H   H9        1.0  0.07650  0.83190  0.90920  1.0000 0.1207810743
H   H10       1.0  0.83190  0.07650  0.59080  1.0000 0.1207810743
H   H11       1.0  0.92350  0.16810  0.09080  1.0000 0.1207810743
H   H12       1.0  0.16810  0.92350  0.40920  1.0000 0.1207810743
H   H13       1.0  0.88620  0.73240  0.84210  1.0000 0.1290889023
H   H14       1.0  0.73240  0.88620  0.65790  1.0000 0.1290889023
H   H15       1.0  0.11380  0.26760  0.15790  1.0000 0.1290889023
H   H16       1.0  0.26760  0.11380  0.34210  1.0000 0.1290889023
H   H17       1.0  0.25020  0.84000  0.97450  1.0000 0.1108115291
H   H18       1.0  0.84000  0.25020  0.52550  1.0000 0.1108115291
H   H19       1.0  0.74980  0.16000  0.02550  1.0000 0.1108115291
H   H20       1.0  0.16000  0.74980  0.47450  1.0000 0.1108115291
H   H21       1.0  0.22170  0.65250  0.04210  1.0000 0.1207810743
H   H22       1.0  0.65250  0.22170  0.45790  1.0000 0.1207810743
H   H23       1.0  0.77830  0.34750  0.95790  1.0000 0.1207810743
H   H24       1.0  0.34750  0.77830  0.54210  1.0000 0.1207810743
H   H25       1.0  0.29220  0.54440  0.08990  1.0000 0.1207810743
H   H26       1.0  0.54440  0.29220  0.41010  1.0000 0.1207810743
H   H27       1.0  0.70780  0.45560  0.91010  1.0000 0.1207810743
H   H28       1.0  0.45560  0.70780  0.58990  1.0000 0.1207810743
H   H29       1.0  0.46390  0.75870  0.91250  1.0000 0.1290889023
H   H30       1.0  0.75870  0.46390  0.58750  1.0000 0.1290889023
H   H31       1.0  0.53610  0.24130  0.08750  1.0000 0.1290889023
H   H32       1.0  0.24130  0.53610  0.41250  1.0000 0.1290889023
H   H33       1.0  0.39830  0.87270  0.86800  1.0000 0.1207810743
H   H34       1.0  0.87270  0.39830  0.63200  1.0000 0.1207810743
H   H35       1.0  0.60170  0.12730  0.13200  1.0000 0.1207810743
H   H36       1.0  0.12730  0.60170  0.36800  1.0000 0.1207810743
H   H37       1.0  0.38960  0.02280  0.97070  1.0000 0.1207810743
H   H38       1.0  0.02280  0.38960  0.52930  1.0000 0.1207810743
H   H39       1.0  0.61040  0.97720  0.02930  1.0000 0.1207810743
H   H40       1.0  0.97720  0.61040  0.47070  1.0000 0.1207810743
H   H41       1.0  0.47180  0.21040  0.89660  1.0000 0.1108115291
H   H42       1.0  0.21040  0.47180  0.60340  1.0000 0.1108115291
H   H43       1.0  0.52820  0.78960  0.10340  1.0000 0.1108115291
H   H44       1.0  0.78960  0.52820  0.39660  1.0000 0.1108115291
H   H45       1.0  0.33410  0.12950  0.67730  1.0000 0.1207810743
H   H46       1.0  0.12950  0.33410  0.82270  1.0000 0.1207810743
H   H47       1.0  0.66590  0.87050  0.32270  1.0000 0.1207810743
H   H48       1.0  0.87050  0.66590  0.17730  1.0000 0.1207810743
H   H49       1.0  0.24540  0.94160  0.75160  1.0000 0.1207810743
H   H50       1.0  0.94160  0.24540  0.74840  1.0000 0.1207810743
H   H51       1.0  0.75460  0.05840  0.24840  1.0000 0.1207810743
H   H52       1.0  0.05840  0.75460  0.25160  1.0000 0.1207810743
C   C1        1.0  0.77271  0.60129  0.74330  1.0000 0.5764857171
C   C2        1.0  0.60129  0.77271  0.75670  1.0000 0.5764857171
C   C3        1.0  0.22729  0.39871  0.25670  1.0000 0.5764857171
C   C4        1.0  0.39871  0.22729  0.24330  1.0000 0.5764857171
C   C5        1.0  0.89429  0.65991  0.78917  1.0000 -0.0477448093
C   C6        1.0  0.65991  0.89429  0.71083  1.0000 -0.0477448093
C   C7        1.0  0.10571  0.34009  0.21083  1.0000 -0.0477448093
C   C8        1.0  0.34009  0.10571  0.28917  1.0000 -0.0477448093
C   C9        1.0  0.96769  0.65231  0.78260  1.0000 -0.0978060805
C   C10       1.0  0.65231  0.96769  0.71740  1.0000 -0.0978060805
C   C11       1.0  0.03231  0.34769  0.21740  1.0000 -0.0978060805
C   C12       1.0  0.34769  0.03231  0.28260  1.0000 -0.0978060805
C   C13       1.0  0.08064  0.70936  0.82440  1.0000 -0.1623667523
C   C14       1.0  0.70936  0.08064  0.67560  1.0000 -0.1623667523
C   C15       1.0  0.91936  0.29064  0.17560  1.0000 -0.1623667523
C   C16       1.0  0.29064  0.91936  0.32440  1.0000 -0.1623667523
C   C17       1.0  0.12311  0.77509  0.87349  1.0000 0.0897899358
C   C18       1.0  0.77509  0.12311  0.62651  1.0000 0.0832881866
C   C19       1.0  0.87689  0.22491  0.12651  1.0000 0.0897899358
C   C20       1.0  0.22491  0.87689  0.37349  1.0000 0.0897899358
C   C21       1.0  0.04993  0.78527  0.87820  1.0000 -0.1527678852
C   C22       1.0  0.78527  0.04993  0.62180  1.0000 -0.1527678852
C   C23       1.0  0.95007  0.21473  0.12180  1.0000 -0.1527678852
C   C24       1.0  0.21473  0.95007  0.37820  1.0000 -0.1527678852
C   C25       1.0  0.93555  0.72625  0.83690  1.0000 -0.0912215485
C   C26       1.0  0.72625  0.93555  0.66310  1.0000 -0.0912215485
C   C27       1.0  0.06445  0.27375  0.16310  1.0000 -0.0912215485
C   C28       1.0  0.27375  0.06445  0.33690  1.0000 -0.0912215485
C   C29       1.0  0.24734  0.83894  0.92117  1.0000 -0.1527678852
C   C30       1.0  0.83894  0.24734  0.57883  1.0000 -0.1527678852
C   C31       1.0  0.75266  0.16106  0.07883  1.0000 -0.1527678852
C   C32       1.0  0.16106  0.75266  0.42117  1.0000 -0.1527678852
C   C33       1.0  0.30163  0.77361  0.94985  1.0000 0.0897899358
C   C34       1.0  0.77361  0.30163  0.55015  1.0000 0.0897899358
C   C35       1.0  0.69837  0.22639  0.05015  1.0000 0.0897899358
C   C36       1.0  0.22639  0.69837  0.44985  1.0000 0.0897899358
C   C37       1.0  0.27145  0.67515  0.01590  1.0000 -0.1527678852
C   C38       1.0  0.67515  0.27145  0.48410  1.0000 -0.1527678852
C   C39       1.0  0.72855  0.32485  0.98410  1.0000 -0.1623667523
C   C40       1.0  0.32485  0.72855  0.51590  1.0000 -0.1527678852
C   C41       1.0  0.31262  0.60958  0.04417  1.0000 -0.0912215485
C   C42       1.0  0.60958  0.31262  0.45583  1.0000 -0.0912215485
C   C43       1.0  0.68738  0.39042  0.95583  1.0000 -0.0912215485
C   C44       1.0  0.39042  0.68738  0.54417  1.0000 -0.0912215485
C   C45       1.0  0.38383  0.63977  0.00523  1.0000 -0.0402108418
C   C46       1.0  0.63977  0.38383  0.49477  1.0000 -0.0402108418
C   C47       1.0  0.61617  0.36023  0.99477  1.0000 -0.0402108418
C   C48       1.0  0.36023  0.61617  0.50523  1.0000 -0.0402108418
C   C49       1.0  0.41556  0.73764  0.93917  1.0000 -0.0912215485
C   C50       1.0  0.73764  0.41556  0.56083  1.0000 -0.0912215485
C   C51       1.0  0.58444  0.26236  0.06083  1.0000 -0.0912215485
C   C52       1.0  0.26236  0.58444  0.43917  1.0000 -0.0912215485
C   C53       1.0  0.37528  0.80572  0.91188  1.0000 -0.170031211
C   C54       1.0  0.80572  0.37528  0.58812  1.0000 -0.170031211
C   C55       1.0  0.62472  0.19428  0.08812  1.0000 -0.170031211
C   C56       1.0  0.19428  0.62472  0.41188  1.0000 -0.170031211
C   C57       1.0  0.42697  0.56743  0.03523  1.0000 0.6006557582
C   C58       1.0  0.56743  0.42697  0.46477  1.0000 0.6006557582
C   C59       1.0  0.57303  0.43257  0.96477  1.0000 0.6006557582
C   C60       1.0  0.43257  0.57303  0.53523  1.0000 0.6006557582
C   C61       1.0  0.30719  0.96141  0.86878  1.0000 0.0897899358
C   C62       1.0  0.96141  0.30719  0.63122  1.0000 0.0897899358
C   C63       1.0  0.69281  0.03859  0.13122  1.0000 0.0897899358
C   C64       1.0  0.03859  0.69281  0.36878  1.0000 0.0897899358
C   C65       1.0  0.37622  0.04358  0.91090  1.0000 -0.170031211
C   C66       1.0  0.04358  0.37622  0.58910  1.0000 -0.170031211
C   C67       1.0  0.62378  0.95642  0.08910  1.0000 -0.170031211
C   C68       1.0  0.95642  0.62378  0.41090  1.0000 -0.170031211
C   C69       1.0  0.42624  0.15656  0.86630  1.0000 -0.0978060805
C   C70       1.0  0.15656  0.42624  0.63370  1.0000 -0.0978060805
C   C71       1.0  0.57376  0.84344  0.13370  1.0000 -0.0978060805
C   C72       1.0  0.84344  0.57376  0.36630  1.0000 -0.0978060805
C   C73       1.0  0.40974  0.19106  0.77782  1.0000 -0.0279450962
C   C74       1.0  0.19106  0.40974  0.72218  1.0000 -0.0279450962
C   C75       1.0  0.59026  0.80894  0.22218  1.0000 -0.0279450962
C   C76       1.0  0.80894  0.59026  0.27782  1.0000 -0.0279450962
C   C77       1.0  0.34407  0.10913  0.73645  1.0000 -0.0978060805
C   C78       1.0  0.10913  0.34407  0.76355  1.0000 -0.0978060805
C   C79       1.0  0.65593  0.89087  0.26355  1.0000 -0.0978060805
C   C80       1.0  0.89087  0.65593  0.23645  1.0000 -0.0978060805
C   C81       1.0  0.29195  0.99565  0.78173  1.0000 -0.1623667523
C   C82       1.0  0.99565  0.29195  0.71827  1.0000 -0.1623667523
C   C83       1.0  0.70805  0.00435  0.21827  1.0000 -0.1623667523
C   C84       1.0  0.00435  0.70805  0.28173  1.0000 -0.1623667523
C   C85       1.0  0.46311  0.31449  0.73224  1.0000 0.5893458365
C   C86       1.0  0.31449  0.46311  0.76776  1.0000 0.5893458365
C   C87       1.0  0.53689  0.68551  0.26776  1.0000 0.5893458365
C   C88       1.0  0.68551  0.53689  0.23224  1.0000 0.5893458365
O   O1        1.0  0.70863  0.60743  0.75512  1.0000 -0.5586273434
O   O2        1.0  0.60743  0.70863  0.74488  1.0000 -0.5586273434
O   O3        1.0  0.29137  0.39257  0.24488  1.0000 -0.5586273434
O   O4        1.0  0.39257  0.29137  0.25512  1.0000 -0.5586273434
O   O5        1.0  0.74037  0.54937  0.69491  1.0000 -0.5281560483
O   O6        1.0  0.54937  0.74037  0.80509  1.0000 -0.5281560483
O   O7        1.0  0.25963  0.45063  0.30509  1.0000 -0.5281560483
O   O8        1.0  0.45063  0.25963  0.19491  1.0000 -0.5281560483
O   O9        1.0  0.46876  0.57896  0.98843  1.0000 -0.5586273434
O   O10       1.0  0.57896  0.46876  0.51157  1.0000 -0.5586273434
O   O11       1.0  0.53124  0.42104  0.01157  1.0000 -0.5586273434
O   O12       1.0  0.42104  0.53124  0.48843  1.0000 -0.5586273434
O   O13       1.0  0.41849  0.49307  0.10744  1.0000 -0.5716079386
O   O14       1.0  0.49307  0.41849  0.39256  1.0000 -0.5716079386
O   O15       1.0  0.58151  0.50693  0.89256  1.0000 -0.5716079386
O   O16       1.0  0.50693  0.58151  0.60744  1.0000 -0.5716079386
O   O17       1.0  0.47655  0.34645  0.65931  1.0000 -0.5483504297
O   O18       1.0  0.34645  0.47655  0.84069  1.0000 -0.5483504297
O   O19       1.0  0.52345  0.65355  0.34069  1.0000 -0.5483504297
O   O20       1.0  0.65355  0.52345  0.15931  1.0000 -0.5483504297
O   O21       1.0  0.49224  0.37842  0.76885  1.0000 -0.5586273434
O   O22       1.0  0.37842  0.49224  0.73115  1.0000 -0.5586273434
O   O23       1.0  0.50776  0.62158  0.23115  1.0000 -0.5586273434
O   O24       1.0  0.62158  0.50776  0.26885  1.0000 -0.5586273434
