# DDEC6 charges by PACMAN v1.1 (https://github.com/mtap-research/PACMAN-charge/)
data_2012[Zn][nan]3[ASR]15
_chemical_formula_sum              "Zn6 H18 C54 O36"
_cell_length_a       17.7296
_cell_length_b       17.7296
_cell_length_c       15.5954
_cell_angle_alpha    90
_cell_angle_beta     90
_cell_angle_gamma    132.699

_symmetry_space_group_name_H-M    "P 1"
_symmetry_Int_Tables_number       1

loop_
  _symmetry_equiv_pos_as_xyz
  'x, y, z'

loop_
  _atom_site_type_symbol
  _atom_site_label
  _atom_site_symmetry_multiplicity
  _atom_site_fract_x
  _atom_site_fract_y
  _atom_site_fract_z
  _atom_site_occupancy
  _atom_site_charge
Zn  Zn1       1.0  0.86987  0.36987  0.20274  1.0000 0.9579867687
Zn  Zn2       1.0  0.63013  0.13013  0.20274  1.0000 0.9579867687
Zn  Zn3       1.0  0.36987  0.86987  0.79726  1.0000 0.9579867687
Zn  Zn4       1.0  0.13013  0.63013  0.79726  1.0000 0.9579867687
Zn  Zn5       1.0  0.25000  0.25000  0.50000  1.0000 0.9944994118
Zn  Zn6       1.0  0.75000  0.75000  0.50000  1.0000 0.9944994118
H   H1        1.0  0.10930  0.60930  0.06360  1.0000 0.1389240626
H   H2        1.0  0.39070  0.89070  0.06360  1.0000 0.1389240626
H   H3        1.0  0.60930  0.10930  0.93640  1.0000 0.1389240626
H   H4        1.0  0.89070  0.39070  0.93640  1.0000 0.1389240626
H   H5        1.0  0.25000  0.75000  0.28350  1.0000 0.1269664731
H   H6        1.0  0.75000  0.25000  0.71650  1.0000 0.1269664731
H   H7        1.0  0.95830  0.04170  0.41850  1.0000 0.1389240626
H   H8        1.0  0.54170  0.45830  0.41850  1.0000 0.1389240626
H   H9        1.0  0.04170  0.95830  0.58150  1.0000 0.1389240626
H   H10       1.0  0.45830  0.54170  0.58150  1.0000 0.1389240626
H   H11       1.0  0.00360  0.27640  0.31630  1.0000 0.1389240626
H   H12       1.0  0.49640  0.22360  0.31630  1.0000 0.1389240626
H   H13       1.0  0.27640  0.00360  0.68370  1.0000 0.1389240626
H   H14       1.0  0.22360  0.49640  0.68370  1.0000 0.1389240626
H   H15       1.0  0.99640  0.72360  0.68370  1.0000 0.1389240626
H   H16       1.0  0.50360  0.77640  0.68370  1.0000 0.1389240626
H   H17       1.0  0.72360  0.99640  0.31630  1.0000 0.1389240626
H   H18       1.0  0.77640  0.50360  0.31630  1.0000 0.1389240626
C   C1        1.0  0.16610  0.66610  0.09320  1.0000 -0.0872126554
C   C2        1.0  0.33390  0.83390  0.09320  1.0000 -0.0872126554
C   C3        1.0  0.66610  0.16610  0.90680  1.0000 -0.0872126554
C   C4        1.0  0.83390  0.33390  0.90680  1.0000 -0.0872126554
C   C5        1.0  0.16570  0.66570  0.17870  1.0000 -0.0093892301
C   C6        1.0  0.33430  0.83430  0.17870  1.0000 -0.0093892301
C   C7        1.0  0.66570  0.16570  0.82130  1.0000 -0.0093892301
C   C8        1.0  0.83430  0.33430  0.82130  1.0000 -0.0093892301
C   C9        1.0  0.25000  0.75000  0.22390  1.0000 -0.0674867924
C   C10       1.0  0.75000  0.25000  0.77610  1.0000 -0.0674867924
C   C11       1.0  0.25000  0.75000  0.04790  1.0000 -0.018155649
C   C12       1.0  0.75000  0.25000  0.95210  1.0000 -0.018155649
C   C13       1.0  0.07200  0.57200  0.22520  1.0000 0.5590879138
C   C14       1.0  0.42800  0.92800  0.22520  1.0000 0.5590879138
C   C15       1.0  0.57200  0.07200  0.77480  1.0000 0.5590879138
C   C16       1.0  0.92800  0.42800  0.77480  1.0000 0.5590879138
C   C17       1.0  0.25000  0.75000  0.95210  1.0000 0.6084491179
C   C18       1.0  0.75000  0.25000  0.04790  1.0000 0.6084491179
C   C19       1.0  0.93270  0.06730  0.39170  1.0000 -0.0674867924
C   C20       1.0  0.56730  0.43270  0.39170  1.0000 -0.0674867924
C   C21       1.0  0.06730  0.93270  0.60830  1.0000 -0.0674867924
C   C22       1.0  0.43270  0.56730  0.60830  1.0000 -0.0674867924
C   C23       1.0  0.99990  0.17290  0.37170  1.0000 -0.0093892301
C   C24       1.0  0.50010  0.32710  0.37170  1.0000 -0.0093892301
C   C25       1.0  0.17290  0.99990  0.62830  1.0000 -0.0093892301
C   C26       1.0  0.32710  0.50010  0.62830  1.0000 -0.0093892301
C   C27       1.0  0.00010  0.82710  0.62830  1.0000 -0.0093892301
C   C28       1.0  0.49990  0.67290  0.62830  1.0000 -0.0093892301
C   C29       1.0  0.82710  0.00010  0.37170  1.0000 -0.0093892301
C   C30       1.0  0.67290  0.49990  0.37170  1.0000 -0.0093892301
C   C31       1.0  0.96050  0.20730  0.33070  1.0000 -0.0793591921
C   C32       1.0  0.53950  0.29270  0.33070  1.0000 -0.0793591921
C   C33       1.0  0.20730  0.96050  0.66930  1.0000 -0.0793591921
C   C34       1.0  0.29270  0.53950  0.66930  1.0000 -0.0793591921
C   C35       1.0  0.03950  0.79270  0.66930  1.0000 -0.0793591921
C   C36       1.0  0.46050  0.70730  0.66930  1.0000 -0.0793591921
C   C37       1.0  0.79270  0.03950  0.33070  1.0000 -0.0793591921
C   C38       1.0  0.70730  0.46050  0.33070  1.0000 -0.0793591921
C   C39       1.0  0.85800  0.14200  0.31000  1.0000 -0.0393867526
C   C40       1.0  0.64200  0.35800  0.31000  1.0000 -0.0393867526
C   C41       1.0  0.14200  0.85800  0.69000  1.0000 -0.0393867526
C   C42       1.0  0.35800  0.64200  0.69000  1.0000 -0.0393867526
C   C43       1.0  0.81680  0.18320  0.27030  1.0000 0.6084491179
C   C44       1.0  0.68320  0.31680  0.27030  1.0000 0.6084491179
C   C45       1.0  0.18320  0.81680  0.72970  1.0000 0.6084491179
C   C46       1.0  0.31680  0.68320  0.72970  1.0000 0.6084491179
C   C47       1.0  0.11040  0.24120  0.39770  1.0000 0.5590879138
C   C48       1.0  0.38960  0.25880  0.39770  1.0000 0.5590879138
C   C49       1.0  0.24120  0.11040  0.60230  1.0000 0.5590879138
C   C50       1.0  0.25880  0.38960  0.60230  1.0000 0.5590879138
C   C51       1.0  0.88960  0.75880  0.60230  1.0000 0.5590879138
C   C52       1.0  0.61040  0.74120  0.60230  1.0000 0.5590879138
C   C53       1.0  0.75880  0.88960  0.39770  1.0000 0.5590879138
C   C54       1.0  0.74120  0.61040  0.39770  1.0000 0.5590879138
O   O1        1.0  0.00180  0.50180  0.17930  1.0000 -0.4865007633
O   O2        1.0  0.49820  0.99820  0.17930  1.0000 -0.4865007633
O   O3        1.0  0.50180  0.00180  0.82070  1.0000 -0.4865007633
O   O4        1.0  0.99820  0.49820  0.82070  1.0000 -0.4865007633
O   O5        1.0  0.07040  0.57040  0.30360  1.0000 -0.4365837906
O   O6        1.0  0.42960  0.92960  0.30360  1.0000 -0.4365837906
O   O7        1.0  0.57040  0.07040  0.69640  1.0000 -0.4365837906
O   O8        1.0  0.92960  0.42960  0.69640  1.0000 -0.4365837906
O   O9        1.0  0.32770  0.82770  0.91620  1.0000 -0.5186090205
O   O10       1.0  0.17230  0.67230  0.91620  1.0000 -0.5186090205
O   O11       1.0  0.82770  0.32770  0.08380  1.0000 -0.5186090205
O   O12       1.0  0.67230  0.17230  0.08380  1.0000 -0.5186090205
O   O13       1.0  0.87784  0.27736  0.25480  1.0000 -0.5318398733
O   O14       1.0  0.62216  0.22264  0.25480  1.0000 -0.5318398733
O   O15       1.0  0.27736  0.87784  0.74520  1.0000 -0.5318398733
O   O16       1.0  0.22264  0.62216  0.74520  1.0000 -0.5318398733
O   O17       1.0  0.12216  0.72264  0.74520  1.0000 -0.5318398733
O   O18       1.0  0.37784  0.77736  0.74520  1.0000 -0.5318398733
O   O19       1.0  0.72264  0.12216  0.25480  1.0000 -0.5318398733
O   O20       1.0  0.77736  0.37784  0.25480  1.0000 -0.5318398733
O   O21       1.0  0.13290  0.19450  0.43240  1.0000 -0.4865007633
O   O22       1.0  0.36710  0.30550  0.43240  1.0000 -0.4865007633
O   O23       1.0  0.19450  0.13290  0.56760  1.0000 -0.4865007633
O   O24       1.0  0.30550  0.36710  0.56760  1.0000 -0.4865007633
O   O25       1.0  0.86710  0.80550  0.56760  1.0000 -0.4865007633
O   O26       1.0  0.63290  0.69450  0.56760  1.0000 -0.4865007633
O   O27       1.0  0.80550  0.86710  0.43240  1.0000 -0.4865007633
O   O28       1.0  0.69450  0.63290  0.43240  1.0000 -0.4865007633
O   O29       1.0  0.16870  0.33310  0.38420  1.0000 -0.3810925182
O   O30       1.0  0.33130  0.16690  0.38420  1.0000 -0.3810925182
O   O31       1.0  0.33310  0.16870  0.61580  1.0000 -0.3810925182
O   O32       1.0  0.16690  0.33130  0.61580  1.0000 -0.3810925182
O   O33       1.0  0.83130  0.66690  0.61580  1.0000 -0.3810925182
O   O34       1.0  0.66870  0.83310  0.61580  1.0000 -0.3810925182
O   O35       1.0  0.66690  0.83130  0.38420  1.0000 -0.3810925182
O   O36       1.0  0.83310  0.66870  0.38420  1.0000 -0.3810925182
