# DDEC6 charges by PACMAN v1.1 (https://github.com/mtap-research/PACMAN-charge/)
data_2012[CuMo][dia]3[ASR]1
_chemical_formula_sum              "Cu12 Mo4 H80 C100 S12 I4 N20"
_cell_length_a       15.0186
_cell_length_b       15.0186
_cell_length_c       17.947
_cell_angle_alpha    85.4492
_cell_angle_beta     94.5508
_cell_angle_gamma    89.7114

_symmetry_space_group_name_H-M    "P 1"
_symmetry_Int_Tables_number       1

loop_
  _symmetry_equiv_pos_as_xyz
  'x, y, z'

loop_
  _atom_site_type_symbol
  _atom_site_label
  _atom_site_symmetry_multiplicity
  _atom_site_fract_x
  _atom_site_fract_y
  _atom_site_fract_z
  _atom_site_occupancy
  _atom_site_charge
Cu  Cu1       1.0  0.19786  0.62768  0.51250  1.0000 0.2794610349
Cu  Cu2       1.0  0.62768  0.19786  0.98750  1.0000 0.2794610349
Cu  Cu3       1.0  0.28293  0.80791  0.64081  1.0000 0.3114060324
Cu  Cu4       1.0  0.80791  0.28293  0.85919  1.0000 0.3114060324
Cu  Cu5       1.0  0.40579  0.77035  0.47253  1.0000 0.2794610349
Cu  Cu6       1.0  0.77035  0.40579  0.02747  1.0000 0.2862516132
Cu  Cu7       1.0  0.80214  0.37232  0.48750  1.0000 0.2794610349
Cu  Cu8       1.0  0.37232  0.80214  0.01250  1.0000 0.2794610349
Cu  Cu9       1.0  0.71707  0.19209  0.35919  1.0000 0.3114060324
Cu  Cu10      1.0  0.19209  0.71707  0.14081  1.0000 0.3114060324
Cu  Cu11      1.0  0.59421  0.22965  0.52747  1.0000 0.2862516132
Cu  Cu12      1.0  0.22965  0.59421  0.97253  1.0000 0.2794610349
Mo  Mo1       1.0  0.23302  0.80460  0.49530  1.0000 0.7488776979
Mo  Mo2       1.0  0.80460  0.23302  0.00470  1.0000 0.7488776979
Mo  Mo3       1.0  0.76698  0.19540  0.50470  1.0000 0.7488776979
Mo  Mo4       1.0  0.19540  0.76698  0.99530  1.0000 0.7488776979
H   H1        1.0  0.05470  0.71710  0.39830  1.0000 0.0794580926
H   H2        1.0  0.71710  0.05470  0.10170  1.0000 0.0794580926
H   H3        1.0  0.96220  0.68640  0.29640  1.0000 0.118285605
H   H4        1.0  0.68640  0.96220  0.20360  1.0000 0.118285605
H   H5        1.0  0.99980  0.42440  0.36420  1.0000 0.1305829503
H   H6        1.0  0.42440  0.99980  0.13580  1.0000 0.135014185
H   H7        1.0  0.09100  0.46760  0.46260  1.0000 0.0927632923
H   H8        1.0  0.46760  0.09100  0.03740  1.0000 0.0927632923
H   H9        1.0  0.88810  0.56690  0.06980  1.0000 0.0996305665
H   H10       1.0  0.56690  0.88810  0.43020  1.0000 0.0996305665
H   H11       1.0  0.96640  0.61500  0.17500  1.0000 0.1305829503
H   H12       1.0  0.61500  0.96640  0.32500  1.0000 0.1305829503
H   H13       1.0  0.85110  0.42230  0.29640  1.0000 0.1305829503
H   H14       1.0  0.42230  0.85110  0.20360  1.0000 0.1305829503
H   H15       1.0  0.77940  0.37780  0.19150  1.0000 0.0996305665
H   H16       1.0  0.37780  0.77940  0.30850  1.0000 0.0996305665
H   H17       1.0  0.20100  0.99120  0.59920  1.0000 0.0996305665
H   H18       1.0  0.99120  0.20100  0.90080  1.0000 0.0996305665
H   H19       1.0  0.10290  0.08330  0.63460  1.0000 0.135014185
H   H20       1.0  0.08330  0.10290  0.86540  1.0000 0.1305829503
H   H21       1.0  0.09950  0.93930  0.83090  1.0000 0.1305829503
H   H22       1.0  0.93930  0.09950  0.66910  1.0000 0.1305829503
H   H23       1.0  0.19890  0.84170  0.78700  1.0000 0.0996305665
H   H24       1.0  0.84170  0.19890  0.71300  1.0000 0.0996305665
H   H25       1.0  0.42220  0.84420  0.76410  1.0000 0.0927632923
H   H26       1.0  0.84420  0.42220  0.73590  1.0000 0.0927632923
H   H27       1.0  0.51970  0.76750  0.84990  1.0000 0.1305829503
H   H28       1.0  0.76750  0.51970  0.65010  1.0000 0.1305829503
H   H29       1.0  0.42290  0.54190  0.77700  1.0000 0.1305829503
H   H30       1.0  0.54190  0.42290  0.72300  1.0000 0.1305829503
H   H31       1.0  0.33820  0.61980  0.68680  1.0000 0.0996305665
H   H32       1.0  0.61980  0.33820  0.81320  1.0000 0.0996305665
H   H33       1.0  0.58300  0.40380  0.96710  1.0000 0.0927632923
H   H34       1.0  0.40380  0.58300  0.53290  1.0000 0.0927632923
H   H35       1.0  0.48400  0.48040  0.88710  1.0000 0.1305829503
H   H36       1.0  0.48040  0.48400  0.61290  1.0000 0.1305829503
H   H37       1.0  0.64970  0.68730  0.88390  1.0000 0.1305829503
H   H38       1.0  0.68730  0.64970  0.61610  1.0000 0.1305829503
H   H39       1.0  0.74760  0.60060  0.96360  1.0000 0.0927632923
H   H40       1.0  0.60060  0.74760  0.53640  1.0000 0.0927632923
H   H41       1.0  0.94530  0.28290  0.60170  1.0000 0.0794580926
H   H42       1.0  0.28290  0.94530  0.89830  1.0000 0.0794580926
H   H43       1.0  0.03780  0.31360  0.70360  1.0000 0.118285605
H   H44       1.0  0.31360  0.03780  0.79640  1.0000 0.118285605
H   H45       1.0  0.00020  0.57560  0.63580  1.0000 0.135014185
H   H46       1.0  0.57560  0.00020  0.86420  1.0000 0.135014185
H   H47       1.0  0.90900  0.53240  0.53740  1.0000 0.0996305665
H   H48       1.0  0.53240  0.90900  0.96260  1.0000 0.0927632923
H   H49       1.0  0.11190  0.43310  0.93020  1.0000 0.0996305665
H   H50       1.0  0.43310  0.11190  0.56980  1.0000 0.0996305665
H   H51       1.0  0.03360  0.38500  0.82500  1.0000 0.1305829503
H   H52       1.0  0.38500  0.03360  0.67500  1.0000 0.1305829503
H   H53       1.0  0.14890  0.57770  0.70360  1.0000 0.1305829503
H   H54       1.0  0.57770  0.14890  0.79640  1.0000 0.1305829503
H   H55       1.0  0.22060  0.62220  0.80850  1.0000 0.0996305665
H   H56       1.0  0.62220  0.22060  0.69150  1.0000 0.0996305665
H   H57       1.0  0.79900  0.00880  0.40080  1.0000 0.0996305665
H   H58       1.0  0.00880  0.79900  0.09920  1.0000 0.0996305665
H   H59       1.0  0.89710  0.91670  0.36540  1.0000 0.1305829503
H   H60       1.0  0.91670  0.89710  0.13460  1.0000 0.1305829503
H   H61       1.0  0.90050  0.06070  0.16910  1.0000 0.1305829503
H   H62       1.0  0.06070  0.90050  0.33090  1.0000 0.1305829503
H   H63       1.0  0.80110  0.15830  0.21300  1.0000 0.0996305665
H   H64       1.0  0.15830  0.80110  0.28700  1.0000 0.0996305665
H   H65       1.0  0.57780  0.15580  0.23590  1.0000 0.0927632923
H   H66       1.0  0.15580  0.57780  0.26410  1.0000 0.0927632923
H   H67       1.0  0.48030  0.23250  0.15010  1.0000 0.1305829503
H   H68       1.0  0.23250  0.48030  0.34990  1.0000 0.1305829503
H   H69       1.0  0.57710  0.45810  0.22300  1.0000 0.1305829503
H   H70       1.0  0.45810  0.57710  0.27700  1.0000 0.1305829503
H   H71       1.0  0.66180  0.38020  0.31320  1.0000 0.0996305665
H   H72       1.0  0.38020  0.66180  0.18680  1.0000 0.0996305665
H   H73       1.0  0.41700  0.59620  0.03290  1.0000 0.0927632923
H   H74       1.0  0.59620  0.41700  0.46710  1.0000 0.0927632923
H   H75       1.0  0.51600  0.51960  0.11290  1.0000 0.1305829503
H   H76       1.0  0.51960  0.51600  0.38710  1.0000 0.1305829503
H   H77       1.0  0.35030  0.31270  0.11610  1.0000 0.1305829503
H   H78       1.0  0.31270  0.35030  0.38390  1.0000 0.1305829503
H   H79       1.0  0.25240  0.39940  0.03640  1.0000 0.0927632923
H   H80       1.0  0.39940  0.25240  0.46360  1.0000 0.0927632923
C   C1        1.0  0.04330  0.65750  0.39090  1.0000 0.0927632923
C   C2        1.0  0.65750  0.04330  0.10910  1.0000 0.0927632923
C   C3        1.0  0.98740  0.64020  0.32890  1.0000 -0.2273367855
C   C4        1.0  0.64020  0.98740  0.17110  1.0000 -0.2273367855
C   C5        1.0  0.96970  0.55010  0.31620  1.0000 0.1080692064
C   C6        1.0  0.55010  0.96970  0.18380  1.0000 0.1080692064
C   C7        1.0  0.01000  0.48480  0.36930  1.0000 -0.1916277179
C   C8        1.0  0.48480  0.01000  0.13070  1.0000 -0.1916277179
C   C9        1.0  0.06430  0.51130  0.42840  1.0000 0.0612522525
C   C10       1.0  0.51130  0.06430  0.07160  1.0000 0.0612522525
C   C11       1.0  0.88160  0.53640  0.11620  1.0000 0.0712525313
C   C12       1.0  0.53640  0.88160  0.38380  1.0000 0.0712525313
C   C13       1.0  0.92790  0.56690  0.17970  1.0000 -0.1916277179
C   C14       1.0  0.56690  0.92790  0.32030  1.0000 -0.1916277179
C   C15       1.0  0.91640  0.52600  0.24810  1.0000 0.0996305665
C   C16       1.0  0.52600  0.91640  0.25190  1.0000 0.0996305665
C   C17       1.0  0.85980  0.45300  0.25050  1.0000 -0.1819619971
C   C18       1.0  0.45300  0.85980  0.24950  1.0000 -0.1819619971
C   C19       1.0  0.81770  0.42610  0.18750  1.0000 0.0712525313
C   C20       1.0  0.42610  0.81770  0.31250  1.0000 0.0712525313
C   C21       1.0  0.18000  0.97980  0.64640  1.0000 0.0160715815
C   C22       1.0  0.97980  0.18000  0.85360  1.0000 0.0160715815
C   C23       1.0  0.12210  0.03450  0.66720  1.0000 -0.1916277179
C   C24       1.0  0.03450  0.12210  0.83280  1.0000 -0.1916277179
C   C25       1.0  0.08730  0.02250  0.73770  1.0000 0.0927632923
C   C26       1.0  0.02250  0.08730  0.76230  1.0000 0.0927632923
C   C27       1.0  0.11870  0.95010  0.78300  1.0000 -0.2018291392
C   C28       1.0  0.95010  0.11870  0.71700  1.0000 -0.2018291392
C   C29       1.0  0.17980  0.89220  0.75650  1.0000 0.0794580926
C   C30       1.0  0.89220  0.17980  0.74350  1.0000 0.0794580926
C   C31       1.0  0.42290  0.78210  0.76640  1.0000 0.0712525313
C   C32       1.0  0.78210  0.42290  0.73360  1.0000 0.0712525313
C   C33       1.0  0.48270  0.73630  0.81730  1.0000 -0.174816868
C   C34       1.0  0.73630  0.48270  0.68270  1.0000 -0.174816868
C   C35       1.0  0.48800  0.64540  0.82050  1.0000 0.1080692064
C   C36       1.0  0.64540  0.48800  0.67950  1.0000 0.1080692064
C   C37       1.0  0.42630  0.60390  0.77290  1.0000 -0.1916277179
C   C38       1.0  0.60390  0.42630  0.72710  1.0000 -0.1916277179
C   C39       1.0  0.37230  0.65030  0.72200  1.0000 0.0612522525
C   C40       1.0  0.65030  0.37230  0.77800  1.0000 0.0612522525
C   C41       1.0  0.59750  0.46130  0.94910  1.0000 0.0521423493
C   C42       1.0  0.46130  0.59750  0.55090  1.0000 0.0521423493
C   C43       1.0  0.53720  0.50760  0.90230  1.0000 -0.1819619971
C   C44       1.0  0.50760  0.53720  0.59770  1.0000 -0.1819619971
C   C45       1.0  0.55190  0.59390  0.87600  1.0000 0.1080692064
C   C46       1.0  0.59390  0.55190  0.62400  1.0000 0.0996305665
C   C47       1.0  0.63470  0.62930  0.89980  1.0000 -0.2018291392
C   C48       1.0  0.62930  0.63470  0.60020  1.0000 -0.2018291392
C   C49       1.0  0.69340  0.57600  0.94760  1.0000 0.0794580926
C   C50       1.0  0.57600  0.69340  0.55240  1.0000 0.0712525313
C   C51       1.0  0.95670  0.34250  0.60910  1.0000 0.0927632923
C   C52       1.0  0.34250  0.95670  0.89090  1.0000 0.0927632923
C   C53       1.0  0.01260  0.35980  0.67110  1.0000 -0.2273367855
C   C54       1.0  0.35980  0.01260  0.82890  1.0000 -0.2273367855
C   C55       1.0  0.03030  0.44990  0.68380  1.0000 0.1080692064
C   C56       1.0  0.44990  0.03030  0.81620  1.0000 0.1080692064
C   C57       1.0  0.99000  0.51520  0.63070  1.0000 -0.1916277179
C   C58       1.0  0.51520  0.99000  0.86930  1.0000 -0.1916277179
C   C59       1.0  0.93570  0.48870  0.57160  1.0000 0.0612522525
C   C60       1.0  0.48870  0.93570  0.92840  1.0000 0.0612522525
C   C61       1.0  0.11840  0.46360  0.88380  1.0000 0.0712525313
C   C62       1.0  0.46360  0.11840  0.61620  1.0000 0.0712525313
C   C63       1.0  0.07210  0.43310  0.82030  1.0000 -0.1916277179
C   C64       1.0  0.43310  0.07210  0.67970  1.0000 -0.1916277179
C   C65       1.0  0.08360  0.47400  0.75190  1.0000 0.0996305665
C   C66       1.0  0.47400  0.08360  0.74810  1.0000 0.0996305665
C   C67       1.0  0.14020  0.54700  0.74950  1.0000 -0.1819619971
C   C68       1.0  0.54700  0.14020  0.75050  1.0000 -0.1819619971
C   C69       1.0  0.18230  0.57390  0.81250  1.0000 0.0712525313
C   C70       1.0  0.57390  0.18230  0.68750  1.0000 0.0712525313
C   C71       1.0  0.82000  0.02020  0.35360  1.0000 0.0160715815
C   C72       1.0  0.02020  0.82000  0.14640  1.0000 0.0160715815
C   C73       1.0  0.87790  0.96550  0.33280  1.0000 -0.1916277179
C   C74       1.0  0.96550  0.87790  0.16720  1.0000 -0.1916277179
C   C75       1.0  0.91270  0.97750  0.26230  1.0000 0.0927632923
C   C76       1.0  0.97750  0.91270  0.23770  1.0000 0.0927632923
C   C77       1.0  0.88130  0.04990  0.21700  1.0000 -0.2018291392
C   C78       1.0  0.04990  0.88130  0.28300  1.0000 -0.2018291392
C   C79       1.0  0.82020  0.10780  0.24350  1.0000 0.0794580926
C   C80       1.0  0.10780  0.82020  0.25650  1.0000 0.0794580926
C   C81       1.0  0.57710  0.21790  0.23360  1.0000 0.0712525313
C   C82       1.0  0.21790  0.57710  0.26640  1.0000 0.0712525313
C   C83       1.0  0.51730  0.26370  0.18270  1.0000 -0.174816868
C   C84       1.0  0.26370  0.51730  0.31730  1.0000 -0.174816868
C   C85       1.0  0.51200  0.35460  0.17950  1.0000 0.1080692064
C   C86       1.0  0.35460  0.51200  0.32050  1.0000 0.1080692064
C   C87       1.0  0.57370  0.39610  0.22710  1.0000 -0.1916277179
C   C88       1.0  0.39610  0.57370  0.27290  1.0000 -0.1916277179
C   C89       1.0  0.62770  0.34970  0.27800  1.0000 0.0612522525
C   C90       1.0  0.34970  0.62770  0.22200  1.0000 0.0612522525
C   C91       1.0  0.40250  0.53870  0.05090  1.0000 0.0521423493
C   C92       1.0  0.53870  0.40250  0.44910  1.0000 0.0521423493
C   C93       1.0  0.46280  0.49240  0.09770  1.0000 -0.1819619971
C   C94       1.0  0.49240  0.46280  0.40230  1.0000 -0.1819619971
C   C95       1.0  0.44810  0.40610  0.12400  1.0000 0.1080692064
C   C96       1.0  0.40610  0.44810  0.37600  1.0000 0.1080692064
C   C97       1.0  0.36530  0.37070  0.10020  1.0000 -0.2018291392
C   C98       1.0  0.37070  0.36530  0.39980  1.0000 -0.2018291392
C   C99       1.0  0.30660  0.42400  0.05240  1.0000 0.0794580926
C   C100      1.0  0.42400  0.30660  0.44760  1.0000 0.0712525313
S   S1        1.0  0.16347  0.73279  0.58949  1.0000 -0.5264857623
S   S2        1.0  0.73279  0.16347  0.91051  1.0000 -0.5264857623
S   S3        1.0  0.35537  0.87475  0.54490  1.0000 -0.5660123738
S   S4        1.0  0.87475  0.35537  0.95510  1.0000 -0.5660123738
S   S5        1.0  0.28038  0.69996  0.42382  1.0000 -0.548995516
S   S6        1.0  0.69996  0.28038  0.07618  1.0000 -0.548995516
S   S7        1.0  0.83653  0.26721  0.41051  1.0000 -0.5264857623
S   S8        1.0  0.26721  0.83653  0.08949  1.0000 -0.5264857623
S   S9        1.0  0.64463  0.12525  0.45510  1.0000 -0.5660123738
S   S10       1.0  0.12525  0.64463  0.04490  1.0000 -0.5660123738
S   S11       1.0  0.71962  0.30004  0.57618  1.0000 -0.548995516
S   S12       1.0  0.30004  0.71962  0.92382  1.0000 -0.548995516
I   I1        1.0  0.24634  0.48218  0.57039  1.0000 -0.5010751995
I   I2        1.0  0.48218  0.24634  0.92961  1.0000 -0.5010751995
I   I3        1.0  0.75366  0.51782  0.42961  1.0000 -0.5010751995
I   I4        1.0  0.51782  0.75366  0.07039  1.0000 -0.5010751995
N   N1        1.0  0.08090  0.59850  0.43940  1.0000 -0.2018291392
N   N2        1.0  0.59850  0.08090  0.06060  1.0000 -0.2018291392
N   N3        1.0  0.82830  0.46550  0.11920  1.0000 -0.1916277179
N   N4        1.0  0.46550  0.82830  0.38080  1.0000 -0.1916277179
N   N5        1.0  0.21200  0.90600  0.69000  1.0000 -0.1916277179
N   N6        1.0  0.90600  0.21200  0.81000  1.0000 -0.1916277179
N   N7        1.0  0.36490  0.74030  0.71930  1.0000 -0.1916277179
N   N8        1.0  0.74030  0.36490  0.78070  1.0000 -0.1916277179
N   N9        1.0  0.67800  0.49320  0.97170  1.0000 -0.1819619971
N   N10       1.0  0.49320  0.67800  0.52830  1.0000 -0.1819619971
N   N11       1.0  0.91910  0.40150  0.56060  1.0000 -0.2018291392
N   N12       1.0  0.40150  0.91910  0.93940  1.0000 -0.2018291392
N   N13       1.0  0.17170  0.53450  0.88080  1.0000 -0.1916277179
N   N14       1.0  0.53450  0.17170  0.61920  1.0000 -0.1916277179
N   N15       1.0  0.78800  0.09400  0.31000  1.0000 -0.1916277179
N   N16       1.0  0.09400  0.78800  0.19000  1.0000 -0.1916277179
N   N17       1.0  0.63510  0.25970  0.28070  1.0000 -0.1916277179
N   N18       1.0  0.25970  0.63510  0.21930  1.0000 -0.1916277179
N   N19       1.0  0.32200  0.50680  0.02830  1.0000 -0.1819619971
N   N20       1.0  0.50680  0.32200  0.47170  1.0000 -0.1819619971
