# DDEC6 charges by PACMAN v1.1 (https://github.com/mtap-research/PACMAN-charge/)
data_2012[Zn][nan]3[ASR]30
_chemical_formula_sum              "Zn12 H24 C72 O48"
_cell_length_a       16.7342
_cell_length_b       16.7342
_cell_length_c       27.629
_cell_angle_alpha    73.0292
_cell_angle_beta     106.971
_cell_angle_gamma    137.295

_symmetry_space_group_name_H-M    "P 1"
_symmetry_Int_Tables_number       1

loop_
  _symmetry_equiv_pos_as_xyz
  'x, y, z'

loop_
  _atom_site_type_symbol
  _atom_site_label
  _atom_site_symmetry_multiplicity
  _atom_site_fract_x
  _atom_site_fract_y
  _atom_site_fract_z
  _atom_site_occupancy
  _atom_site_charge
Zn  Zn1       1.0  0.36251  0.84149  0.12113  1.0000 0.9467308743
Zn  Zn2       1.0  0.84149  0.36251  0.37887  1.0000 0.9432894511
Zn  Zn3       1.0  0.63749  0.15851  0.87887  1.0000 0.9432894511
Zn  Zn4       1.0  0.15851  0.63749  0.62113  1.0000 0.9467308743
Zn  Zn5       1.0  0.09129  0.73211  0.12460  1.0000 0.985506825
Zn  Zn6       1.0  0.73211  0.09129  0.37540  1.0000 0.985506825
Zn  Zn7       1.0  0.90871  0.26789  0.87540  1.0000 0.985506825
Zn  Zn8       1.0  0.26789  0.90871  0.62460  1.0000 0.985506825
Zn  Zn9       1.0  0.76573  0.71515  0.82039  1.0000 0.9467308743
Zn  Zn10      1.0  0.71515  0.76573  0.67961  1.0000 0.9467308743
Zn  Zn11      1.0  0.23427  0.28485  0.17961  1.0000 0.9467308743
Zn  Zn12      1.0  0.28485  0.23427  0.32039  1.0000 0.9467308743
H   H1        1.0  0.02630  0.78910  0.96110  1.0000 0.1233479714
H   H2        1.0  0.78910  0.02630  0.53890  1.0000 0.1233479714
H   H3        1.0  0.97370  0.21090  0.03890  1.0000 0.1233479714
H   H4        1.0  0.21090  0.97370  0.46110  1.0000 0.1233479714
H   H5        1.0  0.19910  0.98150  0.83580  1.0000 0.1233479714
H   H6        1.0  0.98150  0.19910  0.66420  1.0000 0.1233479714
H   H7        1.0  0.80090  0.01850  0.16420  1.0000 0.1233479714
H   H8        1.0  0.01850  0.80090  0.33580  1.0000 0.1233479714
H   H9        1.0  0.36660  0.96740  0.97150  1.0000 0.133236028
H   H10       1.0  0.96740  0.36660  0.52850  1.0000 0.133236028
H   H11       1.0  0.63340  0.03260  0.02850  1.0000 0.133236028
H   H12       1.0  0.03260  0.63340  0.47150  1.0000 0.133236028
H   H13       1.0  0.05180  0.52220  0.26080  1.0000 0.133236028
H   H14       1.0  0.52220  0.05180  0.23920  1.0000 0.133236028
H   H15       1.0  0.94820  0.47780  0.73920  1.0000 0.133236028
H   H16       1.0  0.47780  0.94820  0.76080  1.0000 0.133236028
H   H17       1.0  0.05250  0.27230  0.32000  1.0000 0.133236028
H   H18       1.0  0.27230  0.05250  0.18000  1.0000 0.133236028
H   H19       1.0  0.94750  0.72770  0.68000  1.0000 0.133236028
H   H20       1.0  0.72770  0.94750  0.82000  1.0000 0.133236028
H   H21       1.0  0.23840  0.51000  0.20270  1.0000 0.135443013
H   H22       1.0  0.51000  0.23840  0.29730  1.0000 0.135443013
H   H23       1.0  0.76160  0.49000  0.79730  1.0000 0.135443013
H   H24       1.0  0.49000  0.76160  0.70270  1.0000 0.135443013
C   C1        1.0  0.19554  0.87126  0.97403  1.0000 -0.0356013311
C   C2        1.0  0.87126  0.19554  0.52597  1.0000 -0.0311263381
C   C3        1.0  0.80446  0.12874  0.02597  1.0000 -0.0311263381
C   C4        1.0  0.12874  0.80446  0.47403  1.0000 -0.0311263381
C   C5        1.0  0.09406  0.83714  0.94540  1.0000 -0.0826658534
C   C6        1.0  0.83714  0.09406  0.55460  1.0000 -0.0826658534
C   C7        1.0  0.90594  0.16286  0.05460  1.0000 -0.0826658534
C   C8        1.0  0.16286  0.90594  0.44540  1.0000 -0.0826658534
C   C9        1.0  0.09143  0.87417  0.89250  1.0000 -0.0356013311
C   C10       1.0  0.87417  0.09143  0.60750  1.0000 -0.0311263381
C   C11       1.0  0.90857  0.12583  0.10750  1.0000 -0.0356013311
C   C12       1.0  0.12583  0.90857  0.39250  1.0000 -0.0356013311
C   C13       1.0  0.19778  0.95262  0.87018  1.0000 -0.0826658534
C   C14       1.0  0.95262  0.19778  0.62982  1.0000 -0.0826658534
C   C15       1.0  0.80222  0.04738  0.12982  1.0000 -0.0826658534
C   C16       1.0  0.04738  0.80222  0.37018  1.0000 -0.0826658534
C   C17       1.0  0.30069  0.98711  0.89915  1.0000 -0.0207695473
C   C18       1.0  0.98711  0.30069  0.60085  1.0000 -0.0207695473
C   C19       1.0  0.69931  0.01289  0.10085  1.0000 -0.0207695473
C   C20       1.0  0.01289  0.69931  0.39915  1.0000 -0.0207695473
C   C21       1.0  0.29860  0.94520  0.95182  1.0000 -0.0868086929
C   C22       1.0  0.94520  0.29860  0.54818  1.0000 -0.0868086929
C   C23       1.0  0.70140  0.05480  0.04818  1.0000 -0.0868086929
C   C24       1.0  0.05480  0.70140  0.45182  1.0000 -0.0868086929
C   C25       1.0  0.19675  0.82985  0.03048  1.0000 0.6158080322
C   C26       1.0  0.82985  0.19675  0.46952  1.0000 0.6140411122
C   C27       1.0  0.80325  0.17015  0.96952  1.0000 0.6140411122
C   C28       1.0  0.17015  0.80325  0.53048  1.0000 0.6158080322
C   C29       1.0  0.98095  0.83105  0.86100  1.0000 0.5388052685
C   C30       1.0  0.83105  0.98095  0.63900  1.0000 0.5388052685
C   C31       1.0  0.01905  0.16895  0.13900  1.0000 0.5388052685
C   C32       1.0  0.16895  0.01905  0.36100  1.0000 0.5388052685
C   C33       1.0  0.41140  0.06280  0.87380  1.0000 0.5388052685
C   C34       1.0  0.06280  0.41140  0.62620  1.0000 0.5388052685
C   C35       1.0  0.58860  0.93720  0.12620  1.0000 0.5388052685
C   C36       1.0  0.93720  0.58860  0.37380  1.0000 0.5388052685
C   C37       1.0  0.15340  0.53440  0.22540  1.0000 -0.0311263381
C   C38       1.0  0.53440  0.15340  0.27460  1.0000 -0.0311263381
C   C39       1.0  0.84660  0.46560  0.77460  1.0000 -0.0311263381
C   C40       1.0  0.46560  0.84660  0.72540  1.0000 -0.0311263381
C   C41       1.0  0.07685  0.48755  0.26089  1.0000 -0.0868086929
C   C42       1.0  0.48755  0.07685  0.23911  1.0000 -0.0868086929
C   C43       1.0  0.92315  0.51245  0.73911  1.0000 -0.0868086929
C   C44       1.0  0.51245  0.92315  0.76089  1.0000 -0.0868086929
C   C45       1.0  0.04018  0.39002  0.29557  1.0000 -0.0311263381
C   C46       1.0  0.39002  0.04018  0.20443  1.0000 -0.0311263381
C   C47       1.0  0.95982  0.60998  0.70443  1.0000 -0.0311263381
C   C48       1.0  0.60998  0.95982  0.79557  1.0000 -0.0311263381
C   C49       1.0  0.07808  0.33812  0.29661  1.0000 -0.0868086929
C   C50       1.0  0.33812  0.07808  0.20339  1.0000 -0.0868086929
C   C51       1.0  0.92192  0.66188  0.70339  1.0000 -0.0868086929
C   C52       1.0  0.66188  0.92192  0.79661  1.0000 -0.0868086929
C   C53       1.0  0.15500  0.38580  0.26210  1.0000 -0.0207695473
C   C54       1.0  0.38580  0.15500  0.23790  1.0000 -0.0207695473
C   C55       1.0  0.84500  0.61420  0.73790  1.0000 -0.0207695473
C   C56       1.0  0.61420  0.84500  0.76210  1.0000 -0.0207695473
C   C57       1.0  0.18999  0.48101  0.22637  1.0000 -0.0868086929
C   C58       1.0  0.48101  0.18999  0.27363  1.0000 -0.0826658534
C   C59       1.0  0.81001  0.51899  0.77363  1.0000 -0.0868086929
C   C60       1.0  0.51899  0.81001  0.72637  1.0000 -0.0826658534
C   C61       1.0  0.18975  0.63665  0.18628  1.0000 0.5943216009
C   C62       1.0  0.63665  0.18975  0.31372  1.0000 0.5943216009
C   C63       1.0  0.81025  0.36335  0.81372  1.0000 0.5943216009
C   C64       1.0  0.36335  0.81025  0.68628  1.0000 0.5943216009
C   C65       1.0  0.95555  0.33805  0.33164  1.0000 0.5943216009
C   C66       1.0  0.33805  0.95555  0.16836  1.0000 0.6013959868
C   C67       1.0  0.04445  0.66195  0.66836  1.0000 0.6013959868
C   C68       1.0  0.66195  0.04445  0.83164  1.0000 0.5943216009
C   C69       1.0  0.19652  0.33048  0.26190  1.0000 0.6013959868
C   C70       1.0  0.33048  0.19652  0.23810  1.0000 0.6013959868
C   C71       1.0  0.80348  0.66952  0.73810  1.0000 0.6013959868
C   C72       1.0  0.66952  0.80348  0.76190  1.0000 0.6013959868
O   O1        1.0  0.28679  0.85021  0.05266  1.0000 -0.5382475855
O   O2        1.0  0.85021  0.28679  0.44734  1.0000 -0.5382475855
O   O3        1.0  0.71321  0.14979  0.94734  1.0000 -0.5382475855
O   O4        1.0  0.14979  0.71321  0.55266  1.0000 -0.5382475855
O   O5        1.0  0.10744  0.77596  0.05090  1.0000 -0.5639974402
O   O6        1.0  0.77596  0.10744  0.44910  1.0000 -0.5639974402
O   O7        1.0  0.89256  0.22404  0.94910  1.0000 -0.5639974402
O   O8        1.0  0.22404  0.89256  0.55090  1.0000 -0.5639974402
O   O9        1.0  0.88494  0.75286  0.88085  1.0000 -0.5382475855
O   O10       1.0  0.75286  0.88494  0.61915  1.0000 -0.5382475855
O   O11       1.0  0.11506  0.24714  0.11915  1.0000 -0.5382475855
O   O12       1.0  0.24714  0.11506  0.38085  1.0000 -0.5382475855
O   O13       1.0  0.98124  0.86956  0.81307  1.0000 -0.5118310409
O   O14       1.0  0.86956  0.98124  0.68693  1.0000 -0.5118310409
O   O15       1.0  0.01876  0.13044  0.18693  1.0000 -0.5118310409
O   O16       1.0  0.13044  0.01876  0.31307  1.0000 -0.5118310409
O   O17       1.0  0.40700  0.08800  0.82818  1.0000 -0.4325685727
O   O18       1.0  0.08800  0.40700  0.67182  1.0000 -0.4239677416
O   O19       1.0  0.59300  0.91200  0.17182  1.0000 -0.4239677416
O   O20       1.0  0.91200  0.59300  0.32818  1.0000 -0.4325685727
O   O21       1.0  0.50107  0.09153  0.90458  1.0000 -0.5170322038
O   O22       1.0  0.09153  0.50107  0.59542  1.0000 -0.5170322038
O   O23       1.0  0.49893  0.90847  0.09542  1.0000 -0.5170322038
O   O24       1.0  0.90847  0.49893  0.40458  1.0000 -0.5118310409
O   O25       1.0  0.26179  0.67821  0.15675  1.0000 -0.550238453
O   O26       1.0  0.67821  0.26179  0.34325  1.0000 -0.550238453
O   O27       1.0  0.73821  0.32179  0.84325  1.0000 -0.550238453
O   O28       1.0  0.32179  0.73821  0.65675  1.0000 -0.550238453
O   O29       1.0  0.14624  0.67416  0.18508  1.0000 -0.5803781824
O   O30       1.0  0.67416  0.14624  0.31492  1.0000 -0.5803781824
O   O31       1.0  0.85376  0.32584  0.81492  1.0000 -0.5803781824
O   O32       1.0  0.32584  0.85376  0.68508  1.0000 -0.5803781824
O   O33       1.0  0.93907  0.39973  0.33384  1.0000 -0.5382475855
O   O34       1.0  0.39973  0.93907  0.16616  1.0000 -0.5382475855
O   O35       1.0  0.06093  0.60027  0.66616  1.0000 -0.5382475855
O   O36       1.0  0.60027  0.06093  0.83384  1.0000 -0.5382475855
O   O37       1.0  0.90520  0.23600  0.35697  1.0000 -0.5803781824
O   O38       1.0  0.23600  0.90520  0.14303  1.0000 -0.5803781824
O   O39       1.0  0.09480  0.76400  0.64303  1.0000 -0.5803781824
O   O40       1.0  0.76400  0.09480  0.85697  1.0000 -0.5803781824
O   O41       1.0  0.17757  0.25523  0.29943  1.0000 -0.5382475855
O   O42       1.0  0.25523  0.17757  0.20057  1.0000 -0.5382475855
O   O43       1.0  0.82243  0.74477  0.70057  1.0000 -0.5382475855
O   O44       1.0  0.74477  0.82243  0.79943  1.0000 -0.5382475855
O   O45       1.0  0.25406  0.36854  0.22591  1.0000 -0.5803781824
O   O46       1.0  0.36854  0.25406  0.27409  1.0000 -0.5803781824
O   O47       1.0  0.74594  0.63146  0.77409  1.0000 -0.5803781824
O   O48       1.0  0.63146  0.74594  0.72591  1.0000 -0.5803781824
