# DDEC6 charges by PACMAN v1.1 (https://github.com/mtap-research/PACMAN-charge/)
data_2012[Zn][pts]3[ASR]1
_chemical_formula_sum              "Zn8 H64 C112 O40"
_cell_length_a       15.8085
_cell_length_b       15.8085
_cell_length_c       21.0207
_cell_angle_alpha    85.2861
_cell_angle_beta     94.7139
_cell_angle_gamma    119.429

_symmetry_space_group_name_H-M    "P 1"
_symmetry_Int_Tables_number       1

loop_
  _symmetry_equiv_pos_as_xyz
  'x, y, z'

loop_
  _atom_site_type_symbol
  _atom_site_label
  _atom_site_symmetry_multiplicity
  _atom_site_fract_x
  _atom_site_fract_y
  _atom_site_fract_z
  _atom_site_occupancy
  _atom_site_charge
Zn  Zn1       1.0  0.95773  0.56467  0.99259  1.0000 0.8896975909
Zn  Zn2       1.0  0.56467  0.95773  0.50741  1.0000 0.8896975909
Zn  Zn3       1.0  0.04227  0.43533  0.00741  1.0000 0.8896975909
Zn  Zn4       1.0  0.43533  0.04227  0.49259  1.0000 0.8896975909
Zn  Zn5       1.0  0.00218  0.99150  0.31916  1.0000 0.9592799638
Zn  Zn6       1.0  0.99150  0.00218  0.18084  1.0000 0.9592799638
Zn  Zn7       1.0  0.99782  0.00850  0.68084  1.0000 0.9592799638
Zn  Zn8       1.0  0.00850  0.99782  0.81916  1.0000 0.9592799638
H   H1        1.0  0.28450  0.89410  0.18630  1.0000 0.1297548138
H   H2        1.0  0.89410  0.28450  0.31370  1.0000 0.1297548138
H   H3        1.0  0.71550  0.10590  0.81370  1.0000 0.1297548138
H   H4        1.0  0.10590  0.71550  0.68630  1.0000 0.1297548138
H   H5        1.0  0.45500  0.06480  0.32110  1.0000 0.1297548138
H   H6        1.0  0.06480  0.45500  0.17890  1.0000 0.1297548138
H   H7        1.0  0.54500  0.93520  0.67890  1.0000 0.1297548138
H   H8        1.0  0.93520  0.54500  0.82110  1.0000 0.1297548138
H   H9        1.0  0.52960  0.87880  0.15060  1.0000 0.1297548138
H   H10       1.0  0.87880  0.52960  0.34940  1.0000 0.1297548138
H   H11       1.0  0.47040  0.12120  0.84940  1.0000 0.1297548138
H   H12       1.0  0.12120  0.47040  0.65060  1.0000 0.1297548138
H   H13       1.0  0.72680  0.39620  0.11470  1.0000 0.1297548138
H   H14       1.0  0.39620  0.72680  0.38530  1.0000 0.1297548138
H   H15       1.0  0.27320  0.60380  0.88530  1.0000 0.1297548138
H   H16       1.0  0.60380  0.27320  0.61470  1.0000 0.1297548138
H   H17       1.0  0.15130  0.77210  0.13110  1.0000 0.1297548138
H   H18       1.0  0.77210  0.15130  0.36890  1.0000 0.1297548138
H   H19       1.0  0.84870  0.22790  0.86890  1.0000 0.1297548138
H   H20       1.0  0.22790  0.84870  0.63110  1.0000 0.1297548138
H   H21       1.0  0.70630  0.95510  0.34070  1.0000 0.1178701118
H   H22       1.0  0.95510  0.70630  0.15930  1.0000 0.1178701118
H   H23       1.0  0.29370  0.04490  0.65930  1.0000 0.1178701118
H   H24       1.0  0.04490  0.29370  0.84070  1.0000 0.1178701118
H   H25       1.0  0.26740  0.60500  0.14430  1.0000 0.1178701118
H   H26       1.0  0.60500  0.26740  0.35570  1.0000 0.1178701118
H   H27       1.0  0.73260  0.39500  0.85570  1.0000 0.1178701118
H   H28       1.0  0.39500  0.73260  0.64430  1.0000 0.1178701118
H   H29       1.0  0.44800  0.13680  0.13090  1.0000 0.1297548138
H   H30       1.0  0.13680  0.44800  0.36910  1.0000 0.1297548138
H   H31       1.0  0.55200  0.86320  0.86910  1.0000 0.1297548138
H   H32       1.0  0.86320  0.55200  0.63090  1.0000 0.1297548138
H   H33       1.0  0.70180  0.10900  0.19430  1.0000 0.1297548138
H   H34       1.0  0.10900  0.70180  0.30570  1.0000 0.1297548138
H   H35       1.0  0.29820  0.89100  0.80570  1.0000 0.1297548138
H   H36       1.0  0.89100  0.29820  0.69430  1.0000 0.1297548138
H   H37       1.0  0.28760  0.09480  0.13870  1.0000 0.1178701118
H   H38       1.0  0.09480  0.28760  0.36130  1.0000 0.1178701118
H   H39       1.0  0.71240  0.90520  0.86130  1.0000 0.1178701118
H   H40       1.0  0.90520  0.71240  0.63870  1.0000 0.1178701118
H   H41       1.0  0.68500  0.90380  0.15390  1.0000 0.1178701118
H   H42       1.0  0.90380  0.68500  0.34610  1.0000 0.1178701118
H   H43       1.0  0.31500  0.09620  0.84610  1.0000 0.1178701118
H   H44       1.0  0.09620  0.31500  0.65390  1.0000 0.1178701118
H   H45       1.0  0.29500  0.03660  0.32560  1.0000 0.1178701118
H   H46       1.0  0.03660  0.29500  0.17440  1.0000 0.1178701118
H   H47       1.0  0.70500  0.96340  0.67440  1.0000 0.1178701118
H   H48       1.0  0.96340  0.70500  0.82560  1.0000 0.1178701118
H   H49       1.0  0.55130  0.93370  0.33570  1.0000 0.1378038358
H   H50       1.0  0.93370  0.55130  0.16430  1.0000 0.1378038358
H   H51       1.0  0.44870  0.06630  0.66430  1.0000 0.1378038358
H   H52       1.0  0.06630  0.44870  0.83570  1.0000 0.1378038358
H   H53       1.0  0.83590  0.21930  0.14480  1.0000 0.1297548138
H   H54       1.0  0.21930  0.83590  0.35520  1.0000 0.1297548138
H   H55       1.0  0.16410  0.78070  0.85520  1.0000 0.1297548138
H   H56       1.0  0.78070  0.16410  0.64480  1.0000 0.1297548138
H   H57       1.0  0.39860  0.71320  0.20490  1.0000 0.1297548138
H   H58       1.0  0.71320  0.39860  0.29510  1.0000 0.1297548138
H   H59       1.0  0.60140  0.28680  0.79510  1.0000 0.1297548138
H   H60       1.0  0.28680  0.60140  0.70490  1.0000 0.1297548138
H   H61       1.0  0.59490  0.29330  0.17150  1.0000 0.1297548138
H   H62       1.0  0.29330  0.59490  0.32850  1.0000 0.1297548138
H   H63       1.0  0.40510  0.70670  0.82850  1.0000 0.1297548138
H   H64       1.0  0.70670  0.40510  0.67150  1.0000 0.1297548138
C   C1        1.0  0.46790  0.10590  0.22840  1.0000 0.2840789352
C   C2        1.0  0.10590  0.46790  0.27160  1.0000 0.2840789352
C   C3        1.0  0.53210  0.89410  0.77160  1.0000 0.2840789352
C   C4        1.0  0.89410  0.53210  0.72840  1.0000 0.2840789352
C   C5        1.0  0.71970  0.93550  0.24920  1.0000 -0.1057605688
C   C6        1.0  0.93550  0.71970  0.25080  1.0000 -0.1057605688
C   C7        1.0  0.28030  0.06450  0.75080  1.0000 -0.1057605688
C   C8        1.0  0.06450  0.28030  0.74920  1.0000 -0.1057605688
C   C9        1.0  0.28160  0.83580  0.17820  1.0000 -0.1900886105
C   C10       1.0  0.83580  0.28160  0.32180  1.0000 -0.1900886105
C   C11       1.0  0.71840  0.16420  0.82180  1.0000 -0.1900886105
C   C12       1.0  0.16420  0.71840  0.67820  1.0000 -0.1900886105
C   C13       1.0  0.27890  0.06730  0.23060  1.0000 -0.0717364777
C   C14       1.0  0.06730  0.27890  0.26940  1.0000 -0.0717364777
C   C15       1.0  0.72110  0.93270  0.76940  1.0000 -0.0717364777
C   C16       1.0  0.93270  0.72110  0.73060  1.0000 -0.0717364777
C   C17       1.0  0.42260  0.07420  0.28460  1.0000 -0.2288639452
C   C18       1.0  0.07420  0.42260  0.21540  1.0000 -0.2288639452
C   C19       1.0  0.57740  0.92580  0.71540  1.0000 -0.2288639452
C   C20       1.0  0.92580  0.57740  0.78460  1.0000 -0.2288639452
C   C21       1.0  0.56540  0.89160  0.18940  1.0000 -0.23978501
C   C22       1.0  0.89160  0.56540  0.31060  1.0000 -0.23978501
C   C23       1.0  0.43460  0.10840  0.81060  1.0000 -0.23978501
C   C24       1.0  0.10840  0.43460  0.68940  1.0000 -0.23978501
C   C25       1.0  0.72130  0.33750  0.13120  1.0000 -0.092352638
C   C26       1.0  0.33750  0.72130  0.36880  1.0000 -0.092352638
C   C27       1.0  0.27870  0.66250  0.86880  1.0000 -0.092352638
C   C28       1.0  0.66250  0.27870  0.63120  1.0000 -0.092352638
C   C29       1.0  0.20390  0.76230  0.14310  1.0000 -0.095540231
C   C30       1.0  0.76230  0.20390  0.35690  1.0000 -0.095540231
C   C31       1.0  0.79610  0.23770  0.85690  1.0000 -0.095540231
C   C32       1.0  0.23770  0.79610  0.64310  1.0000 -0.095540231
C   C33       1.0  0.67120  0.94000  0.30170  1.0000 -0.0717364777
C   C34       1.0  0.94000  0.67120  0.19830  1.0000 -0.0717364777
C   C35       1.0  0.32880  0.06000  0.69830  1.0000 -0.0717364777
C   C36       1.0  0.06000  0.32880  0.80170  1.0000 -0.0717364777
C   C37       1.0  0.27170  0.66410  0.15200  1.0000 -0.092352638
C   C38       1.0  0.66410  0.27170  0.34800  1.0000 -0.092352638
C   C39       1.0  0.72830  0.33590  0.84800  1.0000 -0.092352638
C   C40       1.0  0.33590  0.72830  0.65200  1.0000 -0.092352638
C   C41       1.0  0.41800  0.11600  0.16970  1.0000 -0.2239381875
C   C42       1.0  0.11600  0.41800  0.33030  1.0000 -0.2239381875
C   C43       1.0  0.58200  0.88400  0.83030  1.0000 -0.2239381875
C   C44       1.0  0.88400  0.58200  0.66970  1.0000 -0.2239381875
C   C45       1.0  0.70650  0.16790  0.17880  1.0000 -0.178896239
C   C46       1.0  0.16790  0.70650  0.32120  1.0000 -0.178896239
C   C47       1.0  0.29350  0.83210  0.82120  1.0000 -0.178896239
C   C48       1.0  0.83210  0.29350  0.67880  1.0000 -0.178896239
C   C49       1.0  0.32330  0.09270  0.17560  1.0000 -0.0717364777
C   C50       1.0  0.09270  0.32330  0.32440  1.0000 -0.0717364777
C   C51       1.0  0.67670  0.90730  0.82440  1.0000 -0.0717364777
C   C52       1.0  0.90730  0.67670  0.67560  1.0000 -0.0717364777
C   C53       1.0  0.65970  0.90910  0.19090  1.0000 -0.0619968864
C   C54       1.0  0.90910  0.65970  0.30910  1.0000 -0.0619968864
C   C55       1.0  0.34030  0.09090  0.80910  1.0000 -0.0619968864
C   C56       1.0  0.09090  0.34030  0.69090  1.0000 -0.0619968864
C   C57       1.0  0.79230  0.31770  0.12080  1.0000 -0.0410880865
C   C58       1.0  0.31770  0.79230  0.37920  1.0000 -0.0410880865
C   C59       1.0  0.20770  0.68230  0.87920  1.0000 -0.0410880865
C   C60       1.0  0.68230  0.20770  0.62080  1.0000 -0.0410880865
C   C61       1.0  0.32640  0.05580  0.28730  1.0000 -0.0717364777
C   C62       1.0  0.05580  0.32640  0.21270  1.0000 -0.0717364777
C   C63       1.0  0.67360  0.94420  0.71270  1.0000 -0.0717364777
C   C64       1.0  0.94420  0.67360  0.78730  1.0000 -0.0717364777
C   C65       1.0  0.52230  0.89230  0.24320  1.0000 0.2591892276
C   C66       1.0  0.89230  0.52230  0.25680  1.0000 0.2591892276
C   C67       1.0  0.47770  0.10770  0.75680  1.0000 0.2591892276
C   C68       1.0  0.10770  0.47770  0.74320  1.0000 0.2591892276
C   C69       1.0  0.63250  0.18650  0.18820  1.0000 0.240041988
C   C70       1.0  0.18650  0.63250  0.31180  1.0000 0.240041988
C   C71       1.0  0.36750  0.81350  0.81180  1.0000 0.240041988
C   C72       1.0  0.81350  0.36750  0.68820  1.0000 0.240041988
C   C73       1.0  0.19800  0.68240  0.12570  1.0000 -0.0500056948
C   C74       1.0  0.68240  0.19800  0.37430  1.0000 -0.0500056948
C   C75       1.0  0.80200  0.31760  0.87430  1.0000 -0.0500056948
C   C76       1.0  0.31760  0.80200  0.62570  1.0000 -0.0500056948
C   C77       1.0  0.81830  0.95430  0.25780  1.0000 0.5613722
C   C78       1.0  0.95430  0.81830  0.24220  1.0000 0.5613722
C   C79       1.0  0.18170  0.04570  0.74220  1.0000 0.5613722
C   C80       1.0  0.04570  0.18170  0.75780  1.0000 0.5613722
C   C81       1.0  0.57690  0.92390  0.30050  1.0000 -0.2102923672
C   C82       1.0  0.92390  0.57690  0.19950  1.0000 -0.2102923672
C   C83       1.0  0.42310  0.07610  0.69950  1.0000 -0.2102923672
C   C84       1.0  0.07610  0.42310  0.80050  1.0000 -0.2102923672
C   C85       1.0  0.35610  0.81110  0.20040  1.0000 0.240041988
C   C86       1.0  0.81110  0.35610  0.29960  1.0000 0.240041988
C   C87       1.0  0.64390  0.18890  0.79960  1.0000 0.240041988
C   C88       1.0  0.18890  0.64390  0.70040  1.0000 0.240041988
C   C89       1.0  0.11840  0.61220  0.08300  1.0000 0.5777961854
C   C90       1.0  0.61220  0.11840  0.41700  1.0000 0.5777961854
C   C91       1.0  0.88160  0.38780  0.91700  1.0000 0.5777961854
C   C92       1.0  0.38780  0.88160  0.58300  1.0000 0.5777961854
C   C93       1.0  0.78510  0.23230  0.14790  1.0000 -0.0844077412
C   C94       1.0  0.23230  0.78510  0.35210  1.0000 -0.0844077412
C   C95       1.0  0.21490  0.76770  0.85210  1.0000 -0.0844077412
C   C96       1.0  0.76770  0.21490  0.64790  1.0000 -0.0844077412
C   C97       1.0  0.35080  0.72820  0.18890  1.0000 -0.2025480743
C   C98       1.0  0.72820  0.35080  0.31110  1.0000 -0.2025480743
C   C99       1.0  0.64920  0.27180  0.81110  1.0000 -0.2025480743
C   C100      1.0  0.27180  0.64920  0.68890  1.0000 -0.2025480743
C   C101      1.0  0.64190  0.27630  0.16450  1.0000 -0.2025480743
C   C102      1.0  0.27630  0.64190  0.33550  1.0000 -0.1900886105
C   C103      1.0  0.35810  0.72370  0.83550  1.0000 -0.1900886105
C   C104      1.0  0.72370  0.35810  0.66450  1.0000 -0.2025480743
C   C105      1.0  0.87320  0.38560  0.07690  1.0000 0.5669832025
C   C106      1.0  0.38560  0.87320  0.42310  1.0000 0.5669832025
C   C107      1.0  0.12680  0.61440  0.92310  1.0000 0.5669832025
C   C108      1.0  0.61440  0.12680  0.57690  1.0000 0.5669832025
C   C109      1.0  0.17670  0.04270  0.22870  1.0000 0.5777961854
C   C110      1.0  0.04270  0.17670  0.27130  1.0000 0.5777961854
C   C111      1.0  0.82330  0.95730  0.77130  1.0000 0.5777961854
C   C112      1.0  0.95730  0.82330  0.72870  1.0000 0.5777961854
O   O1        1.0  0.87030  0.46350  0.06010  1.0000 -0.5458896365
O   O2        1.0  0.46350  0.87030  0.43990  1.0000 -0.5458896365
O   O3        1.0  0.12970  0.53650  0.93990  1.0000 -0.5458896365
O   O4        1.0  0.53650  0.12970  0.56010  1.0000 -0.5458896365
O   O5        1.0  0.05830  0.64250  0.06200  1.0000 -0.544216102
O   O6        1.0  0.64250  0.05830  0.43800  1.0000 -0.544216102
O   O7        1.0  0.94170  0.35750  0.93800  1.0000 -0.544216102
O   O8        1.0  0.35750  0.94170  0.56200  1.0000 -0.544216102
O   O9        1.0  0.93070  0.36570  0.06850  1.0000 -0.4420535694
O   O10       1.0  0.36570  0.93070  0.43150  1.0000 -0.4420535694
O   O11       1.0  0.06930  0.63430  0.93150  1.0000 -0.4420535694
O   O12       1.0  0.63430  0.06930  0.56850  1.0000 -0.4420535694
O   O13       1.0  0.11860  0.54320  0.06950  1.0000 -0.461009806
O   O14       1.0  0.54320  0.11860  0.43050  1.0000 -0.461009806
O   O15       1.0  0.88140  0.45680  0.93050  1.0000 -0.461009806
O   O16       1.0  0.45680  0.88140  0.56950  1.0000 -0.461009806
O   O17       1.0  0.55750  0.11750  0.22740  1.0000 -0.2025480743
O   O18       1.0  0.11750  0.55750  0.27260  1.0000 -0.2025480743
O   O19       1.0  0.44250  0.88250  0.77260  1.0000 -0.2025480743
O   O20       1.0  0.88250  0.44250  0.72740  1.0000 -0.2025480743
O   O21       1.0  0.43020  0.87960  0.23830  1.0000 -0.2102923672
O   O22       1.0  0.87960  0.43020  0.26170  1.0000 -0.2102923672
O   O23       1.0  0.56980  0.12040  0.76170  1.0000 -0.2102923672
O   O24       1.0  0.12040  0.56980  0.73830  1.0000 -0.2102923672
O   O25       1.0  0.86430  0.96890  0.30810  1.0000 -0.4972587134
O   O26       1.0  0.96890  0.86430  0.19190  1.0000 -0.4972587134
O   O27       1.0  0.13570  0.03110  0.69190  1.0000 -0.4972587134
O   O28       1.0  0.03110  0.13570  0.80810  1.0000 -0.4972587134
O   O29       1.0  0.85720  0.95440  0.20060  1.0000 -0.6267627384
O   O30       1.0  0.95440  0.85720  0.29940  1.0000 -0.6267627384
O   O31       1.0  0.14280  0.04560  0.79940  1.0000 -0.6267627384
O   O32       1.0  0.04560  0.14280  0.70060  1.0000 -0.6267627384
O   O33       1.0  0.13250  0.05110  0.18160  1.0000 -0.4545198287
O   O34       1.0  0.05110  0.13250  0.31840  1.0000 -0.461009806
O   O35       1.0  0.86750  0.94890  0.81840  1.0000 -0.461009806
O   O36       1.0  0.94890  0.86750  0.68160  1.0000 -0.4545198287
O   O37       1.0  0.13620  0.02120  0.28640  1.0000 -0.6120030042
O   O38       1.0  0.02120  0.13620  0.21360  1.0000 -0.6120030042
O   O39       1.0  0.86380  0.97880  0.71360  1.0000 -0.6120030042
O   O40       1.0  0.97880  0.86380  0.78640  1.0000 -0.6120030042
