# DDEC6 charges by PACMAN v1.1 (https://github.com/mtap-research/PACMAN-charge/)
data_2012[Zn][sod]3[ASR]11
_chemical_formula_sum              "Zn6 H60 C24 N48"
_cell_length_a       14.7779
_cell_length_b       14.7779
_cell_length_c       14.7779
_cell_angle_alpha    109.471
_cell_angle_beta     109.471
_cell_angle_gamma    109.471

_symmetry_space_group_name_H-M    "P 1"
_symmetry_Int_Tables_number       1

loop_
  _symmetry_equiv_pos_as_xyz
  'x, y, z'

loop_
  _atom_site_type_symbol
  _atom_site_label
  _atom_site_symmetry_multiplicity
  _atom_site_fract_x
  _atom_site_fract_y
  _atom_site_fract_z
  _atom_site_occupancy
  _atom_site_charge
Zn  Zn1       1.0  0.25000  0.50000  0.75000  1.0000 0.6272986108
Zn  Zn2       1.0  0.75000  0.50000  0.25000  1.0000 0.6272986108
Zn  Zn3       1.0  0.75000  0.25000  0.50000  1.0000 0.6272986108
Zn  Zn4       1.0  0.25000  0.75000  0.50000  1.0000 0.6272986108
Zn  Zn5       1.0  0.50000  0.75000  0.25000  1.0000 0.6272986108
Zn  Zn6       1.0  0.50000  0.25000  0.75000  1.0000 0.6272986108
H   H1        1.0  0.10120  0.51220  0.85980  1.0000 0.2338920073
H   H2        1.0  0.65240  0.24140  0.14020  1.0000 0.2338920073
H   H3        1.0  0.34760  0.48780  0.58900  1.0000 0.2338920073
H   H4        1.0  0.89880  0.75860  0.41100  1.0000 0.2338920073
H   H5        1.0  0.85980  0.10120  0.51220  1.0000 0.2338920073
H   H6        1.0  0.14020  0.65240  0.24140  1.0000 0.2338920073
H   H7        1.0  0.58900  0.34760  0.48780  1.0000 0.2338920073
H   H8        1.0  0.41100  0.89880  0.75860  1.0000 0.2338920073
H   H9        1.0  0.51220  0.85980  0.10120  1.0000 0.2338920073
H   H10       1.0  0.24140  0.14020  0.65240  1.0000 0.2338920073
H   H11       1.0  0.48780  0.58900  0.34760  1.0000 0.2338920073
H   H12       1.0  0.75860  0.41100  0.89880  1.0000 0.2338920073
H   H13       1.0  0.51220  0.10120  0.85980  1.0000 0.2338920073
H   H14       1.0  0.24140  0.65240  0.14020  1.0000 0.2338920073
H   H15       1.0  0.48780  0.34760  0.58900  1.0000 0.2338920073
H   H16       1.0  0.75860  0.89880  0.41100  1.0000 0.2338920073
H   H17       1.0  0.10120  0.85980  0.51220  1.0000 0.2338920073
H   H18       1.0  0.65240  0.14020  0.24140  1.0000 0.2338920073
H   H19       1.0  0.34760  0.58900  0.48780  1.0000 0.2338920073
H   H20       1.0  0.89880  0.41100  0.75860  1.0000 0.2338920073
H   H21       1.0  0.85980  0.51220  0.10120  1.0000 0.2338920073
H   H22       1.0  0.14020  0.24140  0.65240  1.0000 0.2338920073
H   H23       1.0  0.58900  0.48780  0.34760  1.0000 0.2338920073
H   H24       1.0  0.41100  0.75860  0.89880  1.0000 0.2338920073
H   H25       1.0  0.00000  0.24045  0.49315  1.0000 0.1301398599
H   H26       1.0  0.74730  0.50685  0.50685  1.0000 0.1301398599
H   H27       1.0  0.25270  0.75955  0.75955  1.0000 0.1301398599
H   H28       1.0  1.00000  0.49315  0.24045  1.0000 0.1301398599
H   H29       1.0  0.49315  1.00000  0.24045  1.0000 0.1301398599
H   H30       1.0  0.50685  0.74730  0.50685  1.0000 0.1301398599
H   H31       1.0  0.75955  0.25270  0.75955  1.0000 0.1301398599
H   H32       1.0  0.24045  0.00000  0.49315  1.0000 0.1301398599
H   H33       1.0  0.24045  0.49315  0.00000  1.0000 0.1301398599
H   H34       1.0  0.50685  0.50685  0.74730  1.0000 0.1301398599
H   H35       1.0  0.75955  0.75955  0.25270  1.0000 0.1301398599
H   H36       1.0  0.49315  0.24045  0.00000  1.0000 0.1301398599
H   H37       1.0  0.06630  0.35990  0.50860  1.0000 0.1501617654
H   H38       1.0  0.85130  0.55770  0.49140  1.0000 0.1501617654
H   H39       1.0  0.14870  0.64010  0.70640  1.0000 0.1501617654
H   H40       1.0  0.93370  0.44230  0.29360  1.0000 0.1501617654
H   H41       1.0  0.50860  0.06630  0.35990  1.0000 0.1501617654
H   H42       1.0  0.49140  0.85130  0.55770  1.0000 0.1501617654
H   H43       1.0  0.70640  0.14870  0.64010  1.0000 0.1501617654
H   H44       1.0  0.29360  0.93370  0.44230  1.0000 0.1501617654
H   H45       1.0  0.35990  0.50860  0.06630  1.0000 0.1501617654
H   H46       1.0  0.55770  0.49140  0.85130  1.0000 0.1501617654
H   H47       1.0  0.64010  0.70640  0.14870  1.0000 0.1501617654
H   H48       1.0  0.44230  0.29360  0.93370  1.0000 0.1501617654
H   H49       1.0  0.35990  0.06630  0.50860  1.0000 0.1501617654
H   H50       1.0  0.55770  0.85130  0.49140  1.0000 0.1501617654
H   H51       1.0  0.64010  0.14870  0.70640  1.0000 0.1501617654
H   H52       1.0  0.44230  0.93370  0.29360  1.0000 0.1501617654
H   H53       1.0  0.06630  0.50860  0.35990  1.0000 0.1501617654
H   H54       1.0  0.85130  0.49140  0.55770  1.0000 0.1501617654
H   H55       1.0  0.14870  0.70640  0.64010  1.0000 0.1501617654
H   H56       1.0  0.93370  0.29360  0.44230  1.0000 0.1501617654
H   H57       1.0  0.50860  0.35990  0.06630  1.0000 0.1501617654
H   H58       1.0  0.49140  0.55770  0.85130  1.0000 0.1501617654
H   H59       1.0  0.70640  0.64010  0.14870  1.0000 0.1501617654
H   H60       1.0  0.29360  0.44230  0.93370  1.0000 0.1501617654
C   C1        1.0  1.00000  0.36310  0.61030  1.0000 0.3196930114
C   C2        1.0  0.75280  0.38970  0.38970  1.0000 0.3196930114
C   C3        1.0  0.24720  0.63690  0.63690  1.0000 0.3196930114
C   C4        1.0  1.00000  0.61030  0.36310  1.0000 0.3196930114
C   C5        1.0  0.61030  1.00000  0.36310  1.0000 0.3196930114
C   C6        1.0  0.38970  0.75280  0.38970  1.0000 0.3196930114
C   C7        1.0  0.63690  0.24720  0.63690  1.0000 0.3196930114
C   C8        1.0  0.36310  1.00000  0.61030  1.0000 0.3196930114
C   C9        1.0  0.36310  0.61030  0.00000  1.0000 0.3196930114
C   C10       1.0  0.38970  0.38970  0.75280  1.0000 0.3196930114
C   C11       1.0  0.63690  0.63690  0.24720  1.0000 0.3196930114
C   C12       1.0  0.61030  0.36310  0.00000  1.0000 0.3196930114
C   C13       1.0  1.00000  0.30960  0.50440  1.0000 -0.5188003705
C   C14       1.0  0.80520  0.49560  0.49560  1.0000 -0.5188003705
C   C15       1.0  0.19480  0.69040  0.69040  1.0000 -0.5188003705
C   C16       1.0  0.00000  0.50440  0.30960  1.0000 -0.5188003705
C   C17       1.0  0.50440  0.00000  0.30960  1.0000 -0.5188003705
C   C18       1.0  0.49560  0.80520  0.49560  1.0000 -0.5188003705
C   C19       1.0  0.69040  0.19480  0.69040  1.0000 -0.5188003705
C   C20       1.0  0.30960  0.00000  0.50440  1.0000 -0.5188003705
C   C21       1.0  0.30960  0.50440  0.00000  1.0000 -0.5188003705
C   C22       1.0  0.49560  0.49560  0.80520  1.0000 -0.5188003705
C   C23       1.0  0.69040  0.69040  0.19480  1.0000 -0.5188003705
C   C24       1.0  0.50440  0.30960  0.00000  1.0000 -0.5188003705
N   N1        1.0  0.09117  0.43439  0.70868  1.0000 -0.3253751661
N   N2        1.0  0.72571  0.38249  0.29132  1.0000 -0.3253751661
N   N3        1.0  0.27429  0.56561  0.65678  1.0000 -0.3253751661
N   N4        1.0  0.90883  0.61751  0.34322  1.0000 -0.3253751661
N   N5        1.0  0.70868  0.09117  0.43439  1.0000 -0.3253751661
N   N6        1.0  0.29132  0.72571  0.38249  1.0000 -0.3253751661
N   N7        1.0  0.65678  0.27429  0.56561  1.0000 -0.3253751661
N   N8        1.0  0.34322  0.90883  0.61751  1.0000 -0.3253751661
N   N9        1.0  0.43439  0.70868  0.09117  1.0000 -0.3253751661
N   N10       1.0  0.38249  0.29132  0.72571  1.0000 -0.3253751661
N   N11       1.0  0.56561  0.65678  0.27429  1.0000 -0.3253751661
N   N12       1.0  0.61751  0.34322  0.90883  1.0000 -0.3253751661
N   N13       1.0  0.43439  0.09117  0.70868  1.0000 -0.3253751661
N   N14       1.0  0.38249  0.72571  0.29132  1.0000 -0.3253751661
N   N15       1.0  0.56561  0.27429  0.65678  1.0000 -0.3253751661
N   N16       1.0  0.61751  0.90883  0.34322  1.0000 -0.3253751661
N   N17       1.0  0.09117  0.70868  0.43439  1.0000 -0.3253751661
N   N18       1.0  0.72571  0.29132  0.38249  1.0000 -0.3253751661
N   N19       1.0  0.27429  0.65678  0.56561  1.0000 -0.3253751661
N   N20       1.0  0.90883  0.34322  0.61751  1.0000 -0.3253751661
N   N21       1.0  0.70868  0.43439  0.09117  1.0000 -0.3245009707
N   N22       1.0  0.29132  0.38249  0.72571  1.0000 -0.3253751661
N   N23       1.0  0.65678  0.56561  0.27429  1.0000 -0.3253751661
N   N24       1.0  0.34322  0.61751  0.90883  1.0000 -0.3253751661
N   N25       1.0  0.05524  0.46205  0.78227  1.0000 -0.1810559346
N   N26       1.0  0.67978  0.27297  0.21773  1.0000 -0.1810559346
N   N27       1.0  0.32022  0.53795  0.59319  1.0000 -0.1810559346
N   N28       1.0  0.94476  0.72703  0.40681  1.0000 -0.1810559346
N   N29       1.0  0.78227  0.05524  0.46205  1.0000 -0.1810559346
N   N30       1.0  0.21773  0.67978  0.27297  1.0000 -0.1810559346
N   N31       1.0  0.59319  0.32022  0.53795  1.0000 -0.1810559346
N   N32       1.0  0.40681  0.94476  0.72703  1.0000 -0.1810559346
N   N33       1.0  0.46205  0.78227  0.05524  1.0000 -0.1810559346
N   N34       1.0  0.27297  0.21773  0.67978  1.0000 -0.1810559346
N   N35       1.0  0.53795  0.59319  0.32022  1.0000 -0.1810559346
N   N36       1.0  0.72703  0.40681  0.94476  1.0000 -0.1810559346
N   N37       1.0  0.46205  0.05524  0.78227  1.0000 -0.1810559346
N   N38       1.0  0.27297  0.67978  0.21773  1.0000 -0.1810559346
N   N39       1.0  0.53795  0.32022  0.59319  1.0000 -0.1810559346
N   N40       1.0  0.72703  0.94476  0.40681  1.0000 -0.1810559346
N   N41       1.0  0.05524  0.78227  0.46205  1.0000 -0.1810559346
N   N42       1.0  0.67978  0.21773  0.27297  1.0000 -0.1810559346
N   N43       1.0  0.32022  0.59319  0.53795  1.0000 -0.1810559346
N   N44       1.0  0.94476  0.40681  0.72703  1.0000 -0.1810559346
N   N45       1.0  0.78227  0.46205  0.05524  1.0000 -0.1810559346
N   N46       1.0  0.21773  0.27297  0.67978  1.0000 -0.1810559346
N   N47       1.0  0.59319  0.53795  0.32022  1.0000 -0.1810559346
N   N48       1.0  0.40681  0.72703  0.94476  1.0000 -0.1810559346
