# DDEC6 charges by PACMAN v1.1 (https://github.com/mtap-research/PACMAN-charge/)
data_2012[Zn][bnn]3[ASR]1
_chemical_formula_sum              "Zn6 H40 C62 N4 O30"
_cell_length_a       11.727
_cell_length_b       13.451
_cell_length_c       16.0302
_cell_angle_alpha    63.0228
_cell_angle_beta     70.4051
_cell_angle_gamma    77.03

_symmetry_space_group_name_H-M    "P 1"
_symmetry_Int_Tables_number       1

loop_
  _symmetry_equiv_pos_as_xyz
  'x, y, z'

loop_
  _atom_site_type_symbol
  _atom_site_label
  _atom_site_symmetry_multiplicity
  _atom_site_fract_x
  _atom_site_fract_y
  _atom_site_fract_z
  _atom_site_occupancy
  _atom_site_charge
Zn  Zn1       1.0  0.65136  0.69281  0.65291  1.0000 1.0098959958
Zn  Zn2       1.0  0.34864  0.30719  0.34709  1.0000 1.0098959958
Zn  Zn3       1.0  0.51958  0.49895  0.30940  1.0000 0.7995318329
Zn  Zn4       1.0  0.48042  0.50105  0.69060  1.0000 0.7995318329
Zn  Zn5       1.0  0.92343  0.73223  0.68807  1.0000 0.8453732288
Zn  Zn6       1.0  0.07657  0.26777  0.31193  1.0000 0.8453732288
H   H1        1.0  0.89680  0.63360  0.37210  1.0000 0.1396358457
H   H2        1.0  0.10320  0.36640  0.62790  1.0000 0.1396358457
H   H3        1.0  0.09980  0.55020  0.29870  1.0000 0.1487949695
H   H4        1.0  0.90020  0.44980  0.70130  1.0000 0.1487949695
H   H5        1.0  0.44880  0.69600  0.95330  1.0000 0.1396358457
H   H6        1.0  0.55120  0.30400  0.04670  1.0000 0.1396358457
H   H7        1.0  0.33740  0.59890  0.13100  1.0000 0.1487949695
H   H8        1.0  0.66260  0.40110  0.86900  1.0000 0.1487949695
H   H9        1.0  0.81090  0.08910  0.63750  1.0000 0.1396358457
H   H10       1.0  0.18910  0.91090  0.36250  1.0000 0.1396358457
H   H11       1.0  0.73260  0.28050  0.53270  1.0000 0.1396358457
H   H12       1.0  0.26740  0.71950  0.46730  1.0000 0.1396358457
H   H13       1.0  0.98940  0.03820  0.41200  1.0000 0.1107295099
H   H14       1.0  0.01060  0.96180  0.58800  1.0000 0.1107295099
H   H15       1.0  0.83770  0.94530  0.42920  1.0000 0.1396358457
H   H16       1.0  0.16230  0.05470  0.57080  1.0000 0.1396358457
H   H17       1.0  0.87290  0.31280  0.21940  1.0000 0.1200882525
H   H18       1.0  0.12710  0.68720  0.78060  1.0000 0.1200882525
H   H19       1.0  0.71500  0.22610  0.23510  1.0000 0.1396358457
H   H20       1.0  0.28500  0.77390  0.76490  1.0000 0.1396358457
H   H21       1.0  0.65340  0.94120  0.40310  1.0000 0.1269772654
H   H22       1.0  0.34660  0.05880  0.59690  1.0000 0.1269772654
H   H23       1.0  0.57350  0.05570  0.37630  1.0000 0.1396358457
H   H24       1.0  0.42650  0.94430  0.62370  1.0000 0.1396358457
H   H25       1.0  0.65040  0.08340  0.21190  1.0000 0.0996100796
H   H26       1.0  0.34960  0.91660  0.78810  1.0000 0.0996100796
H   H27       1.0  0.56430  0.98690  0.27660  1.0000 0.0996100796
H   H28       1.0  0.43570  0.01310  0.72340  1.0000 0.0996100796
H   H29       1.0  0.80130  0.90840  0.26650  1.0000 0.1200882525
H   H30       1.0  0.19870  0.09160  0.73350  1.0000 0.1200882525
H   H31       1.0  0.77780  0.96750  0.16340  1.0000 0.1107295099
H   H32       1.0  0.22220  0.03250  0.83660  1.0000 0.1107295099
H   H33       1.0  0.67410  0.87540  0.11840  1.0000 0.1396358457
H   H34       1.0  0.32590  0.12460  0.88160  1.0000 0.1396358457
H   H35       1.0  0.67970  0.74010  0.39260  1.0000 0.1487949695
H   H36       1.0  0.32030  0.25990  0.60740  1.0000 0.1487949695
H   H37       1.0  0.59900  0.58500  0.41690  1.0000 0.1269772654
H   H38       1.0  0.40100  0.41500  0.58310  1.0000 0.1269772654
H   H39       1.0  0.59690  0.71880  0.14550  1.0000 0.1200882525
H   H40       1.0  0.40310  0.28120  0.85450  1.0000 0.1200882525
C   C1        1.0  0.90630  0.70240  0.51840  1.0000 0.5551925456
C   C2        1.0  0.09370  0.29760  0.48160  1.0000 0.5531097686
C   C3        1.0  0.98650  0.65390  0.44990  1.0000 0.068403411
C   C4        1.0  0.01350  0.34610  0.55010  1.0000 0.068403411
C   C5        1.0  0.96960  0.62490  0.38690  1.0000 -0.1780445918
C   C6        1.0  0.03040  0.37510  0.61310  1.0000 -0.1718015708
C   C7        1.0  0.08370  0.57760  0.34570  1.0000 -0.1718015708
C   C8        1.0  0.91630  0.42240  0.65430  1.0000 -0.1718015708
C   C9        1.0  0.16250  0.58080  0.38810  1.0000 0.0923514074
C   C10       1.0  0.83750  0.41920  0.61190  1.0000 0.0923514074
C   C11       1.0  0.29180  0.53920  0.38280  1.0000 0.5253341949
C   C12       1.0  0.70820  0.46080  0.61720  1.0000 0.5253341949
C   C13       1.0  0.44040  0.58440  0.83550  1.0000 0.5531097686
C   C14       1.0  0.55960  0.41560  0.16450  1.0000 0.5531097686
C   C15       1.0  0.38890  0.57710  0.93560  1.0000 0.0593513833
C   C16       1.0  0.61110  0.42290  0.06440  1.0000 0.0593513833
C   C17       1.0  0.40520  0.63350  0.98150  1.0000 -0.1780445918
C   C18       1.0  0.59480  0.36650  0.01850  1.0000 -0.1780445918
C   C19       1.0  0.34300  0.57890  0.08120  1.0000 -0.1718015708
C   C20       1.0  0.65700  0.42110  0.91880  1.0000 -0.1718015708
C   C21       1.0  0.29320  0.49150  0.08970  1.0000 0.068403411
C   C22       1.0  0.70680  0.50850  0.91030  1.0000 0.068403411
C   C23       1.0  0.21780  0.40680  0.17180  1.0000 0.5418021238
C   C24       1.0  0.78220  0.59320  0.82820  1.0000 0.5418021238
C   C25       1.0  0.71580  0.90710  0.63990  1.0000 0.5531097686
C   C26       1.0  0.28420  0.09290  0.36010  1.0000 0.5531097686
C   C27       1.0  0.69560  0.02980  0.60220  1.0000 0.0523330501
C   C28       1.0  0.30440  0.97020  0.39780  1.0000 0.0523330501
C   C29       1.0  0.75330  0.10500  0.60400  1.0000 -0.1911981964
C   C30       1.0  0.24670  0.89500  0.39600  1.0000 -0.1911981964
C   C31       1.0  0.70930  0.21230  0.54540  1.0000 -0.1718015708
C   C32       1.0  0.29070  0.78770  0.45460  1.0000 -0.1718015708
C   C33       1.0  0.62590  0.19640  0.51110  1.0000 0.0593513833
C   C34       1.0  0.37410  0.80360  0.48890  1.0000 0.0593513833
C   C35       1.0  0.55400  0.27770  0.44520  1.0000 0.5418021238
C   C36       1.0  0.44600  0.72230  0.55480  1.0000 0.5418021238
C   C37       1.0  0.93300  0.07720  0.37640  1.0000 0.0764089829
C   C38       1.0  0.06700  0.92280  0.62360  1.0000 0.0764089829
C   C39       1.0  0.84150  0.02060  0.38730  1.0000 -0.1911981964
C   C40       1.0  0.15850  0.97940  0.61270  1.0000 -0.1911981964
C   C41       1.0  0.75420  0.07520  0.33600  1.0000 0.1828847235
C   C42       1.0  0.24580  0.92480  0.66400  1.0000 0.1828847235
C   C43       1.0  0.86480  0.23860  0.26380  1.0000 0.0923514074
C   C44       1.0  0.13520  0.76140  0.73620  1.0000 0.0923514074
C   C45       1.0  0.76940  0.18610  0.27250  1.0000 -0.1911981964
C   C46       1.0  0.23060  0.81390  0.72750  1.0000 -0.1911981964
C   C47       1.0  0.64830  0.01630  0.35290  1.0000 -0.2416018093
C   C48       1.0  0.35170  0.98370  0.64710  1.0000 -0.2416018093
C   C49       1.0  0.64330  0.00930  0.26460  1.0000 -0.1331707755
C   C50       1.0  0.35670  0.99070  0.73540  1.0000 -0.1331707755
C   C51       1.0  0.73950  0.92960  0.23230  1.0000 -0.2281758332
C   C52       1.0  0.26050  0.07040  0.76770  1.0000 -0.2281758332
C   C53       1.0  0.69010  0.82570  0.25040  1.0000 0.168137089
C   C54       1.0  0.30990  0.17430  0.74960  1.0000 0.168137089
C   C55       1.0  0.66140  0.81680  0.17990  1.0000 -0.1911981964
C   C56       1.0  0.33860  0.18320  0.82010  1.0000 -0.1911981964
C   C57       1.0  0.66400  0.73720  0.34070  1.0000 -0.1911981964
C   C58       1.0  0.33600  0.26280  0.65930  1.0000 -0.1911981964
C   C59       1.0  0.61460  0.64350  0.35540  1.0000 0.1107295099
C   C60       1.0  0.38540  0.35650  0.64460  1.0000 0.1107295099
C   C61       1.0  0.61340  0.72240  0.19690  1.0000 0.068403411
C   C62       1.0  0.38660  0.27760  0.80310  1.0000 0.068403411
N   N1        1.0  0.94600  0.18730  0.31640  1.0000 -0.2470533023
N   N2        1.0  0.05400  0.81270  0.68360  1.0000 -0.2470533023
N   N3        1.0  0.58930  0.63550  0.28440  1.0000 -0.224520936
N   N4        1.0  0.41070  0.36450  0.71560  1.0000 -0.224520936
O   O1        1.0  0.79310  0.69850  0.53540  1.0000 -0.5425010467
O   O2        1.0  0.20690  0.30150  0.46460  1.0000 -0.5425010467
O   O3        1.0  0.95430  0.74250  0.55340  1.0000 -0.5308853631
O   O4        1.0  0.04570  0.25750  0.44660  1.0000 -0.5308853631
O   O5        1.0  0.10660  0.62950  0.45240  1.0000 -0.0967155335
O   O6        1.0  0.89340  0.37050  0.54760  1.0000 -0.0967155335
O   O7        1.0  0.34670  0.50040  0.31790  1.0000 -0.5601936722
O   O8        1.0  0.65330  0.49960  0.68210  1.0000 -0.5601936722
O   O9        1.0  0.34220  0.54690  0.43510  1.0000 -0.5012369597
O   O10       1.0  0.65780  0.45310  0.56490  1.0000 -0.5012369597
O   O11       1.0  0.40700  0.51580  0.81660  1.0000 -0.5308853631
O   O12       1.0  0.59300  0.48420  0.18340  1.0000 -0.5308853631
O   O13       1.0  0.51340  0.65780  0.77900  1.0000 -0.5425010467
O   O14       1.0  0.48660  0.34220  0.22100  1.0000 -0.5425010467
O   O15       1.0  0.31720  0.49000  0.00000  1.0000 -0.0967155335
O   O16       1.0  0.68280  0.51000  0.00000  1.0000 -0.0967155335
O   O17       1.0  0.22020  0.38570  0.25610  1.0000 -0.5518226469
O   O18       1.0  0.77980  0.61430  0.74390  1.0000 -0.5518226469
O   O19       1.0  0.14950  0.35910  0.15830  1.0000 -0.5134258115
O   O20       1.0  0.85050  0.64090  0.84170  1.0000 -0.5134258115
O   O21       1.0  0.80160  0.86670  0.68060  1.0000 -0.5601936722
O   O22       1.0  0.19840  0.13330  0.31940  1.0000 -0.5601936722
O   O23       1.0  0.64900  0.85390  0.63020  1.0000 -0.5224416996
O   O24       1.0  0.35100  0.14610  0.36980  1.0000 -0.5224416996
O   O25       1.0  0.61420  0.08410  0.54660  1.0000 -0.1198580706
O   O26       1.0  0.38580  0.91590  0.45340  1.0000 -0.1198580706
O   O27       1.0  0.46920  0.24880  0.43350  1.0000 -0.5224416996
O   O28       1.0  0.53080  0.75120  0.56650  1.0000 -0.5224416996
O   O29       1.0  0.59040  0.37590  0.40440  1.0000 -0.5308853631
O   O30       1.0  0.40960  0.62410  0.59560  1.0000 -0.5308853631
