# DDEC6 charges by PACMAN v1.1 (https://github.com/mtap-research/PACMAN-charge/)
data_2012[Mg][nan]3[ASR]4
_chemical_formula_sum              "Mg6 P6 H36 C18 N6 O18"
_cell_length_a       16.3614
_cell_length_b       16.3614
_cell_length_c       16.3614
_cell_angle_alpha    118.38
_cell_angle_beta     118.38
_cell_angle_gamma    118.38

_symmetry_space_group_name_H-M    "P 1"
_symmetry_Int_Tables_number       1

loop_
  _symmetry_equiv_pos_as_xyz
  'x, y, z'

loop_
  _atom_site_type_symbol
  _atom_site_label
  _atom_site_symmetry_multiplicity
  _atom_site_fract_x
  _atom_site_fract_y
  _atom_site_fract_z
  _atom_site_occupancy
  _atom_site_charge
Mg  Mg1       1.0  0.54477  0.96425  0.29163  1.0000 1.3595259853
Mg  Mg2       1.0  0.96425  0.29163  0.54477  1.0000 1.3595259853
Mg  Mg3       1.0  0.29163  0.54477  0.96425  1.0000 1.3595259853
Mg  Mg4       1.0  0.45523  0.03575  0.70837  1.0000 1.3595259853
Mg  Mg5       1.0  0.03575  0.70837  0.45523  1.0000 1.3595259853
Mg  Mg6       1.0  0.70837  0.45523  0.03575  1.0000 1.3595259853
P   P1        1.0  0.99127  0.45568  0.79514  1.0000 1.3105091122
P   P2        1.0  0.45568  0.79514  0.99127  1.0000 1.3105091122
P   P3        1.0  0.79514  0.99127  0.45568  1.0000 1.3105091122
P   P4        1.0  0.00873  0.54432  0.20486  1.0000 1.3105091122
P   P5        1.0  0.54432  0.20486  0.00873  1.0000 1.3105091122
P   P6        1.0  0.20486  0.00873  0.54432  1.0000 1.3105091122
H   H1        1.0  0.87620  0.34420  0.82330  1.0000 0.1318981226
H   H2        1.0  0.34420  0.82330  0.87620  1.0000 0.1318981226
H   H3        1.0  0.82330  0.87620  0.34420  1.0000 0.1318981226
H   H4        1.0  0.12380  0.65580  0.17670  1.0000 0.1318981226
H   H5        1.0  0.65580  0.17670  0.12380  1.0000 0.1318981226
H   H6        1.0  0.17670  0.12380  0.65580  1.0000 0.1318981226
H   H7        1.0  0.88450  0.25130  0.74620  1.0000 0.1462525594
H   H8        1.0  0.25130  0.74620  0.88450  1.0000 0.1462525594
H   H9        1.0  0.74620  0.88450  0.25130  1.0000 0.1462525594
H   H10       1.0  0.11550  0.74870  0.25380  1.0000 0.1462525594
H   H11       1.0  0.74870  0.25380  0.11550  1.0000 0.1462525594
H   H12       1.0  0.25380  0.11550  0.74870  1.0000 0.1462525594
H   H13       1.0  0.58730  0.18690  0.53090  1.0000 0.1318981226
H   H14       1.0  0.18690  0.53090  0.58730  1.0000 0.1318981226
H   H15       1.0  0.53090  0.58730  0.18690  1.0000 0.1318981226
H   H16       1.0  0.41270  0.81310  0.46910  1.0000 0.1318981226
H   H17       1.0  0.81310  0.46910  0.41270  1.0000 0.1318981226
H   H18       1.0  0.46910  0.41270  0.81310  1.0000 0.1318981226
H   H19       1.0  0.35470  0.93320  0.31460  1.0000 0.1189428412
H   H20       1.0  0.93320  0.31460  0.35470  1.0000 0.1189428412
H   H21       1.0  0.31460  0.35470  0.93320  1.0000 0.1189428412
H   H22       1.0  0.64530  0.06680  0.68540  1.0000 0.1189428412
H   H23       1.0  0.06680  0.68540  0.64530  1.0000 0.1189428412
H   H24       1.0  0.68540  0.64530  0.06680  1.0000 0.1189428412
H   H25       1.0  0.33360  0.74710  0.26170  1.0000 0.1140104848
H   H26       1.0  0.74710  0.26170  0.33360  1.0000 0.1140104848
H   H27       1.0  0.26170  0.33360  0.74710  1.0000 0.1140104848
H   H28       1.0  0.66640  0.25290  0.73830  1.0000 0.1140104848
H   H29       1.0  0.25290  0.73830  0.66640  1.0000 0.1140104848
H   H30       1.0  0.73830  0.66640  0.25290  1.0000 0.1140104848
H   H31       1.0  0.55450  0.89320  0.44820  1.0000 0.1318981226
H   H32       1.0  0.89320  0.44820  0.55450  1.0000 0.1318981226
H   H33       1.0  0.44820  0.55450  0.89320  1.0000 0.1318981226
H   H34       1.0  0.44550  0.10680  0.55180  1.0000 0.1318981226
H   H35       1.0  0.10680  0.55180  0.44550  1.0000 0.1318981226
H   H36       1.0  0.55180  0.44550  0.10680  1.0000 0.1318981226
C   C1        1.0  0.83999  0.27445  0.72526  1.0000 -0.4660190475
C   C2        1.0  0.27445  0.72526  0.83999  1.0000 -0.4660190475
C   C3        1.0  0.72526  0.83999  0.27445  1.0000 -0.4660190475
C   C4        1.0  0.16001  0.72555  0.27474  1.0000 -0.4660190475
C   C5        1.0  0.72555  0.27474  0.16001  1.0000 -0.4660190475
C   C6        1.0  0.27474  0.16001  0.72555  1.0000 -0.4660190475
C   C7        1.0  0.50603  0.06922  0.46945  1.0000 -0.1245229152
C   C8        1.0  0.06922  0.46945  0.50603  1.0000 -0.1245229152
C   C9        1.0  0.46945  0.50603  0.06922  1.0000 -0.1245229152
C   C10       1.0  0.49397  0.93078  0.53055  1.0000 -0.1245229152
C   C11       1.0  0.93078  0.53055  0.49397  1.0000 -0.1245229152
C   C12       1.0  0.53055  0.49397  0.93078  1.0000 -0.1255812904
C   C13       1.0  0.48577  0.89156  0.41897  1.0000 -0.1093300117
C   C14       1.0  0.89156  0.41897  0.48577  1.0000 -0.1093300117
C   C15       1.0  0.41897  0.48577  0.89156  1.0000 -0.1093300117
C   C16       1.0  0.51423  0.10844  0.58103  1.0000 -0.1093300117
C   C17       1.0  0.10844  0.58103  0.51423  1.0000 -0.1093300117
C   C18       1.0  0.58103  0.51423  0.10844  1.0000 -0.1093300117
N   N1        1.0  0.59687  0.05708  0.49275  1.0000 -0.1255812904
N   N2        1.0  0.05708  0.49275  0.59687  1.0000 -0.1255812904
N   N3        1.0  0.49275  0.59687  0.05708  1.0000 -0.1255812904
N   N4        1.0  0.40313  0.94292  0.50725  1.0000 -0.1255812904
N   N5        1.0  0.94292  0.50725  0.40313  1.0000 -0.1255812904
N   N6        1.0  0.50725  0.40313  0.94292  1.0000 -0.1255812904
O   O1        1.0  0.99460  0.56341  0.84719  1.0000 -0.7722644639
O   O2        1.0  0.56341  0.84719  0.99460  1.0000 -0.7722644639
O   O3        1.0  0.84719  0.99460  0.56341  1.0000 -0.7722644639
O   O4        1.0  0.00540  0.43659  0.15281  1.0000 -0.7722644639
O   O5        1.0  0.43659  0.15281  0.00540  1.0000 -0.7722644639
O   O6        1.0  0.15281  0.00540  0.43659  1.0000 -0.7722644639
O   O7        1.0  0.22325  0.62465  0.99140  1.0000 -0.9137217236
O   O8        1.0  0.62465  0.99140  0.22325  1.0000 -0.9137217236
O   O9        1.0  0.99140  0.22325  0.62465  1.0000 -0.9137217236
O   O10       1.0  0.77675  0.37535  0.00860  1.0000 -0.9137217236
O   O11       1.0  0.37535  0.00860  0.77675  1.0000 -0.9137217236
O   O12       1.0  0.00860  0.77675  0.37535  1.0000 -0.9137217236
O   O13       1.0  0.86726  0.30032  0.59022  1.0000 -0.9333195023
O   O14       1.0  0.30032  0.59022  0.86726  1.0000 -0.9333195023
O   O15       1.0  0.59022  0.86726  0.30032  1.0000 -0.9333195023
O   O16       1.0  0.13274  0.69968  0.40978  1.0000 -0.9333195023
O   O17       1.0  0.69968  0.40978  0.13274  1.0000 -0.9333195023
O   O18       1.0  0.40978  0.13274  0.69968  1.0000 -0.9333195023
