# DDEC6 charges by PACMAN v1.1 (https://github.com/mtap-research/PACMAN-charge/)
data_2012[DyZn][nan]3[ASR]2
_chemical_formula_sum              "Dy4 Zn2 H36 C72 N12 O24"
_cell_length_a       12.051
_cell_length_b       12.051
_cell_length_c       21.4272
_cell_angle_alpha    77.4218
_cell_angle_beta     102.578
_cell_angle_gamma    92.2889

_symmetry_space_group_name_H-M    "P 1"
_symmetry_Int_Tables_number       1

loop_
  _symmetry_equiv_pos_as_xyz
  'x, y, z'

loop_
  _atom_site_type_symbol
  _atom_site_label
  _atom_site_symmetry_multiplicity
  _atom_site_fract_x
  _atom_site_fract_y
  _atom_site_fract_z
  _atom_site_occupancy
  _atom_site_charge
Dy  Dy1       1.0  0.08938  0.04602  0.93091  1.0000 2.0490169944
Dy  Dy2       1.0  0.04602  0.08938  0.56909  1.0000 2.0490169944
Dy  Dy3       1.0  0.91062  0.95398  0.06909  1.0000 2.0490169944
Dy  Dy4       1.0  0.95398  0.91062  0.43091  1.0000 2.0490169944
Zn  Zn1       1.0  0.43899  0.43899  0.25000  1.0000 0.4819622161
Zn  Zn2       1.0  0.56101  0.56101  0.75000  1.0000 0.4819622161
H   H1        1.0  0.08500  0.69160  0.13440  1.0000 0.1474682586
H   H2        1.0  0.69160  0.08500  0.36560  1.0000 0.1474682586
H   H3        1.0  0.91500  0.30840  0.86560  1.0000 0.1474682586
H   H4        1.0  0.30840  0.91500  0.63440  1.0000 0.1474682586
H   H5        1.0  0.36840  0.78040  0.06730  1.0000 0.1474682586
H   H6        1.0  0.78040  0.36840  0.43270  1.0000 0.1474682586
H   H7        1.0  0.63160  0.21960  0.93270  1.0000 0.1474682586
H   H8        1.0  0.21960  0.63160  0.56730  1.0000 0.1474682586
H   H9        1.0  0.80430  0.54690  0.16370  1.0000 0.1387835583
H   H10       1.0  0.54690  0.80430  0.33630  1.0000 0.1387835583
H   H11       1.0  0.19570  0.45310  0.83630  1.0000 0.1387835583
H   H12       1.0  0.45310  0.19570  0.66370  1.0000 0.1387835583
H   H13       1.0  0.13980  0.16260  0.19620  1.0000 0.1387835583
H   H14       1.0  0.16260  0.13980  0.30380  1.0000 0.1387835583
H   H15       1.0  0.86020  0.83740  0.80380  1.0000 0.1387835583
H   H16       1.0  0.83740  0.86020  0.69620  1.0000 0.1387835583
H   H17       1.0  0.68320  0.42060  0.21040  1.0000 0.0941359611
H   H18       1.0  0.42060  0.68320  0.28960  1.0000 0.0941359611
H   H19       1.0  0.31680  0.57940  0.78960  1.0000 0.0941359611
H   H20       1.0  0.57940  0.31680  0.71040  1.0000 0.0941359611
H   H21       1.0  0.43750  0.35230  0.12150  1.0000 0.0955327423
H   H22       1.0  0.35230  0.43750  0.37850  1.0000 0.0941359611
H   H23       1.0  0.56250  0.64770  0.87850  1.0000 0.0955327423
H   H24       1.0  0.64770  0.56250  0.62150  1.0000 0.0941359611
H   H25       1.0  0.32320  0.24480  0.05710  1.0000 0.1474682586
H   H26       1.0  0.24480  0.32320  0.44290  1.0000 0.1474682586
H   H27       1.0  0.67680  0.75520  0.94290  1.0000 0.1474682586
H   H28       1.0  0.75520  0.67680  0.55710  1.0000 0.1474682586
H   H29       1.0  0.18680  0.54220  0.20870  1.0000 0.0941359611
H   H30       1.0  0.54220  0.18680  0.29130  1.0000 0.0941359611
H   H31       1.0  0.81320  0.45780  0.79130  1.0000 0.0941359611
H   H32       1.0  0.45780  0.81320  0.70870  1.0000 0.0941359611
H   H33       1.0  0.55340  0.77760  0.10260  1.0000 0.1387835583
H   H34       1.0  0.77760  0.55340  0.39740  1.0000 0.1387835583
H   H35       1.0  0.44660  0.22240  0.89740  1.0000 0.1387835583
H   H36       1.0  0.22240  0.44660  0.60260  1.0000 0.1387835583
C   C1        1.0  0.50920  0.62400  0.15090  1.0000 0.1387835583
C   C2        1.0  0.62400  0.50920  0.34910  1.0000 0.1387835583
C   C3        1.0  0.49080  0.37600  0.84910  1.0000 0.1387835583
C   C4        1.0  0.37600  0.49080  0.65090  1.0000 0.1387835583
C   C5        1.0  0.16160  0.68140  0.13550  1.0000 -0.1711116554
C   C6        1.0  0.68140  0.16160  0.36450  1.0000 -0.1711116554
C   C7        1.0  0.83840  0.31860  0.86450  1.0000 -0.1711116554
C   C8        1.0  0.31860  0.83840  0.63550  1.0000 -0.1711116554
C   C9        1.0  0.21610  0.75370  0.09250  1.0000 0.0266298745
C   C10       1.0  0.75370  0.21610  0.40750  1.0000 0.0266298745
C   C11       1.0  0.78390  0.24630  0.90750  1.0000 0.0266298745
C   C12       1.0  0.24630  0.78390  0.59250  1.0000 0.0266298745
C   C13       1.0  0.33000  0.73460  0.09650  1.0000 -0.1894655405
C   C14       1.0  0.73460  0.33000  0.40350  1.0000 -0.1894655405
C   C15       1.0  0.67000  0.26540  0.90350  1.0000 -0.1894655405
C   C16       1.0  0.26540  0.67000  0.59650  1.0000 -0.1894655405
C   C17       1.0  0.14030  0.12250  0.07740  1.0000 0.6299119713
C   C18       1.0  0.12250  0.14030  0.42260  1.0000 0.6299119713
C   C19       1.0  0.85970  0.87750  0.92260  1.0000 0.6299119713
C   C20       1.0  0.87750  0.85970  0.57740  1.0000 0.6299119713
C   C21       1.0  0.73000  0.56860  0.16120  1.0000 -0.1824979661
C   C22       1.0  0.56860  0.73000  0.33880  1.0000 -0.1824979661
C   C23       1.0  0.27000  0.43140  0.83880  1.0000 -0.1824979661
C   C24       1.0  0.43140  0.27000  0.66120  1.0000 -0.1824979661
C   C25       1.0  0.20060  0.19920  0.18040  1.0000 -0.1894655405
C   C26       1.0  0.19920  0.20060  0.31960  1.0000 -0.1894655405
C   C27       1.0  0.79940  0.80080  0.81960  1.0000 -0.1894655405
C   C28       1.0  0.80080  0.79940  0.68040  1.0000 -0.1894655405
C   C29       1.0  0.21880  0.19080  0.11900  1.0000 0.0184446378
C   C30       1.0  0.19080  0.21880  0.38100  1.0000 0.0184446378
C   C31       1.0  0.78120  0.80920  0.88100  1.0000 0.0184446378
C   C32       1.0  0.80920  0.78120  0.61900  1.0000 0.0184446378
C   C33       1.0  0.65670  0.49310  0.18840  1.0000 0.0372653617
C   C34       1.0  0.49310  0.65670  0.31160  1.0000 0.0372653617
C   C35       1.0  0.34330  0.50690  0.81160  1.0000 0.0372653617
C   C36       1.0  0.50690  0.34330  0.68840  1.0000 0.0372653617
C   C37       1.0  0.37760  0.31260  0.13670  1.0000 0.0499955732
C   C38       1.0  0.31260  0.37760  0.36330  1.0000 0.0499955732
C   C39       1.0  0.62240  0.68740  0.86330  1.0000 0.0499955732
C   C40       1.0  0.68740  0.62240  0.63670  1.0000 0.0499955732
C   C41       1.0  0.69170  0.67850  0.12970  1.0000 0.0372653617
C   C42       1.0  0.67850  0.69170  0.37030  1.0000 0.0372653617
C   C43       1.0  0.30830  0.32150  0.87030  1.0000 0.0372653617
C   C44       1.0  0.32150  0.30830  0.62970  1.0000 0.0372653617
C   C45       1.0  0.27430  0.26250  0.21640  1.0000 0.1387835583
C   C46       1.0  0.26250  0.27430  0.28360  1.0000 0.1387835583
C   C47       1.0  0.72570  0.73750  0.78360  1.0000 0.1387835583
C   C48       1.0  0.73750  0.72570  0.71640  1.0000 0.1387835583
C   C49       1.0  0.77130  0.76890  0.10440  1.0000 0.5395171167
C   C50       1.0  0.76890  0.77130  0.39560  1.0000 0.5395171167
C   C51       1.0  0.22870  0.23110  0.89560  1.0000 0.5395171167
C   C52       1.0  0.23110  0.22870  0.60440  1.0000 0.5395171167
C   C53       1.0  0.38660  0.64640  0.14460  1.0000 0.1387835583
C   C54       1.0  0.64640  0.38660  0.35540  1.0000 0.1387835583
C   C55       1.0  0.61340  0.35360  0.85540  1.0000 0.1387835583
C   C56       1.0  0.35360  0.61340  0.64460  1.0000 0.1387835583
C   C57       1.0  0.30880  0.24860  0.09750  1.0000 -0.1711116554
C   C58       1.0  0.24860  0.30880  0.40250  1.0000 -0.1711116554
C   C59       1.0  0.69120  0.75140  0.90250  1.0000 -0.1711116554
C   C60       1.0  0.75140  0.69120  0.59750  1.0000 -0.1711116554
C   C61       1.0  0.22430  0.59250  0.18090  1.0000 0.0591516318
C   C62       1.0  0.59250  0.22430  0.31910  1.0000 0.0591516318
C   C63       1.0  0.77570  0.40750  0.81910  1.0000 0.0591516318
C   C64       1.0  0.40750  0.77570  0.68090  1.0000 0.0591516318
C   C65       1.0  0.58110  0.70530  0.12420  1.0000 -0.1894655405
C   C66       1.0  0.70530  0.58110  0.37580  1.0000 -0.1894655405
C   C67       1.0  0.41890  0.29470  0.87580  1.0000 -0.1894655405
C   C68       1.0  0.29470  0.41890  0.62420  1.0000 -0.1894655405
C   C69       1.0  0.15950  0.85230  0.04050  1.0000 0.6172555359
C   C70       1.0  0.85230  0.15950  0.45950  1.0000 0.6172555359
C   C71       1.0  0.84050  0.14770  0.95950  1.0000 0.6172555359
C   C72       1.0  0.14770  0.84050  0.54050  1.0000 0.6172555359
N   N1        1.0  0.36140  0.31960  0.19510  1.0000 -0.2431495553
N   N2        1.0  0.31960  0.36140  0.30490  1.0000 -0.2431495553
N   N3        1.0  0.63860  0.68040  0.80490  1.0000 -0.2431495553
N   N4        1.0  0.68040  0.63860  0.69510  1.0000 -0.2431495553
N   N5        1.0  0.33360  0.57640  0.18620  1.0000 -0.247781883
N   N6        1.0  0.57640  0.33360  0.31380  1.0000 -0.247781883
N   N7        1.0  0.66640  0.42360  0.81380  1.0000 -0.247781883
N   N8        1.0  0.42360  0.66640  0.68620  1.0000 -0.247781883
N   N9        1.0  0.54840  0.51960  0.18450  1.0000 -0.2596133715
N   N10       1.0  0.51960  0.54840  0.31550  1.0000 -0.2596133715
N   N11       1.0  0.45160  0.48040  0.81550  1.0000 -0.2596133715
N   N12       1.0  0.48040  0.45160  0.68450  1.0000 -0.2596133715
O   O1        1.0  0.16880  0.10800  0.02680  1.0000 -0.6578520594
O   O2        1.0  0.10800  0.16880  0.47320  1.0000 -0.6543308674
O   O3        1.0  0.83120  0.89200  0.97320  1.0000 -0.6543308674
O   O4        1.0  0.89200  0.83120  0.52680  1.0000 -0.6543308674
O   O5        1.0  0.21220  0.89760  0.99770  1.0000 -0.6194328694
O   O6        1.0  0.89760  0.21220  0.50230  1.0000 -0.6194328694
O   O7        1.0  0.78780  0.10240  0.00230  1.0000 -0.6194328694
O   O8        1.0  0.10240  0.78780  0.49770  1.0000 -0.6194328694
O   O9        1.0  0.06270  0.88350  0.04140  1.0000 -0.7336097239
O   O10       1.0  0.88350  0.06270  0.45860  1.0000 -0.7336097239
O   O11       1.0  0.93730  0.11650  0.95860  1.0000 -0.7336097239
O   O12       1.0  0.11650  0.93730  0.54140  1.0000 -0.7336097239
O   O13       1.0  0.86910  0.74310  0.10100  1.0000 -0.643757361
O   O14       1.0  0.74310  0.86910  0.39900  1.0000 -0.643757361
O   O15       1.0  0.13090  0.25690  0.89900  1.0000 -0.643757361
O   O16       1.0  0.25690  0.13090  0.60100  1.0000 -0.643757361
O   O17       1.0  0.73540  0.86980  0.08850  1.0000 -0.6578520594
O   O18       1.0  0.86980  0.73540  0.41150  1.0000 -0.6578520594
O   O19       1.0  0.26460  0.13020  0.91150  1.0000 -0.6578520594
O   O20       1.0  0.13020  0.26460  0.58850  1.0000 -0.6578520594
O   O21       1.0  0.05220  0.08300  0.09720  1.0000 -0.7101216791
O   O22       1.0  0.08300  0.05220  0.40280  1.0000 -0.7101216791
O   O23       1.0  0.94780  0.91700  0.90280  1.0000 -0.7101216791
O   O24       1.0  0.91700  0.94780  0.59720  1.0000 -0.7101216791
