# DDEC6 charges by PACMAN v1.1 (https://github.com/mtap-research/PACMAN-charge/)
data_2012[Zn][pcu]3[ASR]13
_chemical_formula_sum              "Zn8 H68 C112 N20 O32"
_cell_length_a       19.2303
_cell_length_b       19.2303
_cell_length_c       13.7633
_cell_angle_alpha    76.2276
_cell_angle_beta     103.772
_cell_angle_gamma    128.851

_symmetry_space_group_name_H-M    "P 1"
_symmetry_Int_Tables_number       1

loop_
  _symmetry_equiv_pos_as_xyz
  'x, y, z'

loop_
  _atom_site_type_symbol
  _atom_site_label
  _atom_site_symmetry_multiplicity
  _atom_site_fract_x
  _atom_site_fract_y
  _atom_site_fract_z
  _atom_site_occupancy
  _atom_site_charge
Zn  Zn1       1.0  0.91995  0.57107  0.74412  1.0000 0.8314745502
Zn  Zn2       1.0  0.42893  0.08005  0.24412  1.0000 0.8314745502
Zn  Zn3       1.0  0.84145  0.66899  0.68370  1.0000 0.8314745502
Zn  Zn4       1.0  0.33101  0.15855  0.18370  1.0000 0.8314745502
Zn  Zn5       1.0  0.57107  0.91995  0.75588  1.0000 0.8314745502
Zn  Zn6       1.0  0.08005  0.42893  0.25588  1.0000 0.8314745502
Zn  Zn7       1.0  0.66899  0.84145  0.81630  1.0000 0.8314745502
Zn  Zn8       1.0  0.15855  0.33101  0.31630  1.0000 0.8314745502
H   H1        1.0  0.99700  0.84040  0.44200  1.0000 0.1179841586
H   H2        1.0  0.15960  0.00300  0.94200  1.0000 0.1179841586
H   H3        1.0  0.11040  0.95240  0.34410  1.0000 0.1179841586
H   H4        1.0  0.04760  0.88960  0.84410  1.0000 0.1179841586
H   H5        1.0  0.23220  0.83400  0.43120  1.0000 0.1179841586
H   H6        1.0  0.16600  0.76780  0.93120  1.0000 0.1179841586
H   H7        1.0  0.11610  0.71910  0.52570  1.0000 0.1179841586
H   H8        1.0  0.28090  0.88390  0.02570  1.0000 0.1179841586
H   H9        1.0  0.52550  0.40350  0.99060  1.0000 0.1179841586
H   H10       1.0  0.59650  0.47450  0.49060  1.0000 0.1179841586
H   H11       1.0  0.64890  0.28610  0.08360  1.0000 0.1179841586
H   H12       1.0  0.71390  0.35110  0.58360  1.0000 0.1179841586
H   H13       1.0  0.76300  0.39840  0.98600  1.0000 0.1179841586
H   H14       1.0  0.60160  0.23700  0.48600  1.0000 0.1179841586
H   H15       1.0  0.63830  0.51430  0.89150  1.0000 0.1179841586
H   H16       1.0  0.48570  0.36170  0.39150  1.0000 0.1179841586
H   H17       1.0  0.94370  0.86210  0.62060  1.0000 0.1179841586
H   H18       1.0  0.13790  0.05630  0.12060  1.0000 0.1179841586
H   H19       1.0  0.92340  0.96460  0.52270  1.0000 0.1387611704
H   H20       1.0  0.03540  0.07660  0.02270  1.0000 0.1387611704
H   H21       1.0  0.65810  0.77870  0.53590  1.0000 0.1472115965
H   H22       1.0  0.22130  0.34190  0.03590  1.0000 0.1472115965
H   H23       1.0  0.68680  0.68200  0.63140  1.0000 0.1179841586
H   H24       1.0  0.31800  0.31320  0.13140  1.0000 0.1179841586
H   H25       1.0  0.81520  0.09900  0.29440  1.0000 0.1297033878
H   H26       1.0  0.90100  0.18480  0.79440  1.0000 0.1297033878
H   H27       1.0  0.57580  0.94980  0.47040  1.0000 0.1472115965
H   H28       1.0  0.05020  0.42420  0.97040  1.0000 0.1472115965
H   H29       1.0  0.47100  0.97740  0.41550  1.0000 0.108057876
H   H30       1.0  0.02260  0.52900  0.91550  1.0000 0.108057876
H   H31       1.0  0.57420  0.10760  0.16160  1.0000 0.1179841586
H   H32       1.0  0.89240  0.42580  0.66160  1.0000 0.1179841586
H   H33       1.0  0.68050  0.08150  0.20800  1.0000 0.1387611704
H   H34       1.0  0.91850  0.31950  0.70800  1.0000 0.1387611704
H   H35       1.0  0.84040  0.99700  0.05800  1.0000 0.1179841586
H   H36       1.0  0.00300  0.15960  0.55800  1.0000 0.1179841586
H   H37       1.0  0.95240  0.11040  0.15590  1.0000 0.1179841586
H   H38       1.0  0.88960  0.04760  0.65590  1.0000 0.1179841586
H   H39       1.0  0.83400  0.23220  0.06880  1.0000 0.1179841586
H   H40       1.0  0.76780  0.16600  0.56880  1.0000 0.1179841586
H   H41       1.0  0.71910  0.11610  0.97430  1.0000 0.1179841586
H   H42       1.0  0.88390  0.28090  0.47430  1.0000 0.1179841586
H   H43       1.0  0.40350  0.52550  0.50940  1.0000 0.1179841586
H   H44       1.0  0.47450  0.59650  0.00940  1.0000 0.1179841586
H   H45       1.0  0.28610  0.64890  0.41640  1.0000 0.1179841586
H   H46       1.0  0.35110  0.71390  0.91640  1.0000 0.1179841586
H   H47       1.0  0.39840  0.76300  0.51400  1.0000 0.1179841586
H   H48       1.0  0.23700  0.60160  0.01400  1.0000 0.1179841586
H   H49       1.0  0.51430  0.63830  0.60850  1.0000 0.1179841586
H   H50       1.0  0.36170  0.48570  0.10850  1.0000 0.1179841586
H   H51       1.0  0.86210  0.94370  0.87940  1.0000 0.1179841586
H   H52       1.0  0.05630  0.13790  0.37940  1.0000 0.1179841586
H   H53       1.0  0.96460  0.92340  0.97730  1.0000 0.1387611704
H   H54       1.0  0.07660  0.03540  0.47730  1.0000 0.1387611704
H   H55       1.0  0.77870  0.65810  0.96410  1.0000 0.1472115965
H   H56       1.0  0.34190  0.22130  0.46410  1.0000 0.1472115965
H   H57       1.0  0.68200  0.68680  0.86860  1.0000 0.1179841586
H   H58       1.0  0.31320  0.31800  0.36860  1.0000 0.1179841586
H   H59       1.0  0.09900  0.81520  0.20560  1.0000 0.1297033878
H   H60       1.0  0.18480  0.90100  0.70560  1.0000 0.1297033878
H   H61       1.0  0.94980  0.57580  0.02960  1.0000 0.1472115965
H   H62       1.0  0.42420  0.05020  0.52960  1.0000 0.1472115965
H   H63       1.0  0.97740  0.47100  0.08450  1.0000 0.108057876
H   H64       1.0  0.52900  0.02260  0.58450  1.0000 0.108057876
H   H65       1.0  0.10760  0.57420  0.33840  1.0000 0.1179841586
H   H66       1.0  0.42580  0.89240  0.83840  1.0000 0.1179841586
H   H67       1.0  0.08150  0.68050  0.29200  1.0000 0.1387611704
H   H68       1.0  0.31950  0.91850  0.79200  1.0000 0.1387611704
C   C1        1.0  0.26038  0.98266  0.32140  1.0000 0.578370698
C   C2        1.0  0.01734  0.73962  0.82140  1.0000 0.578370698
C   C3        1.0  0.97832  0.70332  0.56870  1.0000 0.578370698
C   C4        1.0  0.29668  0.02168  0.06870  1.0000 0.578370698
C   C5        1.0  0.04673  0.76993  0.49690  1.0000 -0.0197878204
C   C6        1.0  0.23007  0.95327  0.99690  1.0000 -0.0197878204
C   C7        1.0  0.04499  0.83931  0.44050  1.0000 -0.1021621722
C   C8        1.0  0.16069  0.95501  0.94050  1.0000 -0.1021621722
C   C9        1.0  0.11266  0.90626  0.38260  1.0000 -0.1092156058
C   C10       1.0  0.09374  0.88734  0.88260  1.0000 -0.1092156058
C   C11       1.0  0.18456  0.90612  0.38065  1.0000 -0.0276675087
C   C12       1.0  0.09388  0.81544  0.88065  1.0000 -0.0276675087
C   C13       1.0  0.18482  0.83568  0.43380  1.0000 -0.118081901
C   C14       1.0  0.16432  0.81518  0.93380  1.0000 -0.118081901
C   C15       1.0  0.11586  0.76744  0.49080  1.0000 -0.118081901
C   C16       1.0  0.23256  0.88414  0.99080  1.0000 -0.118081901
C   C17       1.0  0.49931  0.25715  0.10620  1.0000 0.5862370806
C   C18       1.0  0.74285  0.50069  0.60620  1.0000 0.5862370806
C   C19       1.0  0.57445  0.33215  0.04554  1.0000 -0.0197878204
C   C20       1.0  0.66785  0.42555  0.54554  1.0000 -0.0197878204
C   C21       1.0  0.57294  0.40186  0.98870  1.0000 -0.1021621722
C   C22       1.0  0.59814  0.42706  0.48870  1.0000 -0.1021621722
C   C23       1.0  0.64648  0.33204  0.04440  1.0000 -0.1021621722
C   C24       1.0  0.66796  0.35352  0.54440  1.0000 -0.1021621722
C   C25       1.0  0.78147  0.53465  0.85767  1.0000 0.578370698
C   C26       1.0  0.46535  0.21853  0.35767  1.0000 0.578370698
C   C27       1.0  0.71196  0.46726  0.92770  1.0000 -0.0276675087
C   C28       1.0  0.53274  0.28804  0.42770  1.0000 -0.0276675087
C   C29       1.0  0.71456  0.39902  0.98610  1.0000 -0.1092156058
C   C30       1.0  0.60098  0.28544  0.48610  1.0000 -0.1092156058
C   C31       1.0  0.64039  0.46809  0.93020  1.0000 -0.118081901
C   C32       1.0  0.53191  0.35961  0.43020  1.0000 -0.118081901
C   C33       1.0  0.88491  0.84447  0.60100  1.0000 0.1004617067
C   C34       1.0  0.15553  0.11509  0.10100  1.0000 0.1004617067
C   C35       1.0  0.87351  0.90643  0.54320  1.0000 -0.2231365494
C   C36       1.0  0.09357  0.12649  0.04320  1.0000 -0.2231365494
C   C37       1.0  0.78756  0.88154  0.51600  1.0000 0.1655496435
C   C38       1.0  0.11846  0.21244  0.01600  1.0000 0.1655496435
C   C39       1.0  0.71729  0.79705  0.55070  1.0000 -0.1975993736
C   C40       1.0  0.20295  0.28271  0.05070  1.0000 -0.1975993736
C   C41       1.0  0.73518  0.73976  0.60740  1.0000 0.0901420351
C   C42       1.0  0.26024  0.26482  0.10740  1.0000 0.0901420351
C   C43       1.0  0.70842  0.99928  0.37660  1.0000 0.108057876
C   C44       1.0  0.00072  0.29158  0.87660  1.0000 0.108057876
C   C45       1.0  0.79172  0.04868  0.34340  1.0000 -0.0909569317
C   C46       1.0  0.95132  0.20828  0.84340  1.0000 -0.0909569317
C   C47       1.0  0.64096  0.01462  0.34550  1.0000 0.108057876
C   C48       1.0  0.98538  0.35904  0.84550  1.0000 0.108057876
C   C49       1.0  0.57704  0.98266  0.40720  1.0000 -0.1721970624
C   C50       1.0  0.01734  0.42296  0.90720  1.0000 -0.1721970624
C   C51       1.0  0.51516  0.00002  0.37400  1.0000 0.0808813853
C   C52       1.0  0.99998  0.48484  0.87400  1.0000 0.0808813853
C   C53       1.0  0.57518  0.07602  0.22500  1.0000 0.0901420351
C   C54       1.0  0.92398  0.42482  0.72500  1.0000 0.0901420351
C   C55       1.0  0.63903  0.06077  0.25230  1.0000 -0.1829205228
C   C56       1.0  0.93923  0.36097  0.75230  1.0000 -0.1829205228
C   C57       1.0  0.98266  0.26038  0.17860  1.0000 0.578370698
C   C58       1.0  0.73962  0.01734  0.67860  1.0000 0.578370698
C   C59       1.0  0.70332  0.97832  0.93130  1.0000 0.578370698
C   C60       1.0  0.02168  0.29668  0.43130  1.0000 0.578370698
C   C61       1.0  0.76993  0.04673  0.00310  1.0000 -0.0197878204
C   C62       1.0  0.95327  0.23007  0.50310  1.0000 -0.0197878204
C   C63       1.0  0.83931  0.04499  0.05950  1.0000 -0.1021621722
C   C64       1.0  0.95501  0.16069  0.55950  1.0000 -0.1021621722
C   C65       1.0  0.90626  0.11266  0.11740  1.0000 -0.1092156058
C   C66       1.0  0.88734  0.09374  0.61740  1.0000 -0.1092156058
C   C67       1.0  0.90612  0.18456  0.11935  1.0000 -0.0276675087
C   C68       1.0  0.81544  0.09388  0.61935  1.0000 -0.0276675087
C   C69       1.0  0.83568  0.18482  0.06620  1.0000 -0.118081901
C   C70       1.0  0.81518  0.16432  0.56620  1.0000 -0.118081901
C   C71       1.0  0.76744  0.11586  0.00920  1.0000 -0.118081901
C   C72       1.0  0.88414  0.23256  0.50920  1.0000 -0.118081901
C   C73       1.0  0.25715  0.49931  0.39380  1.0000 0.5862370806
C   C74       1.0  0.50069  0.74285  0.89380  1.0000 0.5862370806
C   C75       1.0  0.33215  0.57445  0.45446  1.0000 -0.0197878204
C   C76       1.0  0.42555  0.66785  0.95446  1.0000 -0.0197878204
C   C77       1.0  0.40186  0.57294  0.51130  1.0000 -0.1021621722
C   C78       1.0  0.42706  0.59814  0.01130  1.0000 -0.1021621722
C   C79       1.0  0.33204  0.64648  0.45560  1.0000 -0.1021621722
C   C80       1.0  0.35352  0.66796  0.95560  1.0000 -0.1021621722
C   C81       1.0  0.53465  0.78147  0.64233  1.0000 0.578370698
C   C82       1.0  0.21853  0.46535  0.14233  1.0000 0.578370698
C   C83       1.0  0.46726  0.71196  0.57230  1.0000 -0.0276675087
C   C84       1.0  0.28804  0.53274  0.07230  1.0000 -0.0276675087
C   C85       1.0  0.39902  0.71456  0.51390  1.0000 -0.1092156058
C   C86       1.0  0.28544  0.60098  0.01390  1.0000 -0.1092156058
C   C87       1.0  0.46809  0.64039  0.56980  1.0000 -0.118081901
C   C88       1.0  0.35961  0.53191  0.06980  1.0000 -0.118081901
C   C89       1.0  0.84447  0.88491  0.89900  1.0000 0.1004617067
C   C90       1.0  0.11509  0.15553  0.39900  1.0000 0.1004617067
C   C91       1.0  0.90643  0.87351  0.95680  1.0000 -0.225377254
C   C92       1.0  0.12649  0.09357  0.45680  1.0000 -0.2231365494
C   C93       1.0  0.88154  0.78756  0.98400  1.0000 0.1655496435
C   C94       1.0  0.21244  0.11846  0.48400  1.0000 0.1655496435
C   C95       1.0  0.79705  0.71729  0.94930  1.0000 -0.1975993736
C   C96       1.0  0.28271  0.20295  0.44930  1.0000 -0.1975993736
C   C97       1.0  0.73976  0.73518  0.89260  1.0000 0.0901420351
C   C98       1.0  0.26482  0.26024  0.39260  1.0000 0.0901420351
C   C99       1.0  0.99928  0.70842  0.12340  1.0000 0.108057876
C   C100      1.0  0.29158  0.00072  0.62340  1.0000 0.108057876
C   C101      1.0  0.04868  0.79172  0.15660  1.0000 -0.0909569317
C   C102      1.0  0.20828  0.95132  0.65660  1.0000 -0.0909569317
C   C103      1.0  0.01462  0.64096  0.15450  1.0000 0.108057876
C   C104      1.0  0.35904  0.98538  0.65450  1.0000 0.108057876
C   C105      1.0  0.98266  0.57704  0.09280  1.0000 -0.1721970624
C   C106      1.0  0.42296  0.01734  0.59280  1.0000 -0.1721970624
C   C107      1.0  0.00002  0.51516  0.12600  1.0000 0.0808813853
C   C108      1.0  0.48484  0.99998  0.62600  1.0000 0.0808813853
C   C109      1.0  0.07602  0.57518  0.27500  1.0000 0.0901420351
C   C110      1.0  0.42482  0.92398  0.77500  1.0000 0.0901420351
C   C111      1.0  0.06077  0.63903  0.24770  1.0000 -0.1829205228
C   C112      1.0  0.36097  0.93923  0.74770  1.0000 -0.1829205228
N   N1        1.0  0.81694  0.76134  0.63028  1.0000 -0.2082151992
N   N2        1.0  0.23866  0.18306  0.13028  1.0000 -0.2082151992
N   N3        1.0  0.51505  0.04743  0.28574  1.0000 -0.2082151992
N   N4        1.0  0.95257  0.48495  0.78574  1.0000 -0.2082151992
N   N5        1.0  0.77285  0.94191  0.45240  1.0000 0.2346195059
N   N6        1.0  0.05809  0.22715  0.95240  1.0000 0.2351147311
N   N7        1.0  0.69652  0.93210  0.44531  1.0000 -0.2645166738
N   N8        1.0  0.06790  0.30348  0.94531  1.0000 -0.2645166738
N   N9        1.0  0.83357  0.01267  0.39300  1.0000 -0.2231365494
N   N10       1.0  0.98733  0.16643  0.89300  1.0000 -0.2231365494
N   N11       1.0  0.76134  0.81694  0.86972  1.0000 -0.2082151992
N   N12       1.0  0.18306  0.23866  0.36972  1.0000 -0.2082151992
N   N13       1.0  0.04743  0.51505  0.21426  1.0000 -0.2082151992
N   N14       1.0  0.48495  0.95257  0.71426  1.0000 -0.2082151992
N   N15       1.0  0.94191  0.77285  0.04760  1.0000 0.2351147311
N   N16       1.0  0.22715  0.05809  0.54760  1.0000 0.2351147311
N   N17       1.0  0.93210  0.69652  0.05469  1.0000 -0.2645166738
N   N18       1.0  0.30348  0.06790  0.55469  1.0000 -0.2645166738
N   N19       1.0  0.01267  0.83357  0.10700  1.0000 -0.2231365494
N   N20       1.0  0.16643  0.98733  0.60700  1.0000 -0.2231365494
O   O1        1.0  0.32496  0.98072  0.32397  1.0000 -0.5382247441
O   O2        1.0  0.01928  0.67504  0.82397  1.0000 -0.5382247441
O   O3        1.0  0.25343  0.04223  0.27419  1.0000 -0.5499856992
O   O4        1.0  0.95777  0.74657  0.77419  1.0000 -0.5499856992
O   O5        1.0  0.92143  0.71367  0.57413  1.0000 -0.5382247441
O   O6        1.0  0.28633  0.07857  0.07413  1.0000 -0.5382247441
O   O7        1.0  0.98420  0.64378  0.62033  1.0000 -0.5299773214
O   O8        1.0  0.35622  0.01580  0.12033  1.0000 -0.5299773214
O   O9        1.0  0.43519  0.25951  0.10350  1.0000 -0.5299773214
O   O10       1.0  0.74049  0.56481  0.60350  1.0000 -0.5299773214
O   O11       1.0  0.50625  0.19771  0.15478  1.0000 -0.5499856992
O   O12       1.0  0.80229  0.49375  0.65478  1.0000 -0.5499856992
O   O13       1.0  0.77338  0.59214  0.80392  1.0000 -0.5382247441
O   O14       1.0  0.40786  0.22662  0.30392  1.0000 -0.5382247441
O   O15       1.0  0.84107  0.52645  0.85601  1.0000 -0.5499856992
O   O16       1.0  0.47355  0.15893  0.35601  1.0000 -0.5499856992
O   O17       1.0  0.98072  0.32496  0.17603  1.0000 -0.5382247441
O   O18       1.0  0.67504  0.01928  0.67603  1.0000 -0.5382247441
O   O19       1.0  0.04223  0.25343  0.22581  1.0000 -0.5499856992
O   O20       1.0  0.74657  0.95777  0.72581  1.0000 -0.5499856992
O   O21       1.0  0.71367  0.92143  0.92587  1.0000 -0.5382247441
O   O22       1.0  0.07857  0.28633  0.42587  1.0000 -0.5382247441
O   O23       1.0  0.64378  0.98420  0.87967  1.0000 -0.5299773214
O   O24       1.0  0.01580  0.35622  0.37967  1.0000 -0.5299773214
O   O25       1.0  0.25951  0.43519  0.39650  1.0000 -0.5299773214
O   O26       1.0  0.56481  0.74049  0.89650  1.0000 -0.5299773214
O   O27       1.0  0.19771  0.50625  0.34522  1.0000 -0.5499856992
O   O28       1.0  0.49375  0.80229  0.84522  1.0000 -0.5499856992
O   O29       1.0  0.59214  0.77338  0.69608  1.0000 -0.5382247441
O   O30       1.0  0.22662  0.40786  0.19608  1.0000 -0.5382247441
O   O31       1.0  0.52645  0.84107  0.64399  1.0000 -0.5499856992
O   O32       1.0  0.15893  0.47355  0.14399  1.0000 -0.5499856992
