# DDEC6 charges by PACMAN v1.1 (https://github.com/mtap-research/PACMAN-charge/)
data_2012[Zn][pts]3[ASR]2
_chemical_formula_sum              "Zn8 H16 C80 O64"
_cell_length_a       18.825
_cell_length_b       18.825
_cell_length_c       18.825
_cell_angle_alpha    129.051
_cell_angle_beta     129.051
_cell_angle_gamma    74.9285

_symmetry_space_group_name_H-M    "P 1"
_symmetry_Int_Tables_number       1

loop_
  _symmetry_equiv_pos_as_xyz
  'x, y, z'

loop_
  _atom_site_type_symbol
  _atom_site_label
  _atom_site_symmetry_multiplicity
  _atom_site_fract_x
  _atom_site_fract_y
  _atom_site_fract_z
  _atom_site_occupancy
  _atom_site_charge
Zn  Zn1       1.0  0.47251  0.47251  0.44502  1.0000 0.9766980369
Zn  Zn2       1.0  0.02749  0.02749  0.55498  1.0000 0.9766980369
Zn  Zn3       1.0  0.22251  0.27749  0.50000  1.0000 0.9766980369
Zn  Zn4       1.0  0.77749  0.72251  0.50000  1.0000 0.9766980369
Zn  Zn5       1.0  0.27749  0.77749  0.05498  1.0000 0.9766980369
Zn  Zn6       1.0  0.72251  0.22251  0.94502  1.0000 0.9766980369
Zn  Zn7       1.0  0.52749  0.97251  0.00000  1.0000 0.9766980369
Zn  Zn8       1.0  0.97251  0.52749  0.00000  1.0000 0.9742051152
H   H1        1.0  0.23730  0.37500  0.36230  1.0000 0.1344441487
H   H2        1.0  0.01270  0.87500  0.63770  1.0000 0.1344441487
H   H3        1.0  0.12500  0.26270  0.63770  1.0000 0.1344441487
H   H4        1.0  0.62500  0.48730  0.36230  1.0000 0.1344441487
H   H5        1.0  0.51270  0.87500  0.13770  1.0000 0.1344441487
H   H6        1.0  0.73730  0.37500  0.86230  1.0000 0.1344441487
H   H7        1.0  0.62500  0.98730  0.86230  1.0000 0.1344441487
H   H8        1.0  0.12500  0.76270  0.13770  1.0000 0.1344441487
H   H9        1.0  0.95510  0.37500  0.08010  1.0000 0.1473445513
H   H10       1.0  0.29490  0.87500  0.91990  1.0000 0.1473445513
H   H11       1.0  0.12500  0.54490  0.91990  1.0000 0.1473445513
H   H12       1.0  0.62500  0.20510  0.08010  1.0000 0.1473445513
H   H13       1.0  0.79490  0.87500  0.41990  1.0000 0.1473445513
H   H14       1.0  0.45510  0.37500  0.58010  1.0000 0.1473445513
H   H15       1.0  0.62500  0.70510  0.58010  1.0000 0.1473445513
H   H16       1.0  0.12500  0.04490  0.41990  1.0000 0.1473445513
C   C1        1.0  0.17990  0.37500  0.30490  1.0000 -0.0892758394
C   C2        1.0  0.07010  0.87500  0.69510  1.0000 -0.0892758394
C   C3        1.0  0.12500  0.32010  0.69510  1.0000 -0.0892758394
C   C4        1.0  0.62500  0.42990  0.30490  1.0000 -0.0892758394
C   C5        1.0  0.57010  0.87500  0.19510  1.0000 -0.0892758394
C   C6        1.0  0.67990  0.37500  0.80490  1.0000 -0.0892758394
C   C7        1.0  0.62500  0.92990  0.80490  1.0000 -0.0892758394
C   C8        1.0  0.12500  0.82010  0.19510  1.0000 -0.0892758394
C   C9        1.0  0.17835  0.42325  0.27090  1.0000 -0.0034581298
C   C10       1.0  0.15235  0.90745  0.72910  1.0000 -0.0055133596
C   C11       1.0  0.17325  0.40235  0.74490  1.0000 -0.0034581298
C   C12       1.0  0.65745  0.42835  0.25510  1.0000 -0.0034581298
C   C13       1.0  0.09765  0.32675  0.25510  1.0000 -0.0055133596
C   C14       1.0  0.07165  0.84255  0.74490  1.0000 -0.0034581298
C   C15       1.0  0.59255  0.34765  0.27090  1.0000 -0.0034581298
C   C16       1.0  0.07675  0.32165  0.72910  1.0000 -0.0034581298
C   C17       1.0  0.57165  0.82675  0.22910  1.0000 -0.0055133596
C   C18       1.0  0.59765  0.34255  0.77090  1.0000 -0.0034581298
C   C19       1.0  0.57675  0.84765  0.75510  1.0000 -0.0034581298
C   C20       1.0  0.09255  0.82165  0.24490  1.0000 -0.0034581298
C   C21       1.0  0.65235  0.92325  0.24490  1.0000 -0.0055133596
C   C22       1.0  0.67835  0.40745  0.75510  1.0000 -0.0034581298
C   C23       1.0  0.15745  0.90235  0.22910  1.0000 -0.0034581298
C   C24       1.0  0.67325  0.92835  0.77090  1.0000 -0.0034581298
C   C25       1.0  0.09197  0.42237  0.18360  1.0000 -0.0189203577
C   C26       1.0  0.23877  0.90837  0.81640  1.0000 -0.0189203577
C   C27       1.0  0.17237  0.48877  0.83040  1.0000 -0.0189203577
C   C28       1.0  0.65837  0.34197  0.16960  1.0000 -0.0189203577
C   C29       1.0  0.01123  0.32763  0.16960  1.0000 -0.0189203577
C   C30       1.0  0.15803  0.84163  0.83040  1.0000 -0.0189203577
C   C31       1.0  0.59163  0.26123  0.18360  1.0000 -0.0189203577
C   C32       1.0  0.07763  0.40803  0.81640  1.0000 -0.0189203577
C   C33       1.0  0.65803  0.82763  0.31640  1.0000 -0.0189203577
C   C34       1.0  0.51123  0.34163  0.68360  1.0000 -0.0189203577
C   C35       1.0  0.57763  0.76123  0.66960  1.0000 -0.0189203577
C   C36       1.0  0.09163  0.90803  0.33040  1.0000 -0.0189203577
C   C37       1.0  0.73877  0.92237  0.33040  1.0000 -0.0189203577
C   C38       1.0  0.59197  0.40837  0.66960  1.0000 -0.0189203577
C   C39       1.0  0.15837  0.98877  0.31640  1.0000 -0.0189203577
C   C40       1.0  0.67237  0.84197  0.68360  1.0000 -0.0189203577
C   C41       1.0  0.01250  0.37500  0.13750  1.0000 -0.0892758394
C   C42       1.0  0.23750  0.87500  0.86250  1.0000 -0.0892758394
C   C43       1.0  0.12500  0.48750  0.86250  1.0000 -0.0892758394
C   C44       1.0  0.62500  0.26250  0.13750  1.0000 -0.0892758394
C   C45       1.0  0.73750  0.87500  0.36250  1.0000 -0.0892758394
C   C46       1.0  0.51250  0.37500  0.63750  1.0000 -0.0892758394
C   C47       1.0  0.62500  0.76250  0.63750  1.0000 -0.0892758394
C   C48       1.0  0.12500  0.98750  0.36250  1.0000 -0.0892758394
C   C49       1.0  0.27254  0.48094  0.34140  1.0000 0.5545173672
C   C50       1.0  0.13954  0.93114  0.65860  1.0000 0.5557821693
C   C51       1.0  0.23094  0.38954  0.70840  1.0000 0.5557821693
C   C52       1.0  0.68114  0.52254  0.29160  1.0000 0.5557821693
C   C53       1.0  0.11046  0.26906  0.29160  1.0000 0.5557821693
C   C54       1.0  0.97746  0.81886  0.70840  1.0000 0.5545173672
C   C55       1.0  0.56886  0.36046  0.34140  1.0000 0.5545173672
C   C56       1.0  0.01906  0.22746  0.65860  1.0000 0.5545173672
C   C57       1.0  0.47746  0.76906  0.15860  1.0000 0.5557821693
C   C58       1.0  0.61046  0.31886  0.84140  1.0000 0.5557821693
C   C59       1.0  0.51906  0.86046  0.79160  1.0000 0.5557821693
C   C60       1.0  0.06886  0.72746  0.20840  1.0000 0.5545173672
C   C61       1.0  0.63954  0.98094  0.20840  1.0000 0.5557821693
C   C62       1.0  0.77254  0.43114  0.79160  1.0000 0.5557821693
C   C63       1.0  0.18114  0.88954  0.15860  1.0000 0.5557821693
C   C64       1.0  0.73094  0.02254  0.84140  1.0000 0.5557821693
C   C65       1.0  0.08342  0.46587  0.13453  1.0000 0.5557821693
C   C66       1.0  0.33134  0.94889  0.86547  1.0000 0.5557821693
C   C67       1.0  0.21587  0.58134  0.88245  1.0000 0.5545173672
C   C68       1.0  0.69889  0.33342  0.11755  1.0000 0.5557821693
C   C69       1.0  0.91866  0.28413  0.11755  1.0000 0.5557821693
C   C70       1.0  0.16658  0.80111  0.88245  1.0000 0.5557821693
C   C71       1.0  0.55111  0.16866  0.13453  1.0000 0.5545173672
C   C72       1.0  0.03413  0.41658  0.86547  1.0000 0.5557821693
C   C73       1.0  0.66658  0.78413  0.36547  1.0000 0.5545173672
C   C74       1.0  0.41866  0.30111  0.63453  1.0000 0.5545173672
C   C75       1.0  0.53413  0.66866  0.61755  1.0000 0.5557821693
C   C76       1.0  0.05111  0.91658  0.38245  1.0000 0.5557821693
C   C77       1.0  0.83134  0.96587  0.38245  1.0000 0.5557821693
C   C78       1.0  0.58342  0.44889  0.61755  1.0000 0.5557821693
C   C79       1.0  0.19889  0.08134  0.36547  1.0000 0.5545173672
C   C80       1.0  0.71587  0.83342  0.63453  1.0000 0.5545173672
O   O1        1.0  0.33493  0.43391  0.34138  1.0000 -0.4593898539
O   O2        1.0  0.09253  0.99355  0.65862  1.0000 -0.4593898539
O   O3        1.0  0.18391  0.34253  0.59898  1.0000 -0.4593898539
O   O4        1.0  0.74355  0.58493  0.40102  1.0000 -0.4593898539
O   O5        1.0  0.15747  0.31609  0.40102  1.0000 -0.4593898539
O   O6        1.0  0.91507  0.75645  0.59898  1.0000 -0.4593898539
O   O7        1.0  0.50645  0.40747  0.34138  1.0000 -0.4593898539
O   O8        1.0  0.06609  0.16507  0.65862  1.0000 -0.4593898539
O   O9        1.0  0.41507  0.81609  0.15862  1.0000 -0.4593898539
O   O10       1.0  0.65747  0.25645  0.84138  1.0000 -0.4593898539
O   O11       1.0  0.56609  0.90747  0.90102  1.0000 -0.4593898539
O   O12       1.0  0.00645  0.66507  0.09898  1.0000 -0.4593898539
O   O13       1.0  0.59253  0.93391  0.09898  1.0000 -0.4593898539
O   O14       1.0  0.83493  0.49355  0.90102  1.0000 -0.4593898539
O   O15       1.0  0.24355  0.84253  0.15862  1.0000 -0.4593898539
O   O16       1.0  0.68391  0.08493  0.84138  1.0000 -0.4593898539
O   O17       1.0  0.28356  0.56628  0.39574  1.0000 -0.3420626863
O   O18       1.0  0.17054  0.88782  0.60426  1.0000 -0.3420626863
O   O19       1.0  0.31628  0.42054  0.78272  1.0000 -0.3420626863
O   O20       1.0  0.63782  0.53356  0.21728  1.0000 -0.3420626863
O   O21       1.0  0.07946  0.18372  0.21728  1.0000 -0.3420626863
O   O22       1.0  0.96644  0.86218  0.78272  1.0000 -0.3420626863
O   O23       1.0  0.61218  0.32946  0.39574  1.0000 -0.3420626863
O   O24       1.0  0.93372  0.21644  0.60426  1.0000 -0.3420626863
O   O25       1.0  0.46644  0.68372  0.10426  1.0000 -0.3420626863
O   O26       1.0  0.57946  0.36218  0.89574  1.0000 -0.3420626863
O   O27       1.0  0.43372  0.82946  0.71728  1.0000 -0.3420626863
O   O28       1.0  0.11218  0.71644  0.28272  1.0000 -0.3420626863
O   O29       1.0  0.67054  0.06628  0.28272  1.0000 -0.3420626863
O   O30       1.0  0.78356  0.38782  0.71728  1.0000 -0.3420626863
O   O31       1.0  0.13782  0.92054  0.10426  1.0000 -0.3420626863
O   O32       1.0  0.81628  0.03356  0.89574  1.0000 -0.3420626863
O   O33       1.0  0.00109  0.47648  0.07539  1.0000 -0.4593898539
O   O34       1.0  0.40109  0.92570  0.92461  1.0000 -0.4593898539
O   O35       1.0  0.22648  0.65109  0.97539  1.0000 -0.4593898539
O   O36       1.0  0.67570  0.25109  0.02461  1.0000 -0.4593898539
O   O37       1.0  0.84891  0.27352  0.02461  1.0000 -0.4593898539
O   O38       1.0  0.24891  0.82430  0.97539  1.0000 -0.4593898539
O   O39       1.0  0.57430  0.09891  0.07539  1.0000 -0.4593898539
O   O40       1.0  0.02352  0.49891  0.92461  1.0000 -0.4593898539
O   O41       1.0  0.74891  0.77352  0.42461  1.0000 -0.4593898539
O   O42       1.0  0.34891  0.32430  0.57539  1.0000 -0.4593898539
O   O43       1.0  0.52352  0.59891  0.52461  1.0000 -0.4593898539
O   O44       1.0  0.07430  0.99891  0.47539  1.0000 -0.4593898539
O   O45       1.0  0.90109  0.97648  0.47539  1.0000 -0.4593898539
O   O46       1.0  0.50109  0.42570  0.52461  1.0000 -0.4593898539
O   O47       1.0  0.17570  0.15109  0.42461  1.0000 -0.4593898539
O   O48       1.0  0.72648  0.75109  0.57539  1.0000 -0.4593898539
O   O49       1.0  0.15081  0.48728  0.15041  1.0000 -0.3644358354
O   O50       1.0  0.33687  0.00040  0.84959  1.0000 -0.3644358354
O   O51       1.0  0.23728  0.58687  0.83647  1.0000 -0.3644358354
O   O52       1.0  0.75040  0.40081  0.16353  1.0000 -0.3691078039
O   O53       1.0  0.91313  0.26272  0.16353  1.0000 -0.3644358354
O   O54       1.0  0.09919  0.74960  0.83647  1.0000 -0.3691078039
O   O55       1.0  0.49960  0.16313  0.15041  1.0000 -0.3691078039
O   O56       1.0  0.01272  0.34919  0.84959  1.0000 -0.3644358354
O   O57       1.0  0.59919  0.76272  0.34959  1.0000 -0.3691078039
O   O58       1.0  0.41313  0.24960  0.65041  1.0000 -0.3691078039
O   O59       1.0  0.51272  0.66313  0.66353  1.0000 -0.3644358354
O   O60       1.0  0.99960  0.84919  0.33647  1.0000 -0.3691078039
O   O61       1.0  0.83687  0.98728  0.33647  1.0000 -0.3691078039
O   O62       1.0  0.65081  0.50040  0.66353  1.0000 -0.3644358354
O   O63       1.0  0.25040  0.08687  0.34959  1.0000 -0.3644358354
O   O64       1.0  0.73728  0.90081  0.65041  1.0000 -0.3691078039
