# DDEC6 charges by PACMAN v1.1 (https://github.com/mtap-research/PACMAN-charge/)
data_2012[Zn][acs]3[ASR]2
_chemical_formula_sum              "Zn2 H6 C6 O12"
_cell_length_a       7.272
_cell_length_b       7.272
_cell_length_c       8.1678
_cell_angle_alpha    90
_cell_angle_beta     90
_cell_angle_gamma    120

_symmetry_space_group_name_H-M    "P 1"
_symmetry_Int_Tables_number       1

loop_
  _symmetry_equiv_pos_as_xyz
  'x, y, z'

loop_
  _atom_site_type_symbol
  _atom_site_label
  _atom_site_symmetry_multiplicity
  _atom_site_fract_x
  _atom_site_fract_y
  _atom_site_fract_z
  _atom_site_occupancy
  _atom_site_charge
Zn  Zn1       1.0  0.33333  0.66667  0.25000  1.0000 0.9473120639
Zn  Zn2       1.0  0.66667  0.33333  0.75000  1.0000 0.9473120639
H   H1        1.0  0.00000  0.43463  0.50000  1.0000 0.1102412561
H   H2        1.0  0.56537  0.00000  0.00000  1.0000 0.1102412561
H   H3        1.0  0.56537  0.56537  0.50000  1.0000 0.1102412561
H   H4        1.0  0.00000  0.56537  0.00000  1.0000 0.1102412561
H   H5        1.0  0.43463  0.00000  0.50000  1.0000 0.1102412561
H   H6        1.0  0.43463  0.43463  0.00000  1.0000 0.1102412561
C   C1        1.0  0.00000  0.56323  0.50000  1.0000 0.4958898732
C   C2        1.0  0.43677  0.00000  0.00000  1.0000 0.4948487649
C   C3        1.0  0.43677  0.43677  0.50000  1.0000 0.4958898732
C   C4        1.0  0.00000  0.43677  0.00000  1.0000 0.4958898732
C   C5        1.0  0.56323  0.00000  0.50000  1.0000 0.4958898732
C   C6        1.0  0.56323  0.56323  0.00000  1.0000 0.4958898732
O   O1        1.0  0.11027  0.69527  0.39420  1.0000 -0.4608641496
O   O2        1.0  0.41500  0.11027  0.89420  1.0000 -0.4608641496
O   O3        1.0  0.30473  0.41500  0.39420  1.0000 -0.4608641496
O   O4        1.0  0.88973  0.30473  0.89420  1.0000 -0.4608641496
O   O5        1.0  0.58500  0.88973  0.39420  1.0000 -0.4608641496
O   O6        1.0  0.69527  0.58500  0.89420  1.0000 -0.4608641496
O   O7        1.0  0.41500  0.30473  0.60580  1.0000 -0.4608641496
O   O8        1.0  0.88973  0.58500  0.60580  1.0000 -0.4608641496
O   O9        1.0  0.69527  0.11027  0.60580  1.0000 -0.4608641496
O   O10       1.0  0.30473  0.88973  0.10580  1.0000 -0.4608641496
O   O11       1.0  0.58500  0.69527  0.10580  1.0000 -0.4608641496
O   O12       1.0  0.11027  0.41500  0.10580  1.0000 -0.4608641496
