# DDEC6 charges by PACMAN v1.1 (https://github.com/mtap-research/PACMAN-charge/)
data_2012[Fe][nan]3[ASR]2
_chemical_formula_sum              "Fe6 H12 C24 O30"
_cell_length_a       15.1576
_cell_length_b       15.1576
_cell_length_c       15.1576
_cell_angle_alpha    117.77
_cell_angle_beta     117.77
_cell_angle_gamma    117.77

_symmetry_space_group_name_H-M    "P 1"
_symmetry_Int_Tables_number       1

loop_
  _symmetry_equiv_pos_as_xyz
  'x, y, z'

loop_
  _atom_site_type_symbol
  _atom_site_label
  _atom_site_symmetry_multiplicity
  _atom_site_fract_x
  _atom_site_fract_y
  _atom_site_fract_z
  _atom_site_occupancy
  _atom_site_charge
Fe  Fe1       1.0  0.11190  0.52390  0.79590  1.0000 0.9977274016
Fe  Fe2       1.0  0.52390  0.79590  0.11190  1.0000 0.9977274016
Fe  Fe3       1.0  0.79590  0.11190  0.52390  1.0000 0.9977274016
Fe  Fe4       1.0  0.88810  0.47610  0.20410  1.0000 0.9977274016
Fe  Fe5       1.0  0.47610  0.20410  0.88810  1.0000 0.9977274016
Fe  Fe6       1.0  0.20410  0.88810  0.47610  1.0000 0.9977274016
H   H1        1.0  0.35910  0.81720  0.37890  1.0000 0.1578127742
H   H2        1.0  0.81720  0.37890  0.35910  1.0000 0.1578127742
H   H3        1.0  0.37890  0.35910  0.81720  1.0000 0.1578127742
H   H4        1.0  0.64090  0.18280  0.62110  1.0000 0.1578127742
H   H5        1.0  0.18280  0.62110  0.64090  1.0000 0.1578127742
H   H6        1.0  0.62110  0.64090  0.18280  1.0000 0.1578127742
H   H7        1.0  0.14640  0.73020  0.92140  1.0000 0.3280661479
H   H8        1.0  0.73020  0.92140  0.14640  1.0000 0.3280661479
H   H9        1.0  0.92140  0.14640  0.73020  1.0000 0.3280661479
H   H10       1.0  0.85360  0.26980  0.07860  1.0000 0.3280661479
H   H11       1.0  0.26980  0.07860  0.85360  1.0000 0.3280661479
H   H12       1.0  0.07860  0.85360  0.26980  1.0000 0.3280661479
C   C1        1.0  0.32810  0.71620  0.15600  1.0000 0.6143138185
C   C2        1.0  0.71620  0.15600  0.32810  1.0000 0.6143138185
C   C3        1.0  0.15600  0.32810  0.71620  1.0000 0.6143138185
C   C4        1.0  0.67190  0.28380  0.84400  1.0000 0.6143138185
C   C5        1.0  0.28380  0.84400  0.67190  1.0000 0.6143138185
C   C6        1.0  0.84400  0.67190  0.28380  1.0000 0.6143138185
C   C7        1.0  0.16280  0.61760  0.08330  1.0000 -0.1486626491
C   C8        1.0  0.61760  0.08330  0.16280  1.0000 -0.1486626491
C   C9        1.0  0.08330  0.16280  0.61760  1.0000 -0.1486626491
C   C10       1.0  0.83720  0.38240  0.91670  1.0000 -0.1486626491
C   C11       1.0  0.38240  0.91670  0.83720  1.0000 -0.1486626491
C   C12       1.0  0.91670  0.83720  0.38240  1.0000 -0.1486626491
C   C13       1.0  0.97190  0.43750  0.86600  1.0000 0.3729548231
C   C14       1.0  0.43750  0.86600  0.97190  1.0000 0.3729548231
C   C15       1.0  0.86600  0.97190  0.43750  1.0000 0.3729548231
C   C16       1.0  0.02810  0.56250  0.13400  1.0000 0.3729548231
C   C17       1.0  0.56250  0.13400  0.02810  1.0000 0.3729548231
C   C18       1.0  0.13400  0.02810  0.56250  1.0000 0.3729548231
C   C19       1.0  0.19720  0.67520  0.21150  1.0000 -0.125278838
C   C20       1.0  0.67520  0.21150  0.19720  1.0000 -0.1247064695
C   C21       1.0  0.21150  0.19720  0.67520  1.0000 -0.1247064695
C   C22       1.0  0.80280  0.32480  0.78850  1.0000 -0.1247064695
C   C23       1.0  0.32480  0.78850  0.80280  1.0000 -0.1247064695
C   C24       1.0  0.78850  0.80280  0.32480  1.0000 -0.1247064695
O   O1        1.0  0.31920  0.67350  0.05280  1.0000 -0.5863927926
O   O2        1.0  0.67350  0.05280  0.31920  1.0000 -0.5863927926
O   O3        1.0  0.05280  0.31920  0.67350  1.0000 -0.5863927926
O   O4        1.0  0.68080  0.32650  0.94720  1.0000 -0.5863927926
O   O5        1.0  0.32650  0.94720  0.68080  1.0000 -0.5863927926
O   O6        1.0  0.94720  0.68080  0.32650  1.0000 -0.5863927926
O   O7        1.0  0.52470  0.90510  0.37620  1.0000 -0.5631233081
O   O8        1.0  0.90510  0.37620  0.52470  1.0000 -0.5631233081
O   O9        1.0  0.37620  0.52470  0.90510  1.0000 -0.5631233081
O   O10       1.0  0.47530  0.09490  0.62380  1.0000 -0.5631233081
O   O11       1.0  0.09490  0.62380  0.47530  1.0000 -0.5631233081
O   O12       1.0  0.62380  0.47530  0.09490  1.0000 -0.5631233081
O   O13       1.0  0.93100  0.36140  0.73820  1.0000 -0.4996764089
O   O14       1.0  0.36140  0.73820  0.93100  1.0000 -0.4996764089
O   O15       1.0  0.73820  0.93100  0.36140  1.0000 -0.4996764089
O   O16       1.0  0.06900  0.63860  0.26180  1.0000 -0.4996764089
O   O17       1.0  0.63860  0.26180  0.06900  1.0000 -0.4996764089
O   O18       1.0  0.26180  0.06900  0.63860  1.0000 -0.4996764089
O   O19       1.0  0.20700  0.75200  0.89300  1.0000 -0.3170124118
O   O20       1.0  0.75200  0.89300  0.20700  1.0000 -0.3170124118
O   O21       1.0  0.89300  0.20700  0.75200  1.0000 -0.3170124118
O   O22       1.0  0.79300  0.24800  0.10700  1.0000 -0.3170124118
O   O23       1.0  0.24800  0.10700  0.79300  1.0000 -0.3170124118
O   O24       1.0  0.10700  0.79300  0.24800  1.0000 -0.3170124118
O   O25       1.0  0.98100  0.58300  0.73000  1.0000 -0.2312055304
O   O26       1.0  0.58300  0.73000  0.98100  1.0000 -0.2312055304
O   O27       1.0  0.73000  0.98100  0.58300  1.0000 -0.2312055304
O   O28       1.0  0.01900  0.41700  0.27000  1.0000 -0.2312055304
O   O29       1.0  0.41700  0.27000  0.01900  1.0000 -0.2312055304
O   O30       1.0  0.27000  0.01900  0.41700  1.0000 -0.2312055304
