# DDEC6 charges by PACMAN v1.1 (https://github.com/mtap-research/PACMAN-charge/)
data_2012[Mn][pcu]3[ASR]2
_chemical_formula_sum              "Mn6 H80 C132 N8 O30"
_cell_length_a       11.2962
_cell_length_b       11.2962
_cell_length_c       25.8544
_cell_angle_alpha    89.8251
_cell_angle_beta     90.1749
_cell_angle_gamma    84.5737

_symmetry_space_group_name_H-M    "P 1"
_symmetry_Int_Tables_number       1

loop_
  _symmetry_equiv_pos_as_xyz
  'x, y, z'

loop_
  _atom_site_type_symbol
  _atom_site_label
  _atom_site_symmetry_multiplicity
  _atom_site_fract_x
  _atom_site_fract_y
  _atom_site_fract_z
  _atom_site_occupancy
  _atom_site_charge
Mn  Mn1       1.0  0.29608  0.34664  0.99899  1.0000 0.8517171974
Mn  Mn2       1.0  0.34664  0.29608  0.50101  1.0000 0.8517171974
Mn  Mn3       1.0  0.70392  0.65336  0.00101  1.0000 0.8517171974
Mn  Mn4       1.0  0.65336  0.70392  0.49899  1.0000 0.8517171974
Mn  Mn5       1.0  0.50000  0.00000  0.50000  1.0000 1.0750104423
Mn  Mn6       1.0  0.00000  0.50000  0.00000  1.0000 1.0750104423
H   H1        1.0  0.11000  0.71060  0.12360  1.0000 0.1204251047
H   H2        1.0  0.71060  0.11000  0.37640  1.0000 0.1204251047
H   H3        1.0  0.89000  0.28940  0.87640  1.0000 0.1204251047
H   H4        1.0  0.28940  0.89000  0.62360  1.0000 0.1204251047
H   H5        1.0  0.16300  0.84720  0.18460  1.0000 0.1366668447
H   H6        1.0  0.84720  0.16300  0.31540  1.0000 0.1366668447
H   H7        1.0  0.83700  0.15280  0.81540  1.0000 0.1366668447
H   H8        1.0  0.15280  0.83700  0.68460  1.0000 0.1366668447
H   H9        1.0  0.50560  0.73480  0.16470  1.0000 0.1366668447
H   H10       1.0  0.73480  0.50560  0.33530  1.0000 0.1366668447
H   H11       1.0  0.49440  0.26520  0.83530  1.0000 0.1366668447
H   H12       1.0  0.26520  0.49440  0.66470  1.0000 0.1366668447
H   H13       1.0  0.45330  0.59450  0.10540  1.0000 0.1204251047
H   H14       1.0  0.59450  0.45330  0.39460  1.0000 0.1204251047
H   H15       1.0  0.54670  0.40550  0.89460  1.0000 0.1204251047
H   H16       1.0  0.40550  0.54670  0.60540  1.0000 0.1204251047
H   H17       1.0  0.38240  0.68680  0.26280  1.0000 0.1289865296
H   H18       1.0  0.68680  0.38240  0.23720  1.0000 0.1289865296
H   H19       1.0  0.61760  0.31320  0.73720  1.0000 0.1289865296
H   H20       1.0  0.31320  0.61760  0.76280  1.0000 0.1289865296
H   H21       1.0  0.45320  0.64760  0.34570  1.0000 0.1204251047
H   H22       1.0  0.64760  0.45320  0.15430  1.0000 0.1204251047
H   H23       1.0  0.54680  0.35240  0.65430  1.0000 0.1204251047
H   H24       1.0  0.35240  0.54680  0.84570  1.0000 0.1204251047
H   H25       1.0  0.52270  0.98670  0.36080  1.0000 0.1289865296
H   H26       1.0  0.98670  0.52270  0.13920  1.0000 0.1289865296
H   H27       1.0  0.47730  0.01330  0.63920  1.0000 0.1289865296
H   H28       1.0  0.01330  0.47730  0.86080  1.0000 0.1289865296
H   H29       1.0  0.45390  0.02590  0.27730  1.0000 0.1456600438
H   H30       1.0  0.02590  0.45390  0.22270  1.0000 0.1456600438
H   H31       1.0  0.54610  0.97410  0.72270  1.0000 0.1456600438
H   H32       1.0  0.97410  0.54610  0.77730  1.0000 0.1456600438
H   H33       1.0  0.19240  0.23560  0.36710  1.0000 0.1139004211
H   H34       1.0  0.23560  0.19240  0.13290  1.0000 0.1139004211
H   H35       1.0  0.80760  0.76440  0.63290  1.0000 0.1139004211
H   H36       1.0  0.76440  0.80760  0.86710  1.0000 0.1139004211
H   H37       1.0  0.09010  0.21770  0.29050  1.0000 0.1366668447
H   H38       1.0  0.21770  0.09010  0.20950  1.0000 0.1366668447
H   H39       1.0  0.90990  0.78230  0.70950  1.0000 0.1366668447
H   H40       1.0  0.78230  0.90990  0.79050  1.0000 0.1366668447
H   H41       1.0  0.12480  0.86260  0.30750  1.0000 0.1289865296
H   H42       1.0  0.86260  0.12480  0.19250  1.0000 0.1289865296
H   H43       1.0  0.87520  0.13740  0.69250  1.0000 0.1289865296
H   H44       1.0  0.13740  0.87520  0.80750  1.0000 0.1289865296
H   H45       1.0  0.22500  0.88280  0.38500  1.0000 0.1139004211
H   H46       1.0  0.88280  0.22500  0.11500  1.0000 0.1139004211
H   H47       1.0  0.77500  0.11720  0.61500  1.0000 0.1139004211
H   H48       1.0  0.11720  0.77500  0.88500  1.0000 0.1139004211
H   H49       1.0  0.55900  0.38260  0.04670  1.0000 0.1139004211
H   H50       1.0  0.38260  0.55900  0.45330  1.0000 0.1139004211
H   H51       1.0  0.44100  0.61740  0.95330  1.0000 0.1139004211
H   H52       1.0  0.61740  0.44100  0.54670  1.0000 0.1139004211
H   H53       1.0  0.75430  0.30150  0.04190  1.0000 0.1366668447
H   H54       1.0  0.30150  0.75430  0.45810  1.0000 0.1366668447
H   H55       1.0  0.24570  0.69850  0.95810  1.0000 0.1366668447
H   H56       1.0  0.69850  0.24570  0.54190  1.0000 0.1366668447
H   H57       1.0  0.80000  0.13420  0.99250  1.0000 0.1289865296
H   H58       1.0  0.13420  0.80000  0.50750  1.0000 0.1289865296
H   H59       1.0  0.20000  0.86580  0.00750  1.0000 0.1289865296
H   H60       1.0  0.86580  0.20000  0.49250  1.0000 0.1289865296
H   H61       1.0  0.72720  0.97140  0.93530  1.0000 0.1289865296
H   H62       1.0  0.97140  0.72720  0.56470  1.0000 0.1289865296
H   H63       1.0  0.27280  0.02860  0.06470  1.0000 0.1289865296
H   H64       1.0  0.02860  0.27280  0.43530  1.0000 0.1289865296
H   H65       1.0  0.57870  0.89970  0.89090  1.0000 0.1289865296
H   H66       1.0  0.89970  0.57870  0.60910  1.0000 0.1289865296
H   H67       1.0  0.42130  0.10030  0.10910  1.0000 0.1289865296
H   H68       1.0  0.10030  0.42130  0.39090  1.0000 0.1289865296
H   H69       1.0  0.35960  0.91680  0.86650  1.0000 0.1289865296
H   H70       1.0  0.91680  0.35960  0.63350  1.0000 0.1289865296
H   H71       1.0  0.64040  0.08320  0.13350  1.0000 0.1289865296
H   H72       1.0  0.08320  0.64040  0.36650  1.0000 0.1289865296
H   H73       1.0  0.17320  0.01280  0.87590  1.0000 0.1289865296
H   H74       1.0  0.01280  0.17320  0.62410  1.0000 0.1289865296
H   H75       1.0  0.82680  0.98720  0.12410  1.0000 0.1289865296
H   H76       1.0  0.98720  0.82680  0.37590  1.0000 0.1289865296
H   H77       1.0  0.14540  0.17880  0.92870  1.0000 0.1204251047
H   H78       1.0  0.17880  0.14540  0.57130  1.0000 0.1204251047
H   H79       1.0  0.85460  0.82120  0.07130  1.0000 0.1204251047
H   H80       1.0  0.82120  0.85460  0.42870  1.0000 0.1204251047
C   C1        1.0  0.24208  0.55064  0.06855  1.0000 0.5705452348
C   C2        1.0  0.55064  0.24208  0.43145  1.0000 0.5705452348
C   C3        1.0  0.75792  0.44936  0.93145  1.0000 0.5705452348
C   C4        1.0  0.44936  0.75792  0.56855  1.0000 0.5705452348
C   C5        1.0  0.27569  0.63841  0.10843  1.0000 -0.0404570242
C   C6        1.0  0.63841  0.27569  0.39157  1.0000 -0.0404570242
C   C7        1.0  0.72431  0.36159  0.89157  1.0000 -0.0404570242
C   C8        1.0  0.36159  0.72431  0.60843  1.0000 -0.0404570242
C   C9        1.0  0.18965  0.71441  0.13200  1.0000 -0.0975854648
C   C10       1.0  0.71441  0.18965  0.36800  1.0000 -0.0975854648
C   C11       1.0  0.81035  0.28559  0.86800  1.0000 -0.0975854648
C   C12       1.0  0.28559  0.81035  0.63200  1.0000 -0.0975854648
C   C13       1.0  0.22119  0.79693  0.16839  1.0000 -0.2100697634
C   C14       1.0  0.79693  0.22119  0.33161  1.0000 -0.2100697634
C   C15       1.0  0.77881  0.20307  0.83161  1.0000 -0.2100697634
C   C16       1.0  0.20307  0.77881  0.66839  1.0000 -0.2100697634
C   C17       1.0  0.33864  0.80300  0.17988  1.0000 0.2286966081
C   C18       1.0  0.80300  0.33864  0.32012  1.0000 0.2286966081
C   C19       1.0  0.66136  0.19700  0.82012  1.0000 0.2286966081
C   C20       1.0  0.19700  0.66136  0.67988  1.0000 0.2286966081
C   C21       1.0  0.42616  0.72910  0.15667  1.0000 -0.2100697634
C   C22       1.0  0.72910  0.42616  0.34333  1.0000 -0.2100697634
C   C23       1.0  0.57384  0.27090  0.84333  1.0000 -0.2100697634
C   C24       1.0  0.27090  0.57384  0.65667  1.0000 -0.2100697634
C   C25       1.0  0.39470  0.64560  0.12094  1.0000 -0.0811705579
C   C26       1.0  0.64560  0.39470  0.37906  1.0000 -0.0811705579
C   C27       1.0  0.60530  0.35440  0.87906  1.0000 -0.0811705579
C   C28       1.0  0.35440  0.60530  0.62094  1.0000 -0.0811705579
C   C29       1.0  0.41234  0.85986  0.26226  1.0000 0.2505963976
C   C30       1.0  0.85986  0.41234  0.23774  1.0000 0.2505963976
C   C31       1.0  0.58766  0.14014  0.73774  1.0000 0.2505963976
C   C32       1.0  0.14014  0.58766  0.76226  1.0000 0.2505963976
C   C33       1.0  0.41118  0.74680  0.28234  1.0000 -0.2283630783
C   C34       1.0  0.74680  0.41118  0.21766  1.0000 -0.2283630783
C   C35       1.0  0.58882  0.25320  0.71766  1.0000 -0.2283630783
C   C36       1.0  0.25320  0.58882  0.78234  1.0000 -0.2283630783
C   C37       1.0  0.45337  0.72371  0.33202  1.0000 -0.0899346014
C   C38       1.0  0.72371  0.45337  0.16798  1.0000 -0.0899346014
C   C39       1.0  0.54663  0.27629  0.66798  1.0000 -0.0899346014
C   C40       1.0  0.27629  0.54663  0.83202  1.0000 -0.0899346014
C   C41       1.0  0.49590  0.81284  0.36158  1.0000 -0.0542852365
C   C42       1.0  0.81284  0.49590  0.13842  1.0000 -0.0542852365
C   C43       1.0  0.50410  0.18716  0.63842  1.0000 -0.0542852365
C   C44       1.0  0.18716  0.50410  0.86158  1.0000 -0.0542852365
C   C45       1.0  0.49522  0.92612  0.34105  1.0000 -0.0743458783
C   C46       1.0  0.92612  0.49522  0.15895  1.0000 -0.0743458783
C   C47       1.0  0.50478  0.07388  0.65895  1.0000 -0.0743458783
C   C48       1.0  0.07388  0.50478  0.84105  1.0000 -0.0743458783
C   C49       1.0  0.45375  0.94977  0.29117  1.0000 -0.2100697634
C   C50       1.0  0.94977  0.45375  0.20883  1.0000 -0.2100697634
C   C51       1.0  0.54625  0.05023  0.70883  1.0000 -0.2100697634
C   C52       1.0  0.05023  0.54625  0.79117  1.0000 -0.2100697634
C   C53       1.0  0.54264  0.78316  0.41441  1.0000 0.5605221476
C   C54       1.0  0.78316  0.54264  0.08559  1.0000 0.5605221476
C   C55       1.0  0.45736  0.21684  0.58559  1.0000 0.5605221476
C   C56       1.0  0.21684  0.45736  0.91441  1.0000 0.5605221476
C   C57       1.0  0.27975  0.07865  0.43505  1.0000 0.5765845711
C   C58       1.0  0.07865  0.27975  0.06495  1.0000 0.5765845711
C   C59       1.0  0.72025  0.92135  0.56495  1.0000 0.5765845711
C   C60       1.0  0.92135  0.72025  0.93505  1.0000 0.5765845711
C   C61       1.0  0.21640  0.06092  0.38453  1.0000 -0.0341836241
C   C62       1.0  0.06092  0.21640  0.11547  1.0000 -0.0341836241
C   C63       1.0  0.78360  0.93908  0.61547  1.0000 -0.0341836241
C   C64       1.0  0.93908  0.78360  0.88453  1.0000 -0.0341836241
C   C65       1.0  0.17717  0.16061  0.35551  1.0000 -0.0899346014
C   C66       1.0  0.16061  0.17717  0.14449  1.0000 -0.0899346014
C   C67       1.0  0.82283  0.83939  0.64449  1.0000 -0.0899346014
C   C68       1.0  0.83939  0.82283  0.85551  1.0000 -0.0899346014
C   C69       1.0  0.11602  0.15044  0.30976  1.0000 -0.2100697634
C   C70       1.0  0.15044  0.11602  0.19024  1.0000 -0.2100697634
C   C71       1.0  0.88398  0.84956  0.69024  1.0000 -0.2100697634
C   C72       1.0  0.84956  0.88398  0.80976  1.0000 -0.2100697634
C   C73       1.0  0.09403  0.03887  0.29307  1.0000 0.2505963976
C   C74       1.0  0.03887  0.09403  0.20693  1.0000 0.2505963976
C   C75       1.0  0.90597  0.96113  0.70693  1.0000 0.2505963976
C   C76       1.0  0.96113  0.90597  0.79307  1.0000 0.2505963976
C   C77       1.0  0.13662  0.93764  0.32007  1.0000 -0.2100697634
C   C78       1.0  0.93764  0.13662  0.17993  1.0000 -0.2100697634
C   C79       1.0  0.86338  0.06236  0.67993  1.0000 -0.2100697634
C   C80       1.0  0.06236  0.86338  0.82007  1.0000 -0.2100697634
C   C81       1.0  0.19714  0.95018  0.36619  1.0000 -0.0975854648
C   C82       1.0  0.95018  0.19714  0.13381  1.0000 -0.0975854648
C   C83       1.0  0.80286  0.04982  0.63381  1.0000 -0.0975854648
C   C84       1.0  0.04982  0.80286  0.86619  1.0000 -0.0975854648
C   C85       1.0  0.57673  0.31473  0.02692  1.0000 0.102058177
C   C86       1.0  0.31473  0.57673  0.47308  1.0000 0.102058177
C   C87       1.0  0.42327  0.68527  0.97308  1.0000 0.102058177
C   C88       1.0  0.68527  0.42327  0.52692  1.0000 0.102058177
C   C89       1.0  0.69493  0.26659  0.02420  1.0000 -0.1383027747
C   C90       1.0  0.26659  0.69493  0.47580  1.0000 -0.1383027747
C   C91       1.0  0.30507  0.73341  0.97580  1.0000 -0.1383027747
C   C92       1.0  0.73341  0.30507  0.52420  1.0000 -0.1383027747
C   C93       1.0  0.72166  0.16714  0.99493  1.0000 -0.0975854648
C   C94       1.0  0.16714  0.72166  0.50507  1.0000 -0.0975854648
C   C95       1.0  0.27834  0.83286  0.00507  1.0000 -0.0975854648
C   C96       1.0  0.83286  0.27834  0.49493  1.0000 -0.0975854648
C   C97       1.0  0.63146  0.11444  0.96850  1.0000 0.0423772662
C   C98       1.0  0.11444  0.63146  0.53150  1.0000 0.0423772662
C   C99       1.0  0.36854  0.88556  0.03150  1.0000 0.0423772662
C   C100      1.0  0.88556  0.36854  0.46850  1.0000 0.0423772662
C   C101      1.0  0.51487  0.17039  0.97322  1.0000 0.1139004211
C   C102      1.0  0.17039  0.51487  0.52678  1.0000 0.1139004211
C   C103      1.0  0.48513  0.82961  0.02678  1.0000 0.1139004211
C   C104      1.0  0.82961  0.48513  0.47322  1.0000 0.1139004211
C   C105      1.0  0.42034  0.12400  0.94548  1.0000 0.1139004211
C   C106      1.0  0.12400  0.42034  0.55452  1.0000 0.1139004211
C   C107      1.0  0.57966  0.87600  0.05452  1.0000 0.1139004211
C   C108      1.0  0.87600  0.57966  0.44548  1.0000 0.1139004211
C   C109      1.0  0.44324  0.02244  0.91370  1.0000 0.045785823
C   C110      1.0  0.02244  0.44324  0.58630  1.0000 0.045785823
C   C111      1.0  0.55676  0.97756  0.08630  1.0000 0.045785823
C   C112      1.0  0.97756  0.55676  0.41370  1.0000 0.045785823
C   C113      1.0  0.65101  0.01019  0.93740  1.0000 -0.1383027747
C   C114      1.0  0.01019  0.65101  0.56260  1.0000 -0.1383027747
C   C115      1.0  0.34899  0.98981  0.06260  1.0000 -0.1383027747
C   C116      1.0  0.98981  0.34899  0.43740  1.0000 -0.1383027747
C   C117      1.0  0.56260  0.96700  0.91119  1.0000 -0.1456698355
C   C118      1.0  0.96700  0.56260  0.58881  1.0000 -0.1456698355
C   C119      1.0  0.43740  0.03300  0.08881  1.0000 -0.1456698355
C   C120      1.0  0.03300  0.43740  0.41119  1.0000 -0.1456698355
C   C121      1.0  0.34810  0.98310  0.88786  1.0000 -0.0975854648
C   C122      1.0  0.98310  0.34810  0.61214  1.0000 -0.0975854648
C   C123      1.0  0.65190  0.01690  0.11214  1.0000 -0.0975854648
C   C124      1.0  0.01690  0.65190  0.38786  1.0000 -0.0975854648
C   C125      1.0  0.23760  0.04000  0.89322  1.0000 -0.1383027747
C   C126      1.0  0.04000  0.23760  0.60678  1.0000 -0.1383027747
C   C127      1.0  0.76240  0.96000  0.10678  1.0000 -0.1383027747
C   C128      1.0  0.96000  0.76240  0.39322  1.0000 -0.1383027747
C   C129      1.0  0.22127  0.14007  0.92514  1.0000 0.102058177
C   C130      1.0  0.14007  0.22127  0.57486  1.0000 0.102058177
C   C131      1.0  0.77873  0.85993  0.07486  1.0000 0.102058177
C   C132      1.0  0.85993  0.77873  0.42514  1.0000 0.102058177
N   N1        1.0  0.48867  0.26865  0.00270  1.0000 -0.2734622871
N   N2        1.0  0.26865  0.48867  0.49730  1.0000 -0.2734622871
N   N3        1.0  0.51133  0.73135  0.99730  1.0000 -0.2734622871
N   N4        1.0  0.73135  0.51133  0.50270  1.0000 -0.2734622871
N   N5        1.0  0.31031  0.18073  0.95016  1.0000 -0.2523926561
N   N6        1.0  0.18073  0.31031  0.54984  1.0000 -0.2523926561
N   N7        1.0  0.68969  0.81927  0.04984  1.0000 -0.2523926561
N   N8        1.0  0.81927  0.68969  0.45016  1.0000 -0.2523926561
O   O1        1.0  0.32473  0.47615  0.05391  1.0000 -0.5412901605
O   O2        1.0  0.47615  0.32473  0.44609  1.0000 -0.5412901605
O   O3        1.0  0.67527  0.52385  0.94609  1.0000 -0.5412901605
O   O4        1.0  0.52385  0.67527  0.55391  1.0000 -0.5412901605
O   O5        1.0  0.57825  0.86355  0.44361  1.0000 -0.5762268518
O   O6        1.0  0.86355  0.57825  0.05639  1.0000 -0.5762268518
O   O7        1.0  0.42175  0.13645  0.55639  1.0000 -0.5762268518
O   O8        1.0  0.13645  0.42175  0.94361  1.0000 -0.5762268518
O   O9        1.0  0.55081  0.67659  0.42893  1.0000 -0.5412901605
O   O10       1.0  0.67659  0.55081  0.07107  1.0000 -0.5412901605
O   O11       1.0  0.44919  0.32341  0.57107  1.0000 -0.5412901605
O   O12       1.0  0.32341  0.44919  0.92893  1.0000 -0.5412901605
O   O13       1.0  0.26538  0.18162  0.45296  1.0000 -0.56049998
O   O14       1.0  0.18162  0.26538  0.04704  1.0000 -0.56049998
O   O15       1.0  0.73462  0.81838  0.54704  1.0000 -0.56049998
O   O16       1.0  0.81838  0.73462  0.95296  1.0000 -0.56049998
O   O17       1.0  0.13730  0.55674  0.05293  1.0000 -0.56049998
O   O18       1.0  0.55674  0.13730  0.44707  1.0000 -0.56049998
O   O19       1.0  0.86270  0.44326  0.94707  1.0000 -0.56049998
O   O20       1.0  0.44326  0.86270  0.55293  1.0000 -0.56049998
O   O21       1.0  0.33900  0.99228  0.45519  1.0000 -0.5412901605
O   O22       1.0  0.99228  0.33900  0.04481  1.0000 -0.5412901605
O   O23       1.0  0.66100  0.00772  0.54481  1.0000 -0.5412901605
O   O24       1.0  0.00772  0.66100  0.95519  1.0000 -0.5412901605
O   O25       1.0  0.36932  0.89222  0.21348  1.0000 -0.2393881892
O   O26       1.0  0.89222  0.36932  0.28652  1.0000 -0.2393881892
O   O27       1.0  0.63068  0.10778  0.78652  1.0000 -0.2393881892
O   O28       1.0  0.10778  0.63068  0.71348  1.0000 -0.2393881892
O   O29       1.0  0.02355  0.02355  0.25000  1.0000 -0.2283630783
O   O30       1.0  0.97645  0.97645  0.75000  1.0000 -0.2283630783
