# DDEC6 charges by PACMAN v1.1 (https://github.com/mtap-research/PACMAN-charge/)
data_2012[Mg][utp]3[ASR]1
_chemical_formula_sum              "Mg4 H20 C40 N12 O16"
_cell_length_a       7.7639
_cell_length_b       10.1765
_cell_length_c       15.949
_cell_angle_alpha    90
_cell_angle_beta     90
_cell_angle_gamma    90

_symmetry_space_group_name_H-M    "P 1"
_symmetry_Int_Tables_number       1

loop_
  _symmetry_equiv_pos_as_xyz
  'x, y, z'

loop_
  _atom_site_type_symbol
  _atom_site_label
  _atom_site_symmetry_multiplicity
  _atom_site_fract_x
  _atom_site_fract_y
  _atom_site_fract_z
  _atom_site_occupancy
  _atom_site_charge
Mg  Mg1       1.0  0.13974  0.97018  0.21074  1.0000 1.2448647542
Mg  Mg2       1.0  0.86026  0.02982  0.71074  1.0000 1.2461481614
Mg  Mg3       1.0  0.63974  0.52982  0.21074  1.0000 1.2448647542
Mg  Mg4       1.0  0.36026  0.47018  0.71074  1.0000 1.2448647542
H   H1        1.0  0.08960  0.54880  0.40160  1.0000 0.3085789902
H   H2        1.0  0.91040  0.45120  0.90160  1.0000 0.3085789902
H   H3        1.0  0.58960  0.95120  0.40160  1.0000 0.3085789902
H   H4        1.0  0.41040  0.04880  0.90160  1.0000 0.3085789902
H   H5        1.0  0.85040  0.74600  0.62750  1.0000 0.1195811516
H   H6        1.0  0.14960  0.25400  0.12750  1.0000 0.1195811516
H   H7        1.0  0.35040  0.75400  0.62750  1.0000 0.1195811516
H   H8        1.0  0.64960  0.24600  0.12750  1.0000 0.1195811516
H   H9        1.0  0.94560  0.08560  0.52600  1.0000 0.1195811516
H   H10       1.0  0.05440  0.91440  0.02600  1.0000 0.1195811516
H   H11       1.0  0.44560  0.41440  0.52600  1.0000 0.1195811516
H   H12       1.0  0.55440  0.58560  0.02600  1.0000 0.1195811516
H   H13       1.0  0.95370  0.63930  0.51090  1.0000 0.140622422
H   H14       1.0  0.04630  0.36070  0.01090  1.0000 0.140622422
H   H15       1.0  0.45370  0.86070  0.51090  1.0000 0.140622422
H   H16       1.0  0.54630  0.13930  0.01090  1.0000 0.140622422
H   H17       1.0  0.05820  0.98890  0.40860  1.0000 0.140622422
H   H18       1.0  0.94180  0.01110  0.90860  1.0000 0.140622422
H   H19       1.0  0.55820  0.51110  0.40860  1.0000 0.140622422
H   H20       1.0  0.44180  0.48890  0.90860  1.0000 0.140622422
C   C1        1.0  0.10660  0.73900  0.37500  1.0000 0.2855480237
C   C2        1.0  0.89340  0.26100  0.87500  1.0000 0.2855480237
C   C3        1.0  0.60660  0.76100  0.37500  1.0000 0.2855480237
C   C4        1.0  0.39340  0.23900  0.87500  1.0000 0.2855480237
C   C5        1.0  0.23400  0.58480  0.30030  1.0000 0.0151030904
C   C6        1.0  0.76600  0.41520  0.80030  1.0000 0.014589561
C   C7        1.0  0.73400  0.91520  0.30030  1.0000 0.014589561
C   C8        1.0  0.26600  0.08480  0.80030  1.0000 0.014589561
C   C9        1.0  0.26450  0.70730  0.26570  1.0000 -0.0183533355
C   C10       1.0  0.73550  0.29270  0.76570  1.0000 -0.0183533355
C   C11       1.0  0.76450  0.79270  0.26570  1.0000 -0.0183533355
C   C12       1.0  0.23550  0.20730  0.76570  1.0000 -0.0183533355
C   C13       1.0  0.02250  0.80140  0.44720  1.0000 0.0542821063
C   C14       1.0  0.97750  0.19860  0.94720  1.0000 0.0542821063
C   C15       1.0  0.52250  0.69860  0.44720  1.0000 0.0542821063
C   C16       1.0  0.47750  0.30140  0.94720  1.0000 0.0542821063
C   C17       1.0  0.89300  0.79570  0.58320  1.0000 0.1058815344
C   C18       1.0  0.10700  0.20430  0.08320  1.0000 0.1058815344
C   C19       1.0  0.39300  0.70430  0.58320  1.0000 0.1058815344
C   C20       1.0  0.60700  0.29570  0.08320  1.0000 0.1058815344
C   C21       1.0  0.95010  0.99440  0.52360  1.0000 0.0935865118
C   C22       1.0  0.04990  0.00560  0.02360  1.0000 0.0935865118
C   C23       1.0  0.45010  0.50560  0.52360  1.0000 0.0935865118
C   C24       1.0  0.54990  0.49440  0.02360  1.0000 0.0935865118
C   C25       1.0  0.95620  0.73060  0.51320  1.0000 -0.2085880117
C   C26       1.0  0.04380  0.26940  0.01320  1.0000 -0.2085880117
C   C27       1.0  0.45620  0.76940  0.51320  1.0000 -0.2085880117
C   C28       1.0  0.54380  0.23060  0.01320  1.0000 -0.2085880117
C   C29       1.0  0.28580  0.44700  0.27780  1.0000 0.5767611338
C   C30       1.0  0.71420  0.55300  0.77780  1.0000 0.5767611338
C   C31       1.0  0.78580  0.05300  0.27780  1.0000 0.5767611338
C   C32       1.0  0.21420  0.94700  0.77780  1.0000 0.5767611338
C   C33       1.0  0.01720  0.93720  0.45240  1.0000 -0.1799985693
C   C34       1.0  0.98280  0.06280  0.95240  1.0000 -0.1799985693
C   C35       1.0  0.51720  0.56280  0.45240  1.0000 -0.1799985693
C   C36       1.0  0.48280  0.43720  0.95240  1.0000 -0.1799985693
C   C37       1.0  0.36700  0.74730  0.19080  1.0000 0.6147828622
C   C38       1.0  0.63300  0.25270  0.69080  1.0000 0.6147828622
C   C39       1.0  0.86700  0.75270  0.19080  1.0000 0.6147828622
C   C40       1.0  0.13300  0.24730  0.69080  1.0000 0.615493588
N   N1        1.0  0.89060  0.92580  0.58983  1.0000 -0.3050224559
N   N2        1.0  0.10940  0.07420  0.08983  1.0000 -0.3047249989
N   N3        1.0  0.39060  0.57420  0.58983  1.0000 -0.3047249989
N   N4        1.0  0.60940  0.42580  0.08983  1.0000 -0.3047249989
N   N5        1.0  0.18190  0.80170  0.31170  1.0000 -0.4345004039
N   N6        1.0  0.81810  0.19830  0.81170  1.0000 -0.4345004039
N   N7        1.0  0.68190  0.69830  0.31170  1.0000 -0.4345004039
N   N8        1.0  0.31810  0.30170  0.81170  1.0000 -0.4345004039
N   N9        1.0  0.13120  0.60760  0.36857  1.0000 -0.2518063301
N   N10       1.0  0.86880  0.39240  0.86857  1.0000 -0.2518063301
N   N11       1.0  0.63120  0.89240  0.36857  1.0000 -0.2518063301
N   N12       1.0  0.36880  0.10760  0.86857  1.0000 -0.2518063301
O   O1        1.0  0.33940  0.86150  0.16324  1.0000 -0.6178452448
O   O2        1.0  0.66060  0.13850  0.66324  1.0000 -0.6178452448
O   O3        1.0  0.83940  0.63850  0.16324  1.0000 -0.6178452448
O   O4        1.0  0.16060  0.36150  0.66324  1.0000 -0.6178452448
O   O5        1.0  0.47190  0.66820  0.16083  1.0000 -0.6105473714
O   O6        1.0  0.52810  0.33180  0.66083  1.0000 -0.6105473714
O   O7        1.0  0.97190  0.83180  0.16083  1.0000 -0.6105473714
O   O8        1.0  0.02810  0.16820  0.66083  1.0000 -0.6105473714
O   O9        1.0  0.43880  0.42660  0.25668  1.0000 -0.644857295
O   O10       1.0  0.56120  0.57340  0.75668  1.0000 -0.6451723056
O   O11       1.0  0.93880  0.07340  0.25668  1.0000 -0.6451723056
O   O12       1.0  0.06120  0.92660  0.75668  1.0000 -0.644857295
O   O13       1.0  0.17090  0.36170  0.28380  1.0000 -0.5484561102
O   O14       1.0  0.82910  0.63830  0.78380  1.0000 -0.5484561102
O   O15       1.0  0.67090  0.13830  0.28380  1.0000 -0.5484561102
O   O16       1.0  0.32910  0.86170  0.78380  1.0000 -0.5484561102
