# DDEC6 charges by PACMAN v1.1 (https://github.com/mtap-research/PACMAN-charge/)
data_2012[UAg][nan]3[ASR]1
_chemical_formula_sum              "U6 Ag2 P8 H16 C8 O30"
_cell_length_a       12.9357
_cell_length_b       12.9357
_cell_length_c       9.4926
_cell_angle_alpha    90
_cell_angle_beta     90
_cell_angle_gamma    92.3739

_symmetry_space_group_name_H-M    "P 1"
_symmetry_Int_Tables_number       1

loop_
  _symmetry_equiv_pos_as_xyz
  'x, y, z'

loop_
  _atom_site_type_symbol
  _atom_site_label
  _atom_site_symmetry_multiplicity
  _atom_site_fract_x
  _atom_site_fract_y
  _atom_site_fract_z
  _atom_site_occupancy
  _atom_site_charge
U   U1        1.0  0.09751  0.68187  0.73537  1.0000 2.0932869979
U   U2        1.0  0.90249  0.31813  0.23537  1.0000 2.1011589834
U   U3        1.0  0.31813  0.90249  0.23537  1.0000 2.0932869979
U   U4        1.0  0.68187  0.09751  0.73537  1.0000 2.1011589834
U   U5        1.0  0.20891  0.20891  0.90490  1.0000 2.4624775716
U   U6        1.0  0.79109  0.79109  0.40490  1.0000 2.4491547414
Ag  Ag1       1.0  0.99660  0.99660  0.91700  1.0000 0.6061084339
Ag  Ag2       1.0  0.00340  0.00340  0.41700  1.0000 0.6061084339
P   P1        1.0  0.22920  0.93000  0.86100  1.0000 1.2811015614
P   P2        1.0  0.77080  0.07000  0.36100  1.0000 1.2811015614
P   P3        1.0  0.07000  0.77080  0.36100  1.0000 1.2811015614
P   P4        1.0  0.93000  0.22920  0.86100  1.0000 1.2811015614
P   P5        1.0  0.42990  0.03770  0.92840  1.0000 1.2864734599
P   P6        1.0  0.57010  0.96230  0.42840  1.0000 1.2864734599
P   P7        1.0  0.96230  0.57010  0.42840  1.0000 1.2864734599
P   P8        1.0  0.03770  0.42990  0.92840  1.0000 1.2864734599
H   H1        1.0  0.41190  0.81190  0.91020  1.0000 0.081330783
H   H2        1.0  0.58810  0.18810  0.41020  1.0000 0.081330783
H   H3        1.0  0.18810  0.58810  0.41020  1.0000 0.081330783
H   H4        1.0  0.81190  0.41190  0.91020  1.0000 0.081330783
H   H5        1.0  0.48430  0.84610  0.78470  1.0000 0.1275645712
H   H6        1.0  0.51570  0.15390  0.28470  1.0000 0.1275645712
H   H7        1.0  0.15390  0.51570  0.28470  1.0000 0.1275645712
H   H8        1.0  0.84610  0.48430  0.78470  1.0000 0.1275645712
H   H9        1.0  0.37610  0.79170  0.75450  1.0000 0.1117224911
H   H10       1.0  0.62390  0.20830  0.25450  1.0000 0.1117224911
H   H11       1.0  0.20830  0.62390  0.25450  1.0000 0.1117224911
H   H12       1.0  0.79170  0.37610  0.75450  1.0000 0.1117224911
H   H13       1.0  0.41160  0.03480  0.66667  1.0000 0.3115333685
H   H14       1.0  0.58840  0.96520  0.16667  1.0000 0.3115333685
H   H15       1.0  0.96520  0.58840  0.16667  1.0000 0.3115333685
H   H16       1.0  0.03480  0.41160  0.66667  1.0000 0.3115333685
C   C1        1.0  0.36510  0.94290  0.81280  1.0000 -0.2512925746
C   C2        1.0  0.63490  0.05710  0.31280  1.0000 -0.2580812058
C   C3        1.0  0.05710  0.63490  0.31280  1.0000 -0.2512925746
C   C4        1.0  0.94290  0.36510  0.81280  1.0000 -0.2512925746
C   C5        1.0  0.41380  0.83860  0.81580  1.0000 -0.4462523094
C   C6        1.0  0.58620  0.16140  0.31580  1.0000 -0.4448244802
C   C7        1.0  0.16140  0.58620  0.31580  1.0000 -0.4462523094
C   C8        1.0  0.83860  0.41380  0.81580  1.0000 -0.4462523094
O   O1        1.0  0.17880  0.84640  0.77120  1.0000 -0.7927994362
O   O2        1.0  0.82120  0.15360  0.27120  1.0000 -0.7927994362
O   O3        1.0  0.15360  0.82120  0.27120  1.0000 -0.7927994362
O   O4        1.0  0.84640  0.17880  0.77120  1.0000 -0.7927994362
O   O5        1.0  0.18090  0.03410  0.84010  1.0000 -0.9025958907
O   O6        1.0  0.81910  0.96590  0.34010  1.0000 -0.9059915474
O   O7        1.0  0.96590  0.81910  0.34010  1.0000 -0.9025958907
O   O8        1.0  0.03410  0.18090  0.84010  1.0000 -0.9025958907
O   O9        1.0  0.43370  0.98610  0.07380  1.0000 -0.8481926701
O   O10       1.0  0.56630  0.01390  0.57380  1.0000 -0.8481926701
O   O11       1.0  0.01390  0.56630  0.57380  1.0000 -0.8481926701
O   O12       1.0  0.98610  0.43370  0.07380  1.0000 -0.8481926701
O   O13       1.0  0.36760  0.13440  0.93240  1.0000 -0.9682493738
O   O14       1.0  0.63240  0.86560  0.43240  1.0000 -0.9682493738
O   O15       1.0  0.86560  0.63240  0.43240  1.0000 -0.9682493738
O   O16       1.0  0.13440  0.36760  0.93240  1.0000 -0.9682493738
O   O17       1.0  0.23010  0.89970  0.01600  1.0000 -0.85838496
O   O18       1.0  0.76990  0.10030  0.51600  1.0000 -0.85838496
O   O19       1.0  0.10030  0.76990  0.51600  1.0000 -0.85838496
O   O20       1.0  0.89970  0.23010  0.01600  1.0000 -0.85838496
O   O21       1.0  0.53580  0.05820  0.86840  1.0000 -0.8425123326
O   O22       1.0  0.46420  0.94180  0.36840  1.0000 -0.8425123326
O   O23       1.0  0.94180  0.46420  0.36840  1.0000 -0.8425123326
O   O24       1.0  0.05820  0.53580  0.86840  1.0000 -0.8425123326
O   O25       1.0  0.36900  0.98600  0.66940  1.0000 -0.412960299
O   O26       1.0  0.63100  0.01400  0.16940  1.0000 -0.412960299
O   O27       1.0  0.01400  0.63100  0.16940  1.0000 -0.412960299
O   O28       1.0  0.98600  0.36900  0.66940  1.0000 -0.412960299
O   O29       1.0  0.97590  0.97590  0.68300  1.0000 -1.0015772513
O   O30       1.0  0.02410  0.02410  0.18300  1.0000 -1.0083529881
