# DDEC6 charges by PACMAN v1.1 (https://github.com/mtap-research/PACMAN-charge/)
data_2012[Fe][bpq]3[ASR]3
_chemical_formula_sum              "Fe8 H32 C64 O40"
_cell_length_a       21.4643
_cell_length_b       21.4643
_cell_length_c       6.8965
_cell_angle_alpha    90
_cell_angle_beta     90
_cell_angle_gamma    95.2848

_symmetry_space_group_name_H-M    "P 1"
_symmetry_Int_Tables_number       1

loop_
  _symmetry_equiv_pos_as_xyz
  'x, y, z'

loop_
  _atom_site_type_symbol
  _atom_site_label
  _atom_site_symmetry_multiplicity
  _atom_site_fract_x
  _atom_site_fract_y
  _atom_site_fract_z
  _atom_site_occupancy
  _atom_site_charge
Fe  Fe1       1.0  0.00000  0.50000  0.00000  1.0000 1.2901645274
Fe  Fe2       1.0  0.50000  0.00000  0.50000  1.0000 1.2901645274
Fe  Fe3       1.0  0.50000  0.00000  0.00000  1.0000 1.2901645274
Fe  Fe4       1.0  0.00000  0.50000  0.50000  1.0000 1.2901645274
Fe  Fe5       1.0  0.50000  0.50000  0.00000  1.0000 1.2563121588
Fe  Fe6       1.0  0.00000  0.00000  0.50000  1.0000 1.2563121588
Fe  Fe7       1.0  0.50000  0.50000  0.50000  1.0000 1.3081843526
Fe  Fe8       1.0  0.00000  0.00000  0.00000  1.0000 1.3081843526
H   H1        1.0  0.30370  0.49510  0.93730  1.0000 0.1292157266
H   H2        1.0  0.19630  0.00490  0.43730  1.0000 0.1292157266
H   H3        1.0  0.50490  0.69630  0.06270  1.0000 0.1292157266
H   H4        1.0  0.99510  0.80370  0.56270  1.0000 0.1292157266
H   H5        1.0  0.69630  0.50490  0.06270  1.0000 0.1292157266
H   H6        1.0  0.80370  0.99510  0.56270  1.0000 0.1292157266
H   H7        1.0  0.49510  0.30370  0.93730  1.0000 0.1292157266
H   H8        1.0  0.00490  0.19630  0.43730  1.0000 0.1292157266
H   H9        1.0  0.19410  0.49470  0.93640  1.0000 0.1292157266
H   H10       1.0  0.30590  0.00530  0.43640  1.0000 0.1292157266
H   H11       1.0  0.50530  0.80590  0.06360  1.0000 0.1292157266
H   H12       1.0  0.99470  0.69410  0.56360  1.0000 0.1292157266
H   H13       1.0  0.80590  0.50530  0.06360  1.0000 0.1292157266
H   H14       1.0  0.69410  0.99470  0.56360  1.0000 0.1292157266
H   H15       1.0  0.49470  0.19410  0.93640  1.0000 0.1292157266
H   H16       1.0  0.00530  0.30590  0.43640  1.0000 0.1292157266
H   H17       1.0  0.19350  0.49390  0.52690  1.0000 0.1292157266
H   H18       1.0  0.30650  0.00610  0.02690  1.0000 0.1292157266
H   H19       1.0  0.50610  0.80650  0.47310  1.0000 0.1292157266
H   H20       1.0  0.99390  0.69350  0.97310  1.0000 0.1292157266
H   H21       1.0  0.80650  0.50610  0.47310  1.0000 0.1292157266
H   H22       1.0  0.69350  0.99390  0.97310  1.0000 0.1292157266
H   H23       1.0  0.49390  0.19350  0.52690  1.0000 0.1292157266
H   H24       1.0  0.00610  0.30650  0.02690  1.0000 0.1292157266
H   H25       1.0  0.30300  0.49440  0.52780  1.0000 0.1292157266
H   H26       1.0  0.19700  0.00560  0.02780  1.0000 0.1292157266
H   H27       1.0  0.50560  0.69700  0.47220  1.0000 0.1292157266
H   H28       1.0  0.99440  0.80300  0.97220  1.0000 0.1292157266
H   H29       1.0  0.69700  0.50560  0.47220  1.0000 0.1292157266
H   H30       1.0  0.80300  0.99440  0.97220  1.0000 0.1292157266
H   H31       1.0  0.49440  0.30300  0.52780  1.0000 0.1292157266
H   H32       1.0  0.00560  0.19700  0.02780  1.0000 0.1292157266
C   C1        1.0  0.31240  0.49480  0.23260  1.0000 -0.0283200857
C   C2        1.0  0.18760  0.00520  0.73260  1.0000 -0.0283200857
C   C3        1.0  0.50520  0.68760  0.76740  1.0000 -0.0283200857
C   C4        1.0  0.99480  0.81240  0.26740  1.0000 -0.0283200857
C   C5        1.0  0.68760  0.50520  0.76740  1.0000 -0.0283200857
C   C6        1.0  0.81240  0.99480  0.26740  1.0000 -0.0283200857
C   C7        1.0  0.49480  0.31240  0.23260  1.0000 -0.0283200857
C   C8        1.0  0.00520  0.18760  0.73260  1.0000 -0.0283200857
C   C9        1.0  0.28070  0.49490  0.06020  1.0000 -0.0966517591
C   C10       1.0  0.21930  0.00510  0.56020  1.0000 -0.0966517591
C   C11       1.0  0.50510  0.71930  0.93980  1.0000 -0.0966517591
C   C12       1.0  0.99490  0.78070  0.43980  1.0000 -0.0966517591
C   C13       1.0  0.71930  0.50510  0.93980  1.0000 -0.0966517591
C   C14       1.0  0.78070  0.99490  0.43980  1.0000 -0.0966517591
C   C15       1.0  0.49490  0.28070  0.06020  1.0000 -0.0966517591
C   C16       1.0  0.00510  0.21930  0.56020  1.0000 -0.0966517591
C   C17       1.0  0.21680  0.49460  0.05960  1.0000 -0.0900645359
C   C18       1.0  0.28320  0.00540  0.55960  1.0000 -0.0900645359
C   C19       1.0  0.50540  0.78320  0.94040  1.0000 -0.0900645359
C   C20       1.0  0.99460  0.71680  0.44040  1.0000 -0.0900645359
C   C21       1.0  0.78320  0.50540  0.94040  1.0000 -0.0900645359
C   C22       1.0  0.71680  0.99460  0.44040  1.0000 -0.0900645359
C   C23       1.0  0.49460  0.21680  0.05960  1.0000 -0.0900645359
C   C24       1.0  0.00540  0.28320  0.55960  1.0000 -0.0900645359
C   C25       1.0  0.18470  0.49430  0.23160  1.0000 -0.0283200857
C   C26       1.0  0.31530  0.00570  0.73160  1.0000 -0.0283200857
C   C27       1.0  0.50570  0.81530  0.76840  1.0000 -0.0283200857
C   C28       1.0  0.99430  0.68470  0.26840  1.0000 -0.0283200857
C   C29       1.0  0.81530  0.50570  0.76840  1.0000 -0.0283200857
C   C30       1.0  0.68470  0.99430  0.26840  1.0000 -0.0283200857
C   C31       1.0  0.49430  0.18470  0.23160  1.0000 -0.0283200857
C   C32       1.0  0.00570  0.31530  0.73160  1.0000 -0.0283200857
C   C33       1.0  0.21640  0.49420  0.40400  1.0000 -0.0900645359
C   C34       1.0  0.28360  0.00580  0.90400  1.0000 -0.0900645359
C   C35       1.0  0.50580  0.78360  0.59600  1.0000 -0.0900645359
C   C36       1.0  0.99420  0.71640  0.09600  1.0000 -0.0900645359
C   C37       1.0  0.78360  0.50580  0.59600  1.0000 -0.0900645359
C   C38       1.0  0.71640  0.99420  0.09600  1.0000 -0.0900645359
C   C39       1.0  0.49420  0.21640  0.40400  1.0000 -0.0900645359
C   C40       1.0  0.00580  0.28360  0.90400  1.0000 -0.0900645359
C   C41       1.0  0.28040  0.49440  0.40450  1.0000 -0.0966517591
C   C42       1.0  0.21960  0.00560  0.90450  1.0000 -0.0966517591
C   C43       1.0  0.50560  0.71960  0.59550  1.0000 -0.0966517591
C   C44       1.0  0.99440  0.78040  0.09550  1.0000 -0.0966517591
C   C45       1.0  0.71960  0.50560  0.59550  1.0000 -0.0966517591
C   C46       1.0  0.78040  0.99440  0.09550  1.0000 -0.0966517591
C   C47       1.0  0.49440  0.28040  0.40450  1.0000 -0.0966517591
C   C48       1.0  0.00560  0.21960  0.90450  1.0000 -0.0966517591
C   C49       1.0  0.38090  0.49510  0.23310  1.0000 0.5880266697
C   C50       1.0  0.11910  0.00490  0.73310  1.0000 0.5880266697
C   C51       1.0  0.50490  0.61910  0.76690  1.0000 0.5880266697
C   C52       1.0  0.99510  0.88090  0.26690  1.0000 0.5880266697
C   C53       1.0  0.61910  0.50490  0.76690  1.0000 0.5880266697
C   C54       1.0  0.88090  0.99510  0.26690  1.0000 0.5880266697
C   C55       1.0  0.49510  0.38090  0.23310  1.0000 0.5880266697
C   C56       1.0  0.00490  0.11910  0.73310  1.0000 0.5880266697
C   C57       1.0  0.11620  0.49400  0.23100  1.0000 0.5808872999
C   C58       1.0  0.38380  0.00600  0.73100  1.0000 0.5808872999
C   C59       1.0  0.50600  0.88380  0.76900  1.0000 0.5808872999
C   C60       1.0  0.99400  0.61620  0.26900  1.0000 0.5808872999
C   C61       1.0  0.88380  0.50600  0.76900  1.0000 0.5808872999
C   C62       1.0  0.61620  0.99400  0.26900  1.0000 0.5808872999
C   C63       1.0  0.49400  0.11620  0.23100  1.0000 0.5808872999
C   C64       1.0  0.00600  0.38380  0.73100  1.0000 0.5808872999
O   O1        1.0  0.41050  0.49330  0.07400  1.0000 -0.4787236821
O   O2        1.0  0.08950  0.00670  0.57400  1.0000 -0.4787236821
O   O3        1.0  0.50670  0.58950  0.92600  1.0000 -0.4787236821
O   O4        1.0  0.99330  0.91050  0.42600  1.0000 -0.4787236821
O   O5        1.0  0.58950  0.50670  0.92600  1.0000 -0.4787236821
O   O6        1.0  0.91050  0.99330  0.42600  1.0000 -0.4787236821
O   O7        1.0  0.49330  0.41050  0.07400  1.0000 -0.4787236821
O   O8        1.0  0.00670  0.08950  0.57400  1.0000 -0.4787236821
O   O9        1.0  0.41060  0.49700  0.39270  1.0000 -0.5243093698
O   O10       1.0  0.08940  0.00300  0.89270  1.0000 -0.5243093698
O   O11       1.0  0.50300  0.58940  0.60730  1.0000 -0.5243093698
O   O12       1.0  0.99700  0.91060  0.10730  1.0000 -0.5243093698
O   O13       1.0  0.58940  0.50300  0.60730  1.0000 -0.5243093698
O   O14       1.0  0.91060  0.99700  0.10730  1.0000 -0.5243093698
O   O15       1.0  0.49700  0.41060  0.39270  1.0000 -0.5243093698
O   O16       1.0  0.00300  0.08940  0.89270  1.0000 -0.5243093698
O   O17       1.0  0.08690  0.49670  0.07160  1.0000 -0.4787236821
O   O18       1.0  0.41310  0.00330  0.57160  1.0000 -0.4787236821
O   O19       1.0  0.50330  0.91310  0.92840  1.0000 -0.4787236821
O   O20       1.0  0.99670  0.58690  0.42840  1.0000 -0.4746678798
O   O21       1.0  0.91310  0.50330  0.92840  1.0000 -0.4746678798
O   O22       1.0  0.58690  0.99670  0.42840  1.0000 -0.4787236821
O   O23       1.0  0.49670  0.08690  0.07160  1.0000 -0.4787236821
O   O24       1.0  0.00330  0.41310  0.57160  1.0000 -0.4787236821
O   O25       1.0  0.08620  0.49100  0.39000  1.0000 -0.4913051157
O   O26       1.0  0.41380  0.00900  0.89000  1.0000 -0.4913051157
O   O27       1.0  0.50900  0.91380  0.61000  1.0000 -0.4913051157
O   O28       1.0  0.99100  0.58620  0.11000  1.0000 -0.4913051157
O   O29       1.0  0.91380  0.50900  0.61000  1.0000 -0.4913051157
O   O30       1.0  0.58620  0.99100  0.11000  1.0000 -0.4913051157
O   O31       1.0  0.49100  0.08620  0.39000  1.0000 -0.4913051157
O   O32       1.0  0.00900  0.41380  0.89000  1.0000 -0.4913051157
O   O33       1.0  0.97090  0.47090  0.25000  1.0000 -0.6006445615
O   O34       1.0  0.52910  0.02910  0.75000  1.0000 -0.6006445615
O   O35       1.0  0.02910  0.52910  0.75000  1.0000 -0.6006445615
O   O36       1.0  0.47090  0.97090  0.25000  1.0000 -0.6006445615
O   O37       1.0  0.46370  0.46370  0.75000  1.0000 -0.5390806525
O   O38       1.0  0.03630  0.03630  0.25000  1.0000 -0.5390806525
O   O39       1.0  0.53630  0.53630  0.25000  1.0000 -0.5390806525
O   O40       1.0  0.96370  0.96370  0.75000  1.0000 -0.5390806525
