# DDEC6 charges by PACMAN v1.1 (https://github.com/mtap-research/PACMAN-charge/)
data_2012[Cu][wbl]3[ASR]1
_chemical_formula_sum              "Cu8 P4 H96 C192 O48"
_cell_length_a       39.8821
_cell_length_b       39.8821
_cell_length_c       39.8821
_cell_angle_alpha    144.282
_cell_angle_beta     144.282
_cell_angle_gamma    51.4055

_symmetry_space_group_name_H-M    "P 1"
_symmetry_Int_Tables_number       1

loop_
  _symmetry_equiv_pos_as_xyz
  'x, y, z'

loop_
  _atom_site_type_symbol
  _atom_site_label
  _atom_site_symmetry_multiplicity
  _atom_site_fract_x
  _atom_site_fract_y
  _atom_site_fract_z
  _atom_site_occupancy
  _atom_site_charge
Cu  Cu1       1.0  0.82344  0.82698  0.92398  1.0000 0.8576261127
Cu  Cu2       1.0  0.90300  0.89946  0.07602  1.0000 0.8576261127
Cu  Cu3       1.0  0.57698  0.15300  0.50354  1.0000 0.8576261127
Cu  Cu4       1.0  0.64946  0.07344  0.49646  1.0000 0.8576261127
Cu  Cu5       1.0  0.84700  0.42302  0.49646  1.0000 0.8576261127
Cu  Cu6       1.0  0.92656  0.35054  0.50354  1.0000 0.8576261127
Cu  Cu7       1.0  0.10054  0.09700  0.92398  1.0000 0.8576261127
Cu  Cu8       1.0  0.17302  0.17656  0.07602  1.0000 0.8576261127
P   P1        1.0  0.33699  0.66301  0.00000  1.0000 1.2824104254
P   P2        1.0  0.66301  0.33699  0.00000  1.0000 1.2824104254
P   P3        1.0  0.41301  0.91301  0.82602  1.0000 1.2824104254
P   P4        1.0  0.08699  0.58699  0.17398  1.0000 1.2851991678
H   H1        1.0  0.43200  0.04830  0.34310  1.0000 0.1313479038
H   H2        1.0  0.70520  0.08890  0.65690  1.0000 0.1313479038
H   H3        1.0  0.79830  0.95520  0.11630  1.0000 0.1313479038
H   H4        1.0  0.83890  0.68200  0.88370  1.0000 0.1313479038
H   H5        1.0  0.04480  0.20170  0.88370  1.0000 0.1379517954
H   H6        1.0  0.31800  0.16110  0.11630  1.0000 0.1313479038
H   H7        1.0  0.91110  0.29480  0.34310  1.0000 0.1313479038
H   H8        1.0  0.95170  0.56800  0.65690  1.0000 0.1313479038
H   H9        1.0  0.45830  0.85340  0.19690  1.0000 0.1313479038
H   H10       1.0  0.65650  0.26140  0.80310  1.0000 0.1313479038
H   H11       1.0  0.60340  0.90650  0.89510  1.0000 0.1313479038
H   H12       1.0  0.01140  0.70830  0.10490  1.0000 0.1313479038
H   H13       1.0  0.09350  0.39660  0.10490  1.0000 0.1313479038
H   H14       1.0  0.29170  0.98860  0.89510  1.0000 0.1313479038
H   H15       1.0  0.73860  0.34350  0.19690  1.0000 0.1313479038
H   H16       1.0  0.14660  0.54170  0.80310  1.0000 0.1313479038
H   H17       1.0  0.12420  0.95600  0.89600  1.0000 0.1313479038
H   H18       1.0  0.06000  0.22820  0.10400  1.0000 0.1313479038
H   H19       1.0  0.70600  0.31000  0.33180  1.0000 0.1313479038
H   H20       1.0  0.97820  0.37420  0.66820  1.0000 0.1313479038
H   H21       1.0  0.69000  0.29400  0.66820  1.0000 0.1313479038
H   H22       1.0  0.62580  0.02180  0.33180  1.0000 0.1313479038
H   H23       1.0  0.77180  0.94000  0.89600  1.0000 0.1313479038
H   H24       1.0  0.04400  0.87580  0.10400  1.0000 0.1313479038
H   H25       1.0  0.26400  0.01220  0.13460  1.0000 0.1186934769
H   H26       1.0  0.87760  0.12940  0.86540  1.0000 0.1186934769
H   H27       1.0  0.76220  0.12760  0.24820  1.0000 0.1186934769
H   H28       1.0  0.87940  0.51400  0.75180  1.0000 0.1186934769
H   H29       1.0  0.87240  0.23780  0.75180  1.0000 0.1186934769
H   H30       1.0  0.48600  0.12060  0.24820  1.0000 0.1186934769
H   H31       1.0  0.87060  0.12240  0.13460  1.0000 0.1186934769
H   H32       1.0  0.98780  0.73600  0.86540  1.0000 0.1186934769
H   H33       1.0  0.53130  0.92440  0.30130  1.0000 0.1379517954
H   H34       1.0  0.62310  0.23000  0.69870  1.0000 0.1379517954
H   H35       1.0  0.67440  0.87310  0.89310  1.0000 0.1379517954
H   H36       1.0  0.98000  0.78130  0.10690  1.0000 0.1379517954
H   H37       1.0  0.12690  0.32560  0.10690  1.0000 0.1379517954
H   H38       1.0  0.21870  0.02000  0.89310  1.0000 0.1379517954
H   H39       1.0  0.77000  0.37690  0.30130  1.0000 0.1379517954
H   H40       1.0  0.07560  0.46870  0.69870  1.0000 0.1379517954
H   H41       1.0  0.14560  0.88810  0.90170  1.0000 0.1186934769
H   H42       1.0  0.98640  0.24390  0.09830  1.0000 0.1186934769
H   H43       1.0  0.63810  0.23640  0.24250  1.0000 0.1186934769
H   H44       1.0  0.99390  0.39560  0.75750  1.0000 0.1186934769
H   H45       1.0  0.76360  0.36190  0.75750  1.0000 0.1186934769
H   H46       1.0  0.60440  0.00610  0.24250  1.0000 0.1186934769
H   H47       1.0  0.75610  0.01360  0.90170  1.0000 0.1186934769
H   H48       1.0  0.11190  0.85440  0.09830  1.0000 0.1186934769
H   H49       1.0  0.36040  0.97710  0.24650  1.0000 0.1186934769
H   H50       1.0  0.73060  0.11390  0.75350  1.0000 0.1186934769
H   H51       1.0  0.72710  0.98060  0.11670  1.0000 0.1186934769
H   H52       1.0  0.86390  0.61040  0.88330  1.0000 0.1186934769
H   H53       1.0  0.01940  0.27290  0.88330  1.0000 0.1186934769
H   H54       1.0  0.38960  0.13610  0.11670  1.0000 0.1186934769
H   H55       1.0  0.88610  0.26940  0.24650  1.0000 0.1186934769
H   H56       1.0  0.02290  0.63960  0.75350  1.0000 0.1186934769
H   H57       1.0  0.24210  0.07520  0.12630  1.0000 0.1313479038
H   H58       1.0  0.94890  0.11580  0.87370  1.0000 0.1313479038
H   H59       1.0  0.82520  0.19890  0.33310  1.0000 0.1313479038
H   H60       1.0  0.86580  0.49210  0.66690  1.0000 0.1313479038
H   H61       1.0  0.80110  0.17480  0.66690  1.0000 0.1313479038
H   H62       1.0  0.50790  0.13420  0.33310  1.0000 0.1313479038
H   H63       1.0  0.88420  0.05110  0.12630  1.0000 0.1313479038
H   H64       1.0  0.92480  0.75790  0.87370  1.0000 0.1313479038
H   H65       1.0  0.40530  0.82500  0.18190  1.0000 0.1455290379
H   H66       1.0  0.64310  0.22340  0.81810  1.0000 0.1455290379
H   H67       1.0  0.57500  0.89310  0.91970  1.0000 0.1455290379
H   H68       1.0  0.97340  0.65530  0.08030  1.0000 0.1455290379
H   H69       1.0  0.10690  0.42500  0.08030  1.0000 0.1455290379
H   H70       1.0  0.34470  0.02660  0.91970  1.0000 0.1455290379
H   H71       1.0  0.77660  0.35690  0.18190  1.0000 0.1455290379
H   H72       1.0  0.17500  0.59470  0.81810  1.0000 0.1455290379
H   H73       1.0  0.16320  0.79950  0.93710  1.0000 0.1128361771
H   H74       1.0  0.86240  0.22610  0.06290  1.0000 0.1128361771
H   H75       1.0  0.54950  0.11240  0.13630  1.0000 0.1128361771
H   H76       1.0  0.97610  0.41320  0.86370  1.0000 0.1128361771
H   H77       1.0  0.88760  0.45050  0.86370  1.0000 0.1128361771
H   H78       1.0  0.58680  0.02390  0.13630  1.0000 0.1128361771
H   H79       1.0  0.77390  0.13760  0.93710  1.0000 0.1128361771
H   H80       1.0  0.20050  0.83680  0.06290  1.0000 0.1128361771
H   H81       1.0  0.14040  0.86300  0.92940  1.0000 0.1186934769
H   H82       1.0  0.93360  0.21100  0.07060  1.0000 0.1186934769
H   H83       1.0  0.61300  0.18360  0.22260  1.0000 0.1186934769
H   H84       1.0  0.96100  0.39040  0.77740  1.0000 0.1186934769
H   H85       1.0  0.81640  0.38700  0.77740  1.0000 0.1186934769
H   H86       1.0  0.60960  0.03900  0.22260  1.0000 0.1186934769
H   H87       1.0  0.78900  0.06640  0.92940  1.0000 0.1186934769
H   H88       1.0  0.13700  0.85960  0.07060  1.0000 0.1186934769
H   H89       1.0  0.30960  0.92960  0.12100  1.0000 0.1128361771
H   H90       1.0  0.80860  0.18860  0.87900  1.0000 0.1128361771
H   H91       1.0  0.67960  0.05860  0.12000  1.0000 0.1128361771
H   H92       1.0  0.93860  0.55960  0.88000  1.0000 0.1128361771
H   H93       1.0  0.94140  0.32040  0.88000  1.0000 0.1128361771
H   H94       1.0  0.44040  0.06140  0.12000  1.0000 0.1128361771
H   H95       1.0  0.81140  0.19140  0.12100  1.0000 0.1128361771
H   H96       1.0  0.07040  0.69040  0.87900  1.0000 0.1128361771
C   C1        1.0  0.53918  0.03710  0.39752  1.0000 0.5717451179
C   C2        1.0  0.63958  0.14166  0.60248  1.0000 0.5717451179
C   C3        1.0  0.78710  0.88958  0.99792  1.0000 0.5717451179
C   C4        1.0  0.89166  0.78918  0.00208  1.0000 0.5717451179
C   C5        1.0  0.11042  0.21290  0.00208  1.0000 0.5717451179
C   C6        1.0  0.21082  0.10834  0.99792  1.0000 0.5717451179
C   C7        1.0  0.85834  0.36042  0.39752  1.0000 0.5717451179
C   C8        1.0  0.96290  0.46082  0.60248  1.0000 0.5717451179
C   C9        1.0  0.48923  0.99133  0.33070  1.0000 -0.0069398806
C   C10       1.0  0.66063  0.15853  0.66930  1.0000 -0.0069398806
C   C11       1.0  0.74133  0.91063  0.00210  1.0000 -0.0069398806
C   C12       1.0  0.90853  0.73923  0.99790  1.0000 -0.0069398806
C   C13       1.0  0.08937  0.25867  0.99790  1.0000 -0.0069398806
C   C14       1.0  0.26077  0.09147  0.00210  1.0000 -0.0069398806
C   C15       1.0  0.84147  0.33937  0.33070  1.0000 -0.0069398806
C   C16       1.0  0.00867  0.51077  0.66930  1.0000 -0.0069398806
C   C17       1.0  0.43754  0.00940  0.31506  1.0000 -0.0873581575
C   C18       1.0  0.69434  0.12248  0.68494  1.0000 -0.0873581575
C   C19       1.0  0.75940  0.94434  0.07186  1.0000 -0.0873581575
C   C20       1.0  0.87248  0.68754  0.92814  1.0000 -0.0873581575
C   C21       1.0  0.05566  0.24060  0.92814  1.0000 -0.0873581575
C   C22       1.0  0.31246  0.12752  0.07186  1.0000 -0.0873581575
C   C23       1.0  0.87752  0.30566  0.31506  1.0000 -0.0873581575
C   C24       1.0  0.99060  0.56246  0.68494  1.0000 -0.0873581575
C   C25       1.0  0.45342  0.89230  0.22688  1.0000 -0.1380107369
C   C26       1.0  0.66542  0.22654  0.77312  1.0000 -0.1380107369
C   C27       1.0  0.64230  0.91542  0.93888  1.0000 -0.1380107369
C   C28       1.0  0.97654  0.70342  0.06112  1.0000 -0.1380107369
C   C29       1.0  0.08458  0.35770  0.06112  1.0000 -0.1380107369
C   C30       1.0  0.29658  0.02346  0.93888  1.0000 -0.1380107369
C   C31       1.0  0.77346  0.33458  0.22688  1.0000 -0.1380107369
C   C32       1.0  0.10770  0.54658  0.77312  1.0000 -0.1380107369
C   C33       1.0  0.26556  0.77886  0.02750  1.0000 -0.0402494826
C   C34       1.0  0.75136  0.23806  0.97250  1.0000 -0.0402494826
C   C35       1.0  0.52886  0.00136  0.01330  1.0000 -0.0402494826
C   C36       1.0  0.98806  0.51556  0.98670  1.0000 -0.0402494826
C   C37       1.0  0.99864  0.47114  0.98670  1.0000 -0.0402494826
C   C38       1.0  0.48444  0.01194  0.01330  1.0000 -0.0402494826
C   C39       1.0  0.76194  0.24864  0.02750  1.0000 -0.0402494826
C   C40       1.0  0.22114  0.73444  0.97250  1.0000 -0.0402494826
C   C41       1.0  0.40008  0.91188  0.21160  1.0000 0.0811865918
C   C42       1.0  0.70028  0.18848  0.78840  1.0000 0.0811865918
C   C43       1.0  0.66188  0.95028  0.01180  1.0000 0.0811865918
C   C44       1.0  0.93848  0.65008  0.98820  1.0000 0.0811865918
C   C45       1.0  0.04972  0.33812  0.98820  1.0000 0.0811865918
C   C46       1.0  0.34992  0.06152  0.01180  1.0000 0.0811865918
C   C47       1.0  0.81152  0.29972  0.21160  1.0000 0.0811865918
C   C48       1.0  0.08812  0.59992  0.78840  1.0000 0.0811865918
C   C49       1.0  0.15219  0.96706  0.94373  1.0000 -0.0731988506
C   C50       1.0  0.02333  0.20846  0.05627  1.0000 -0.0731988506
C   C51       1.0  0.71706  0.27333  0.31487  1.0000 -0.0731988506
C   C52       1.0  0.95846  0.40219  0.68513  1.0000 -0.0731988506
C   C53       1.0  0.72667  0.28294  0.68513  1.0000 -0.0731988506
C   C54       1.0  0.59781  0.04154  0.31487  1.0000 -0.0731988506
C   C55       1.0  0.79154  0.97667  0.94373  1.0000 -0.0731988506
C   C56       1.0  0.03294  0.84781  0.05627  1.0000 -0.0731988506
C   C57       1.0  0.23623  0.00065  0.08658  1.0000 -0.1543819284
C   C58       1.0  0.91407  0.14965  0.91342  1.0000 -0.1543819284
C   C59       1.0  0.75065  0.16407  0.26442  1.0000 -0.1595528847
C   C60       1.0  0.89965  0.48623  0.73558  1.0000 -0.1595528847
C   C61       1.0  0.83593  0.24935  0.73558  1.0000 -0.1595528847
C   C62       1.0  0.51377  0.10035  0.26442  1.0000 -0.1543819284
C   C63       1.0  0.85035  0.08593  0.08658  1.0000 -0.1543819284
C   C64       1.0  0.99935  0.76377  0.91342  1.0000 -0.1543819284
C   C65       1.0  0.16759  0.06701  0.00990  1.0000 0.5757345383
C   C66       1.0  0.05711  0.15769  0.99010  1.0000 0.5757345383
C   C67       1.0  0.81701  0.30711  0.39942  1.0000 0.5717451179
C   C68       1.0  0.90769  0.41759  0.60058  1.0000 0.5757345383
C   C69       1.0  0.69289  0.18299  0.60058  1.0000 0.5717451179
C   C70       1.0  0.58241  0.09231  0.39942  1.0000 0.5757345383
C   C71       1.0  0.84231  0.94289  0.00990  1.0000 0.5757345383
C   C72       1.0  0.93299  0.83241  0.99010  1.0000 0.5757345383
C   C73       1.0  0.18077  0.02237  0.01060  1.0000 -0.0295817162
C   C74       1.0  0.01177  0.17017  0.98940  1.0000 -0.0295817162
C   C75       1.0  0.77237  0.26177  0.34160  1.0000 -0.0295817162
C   C76       1.0  0.92017  0.43077  0.65840  1.0000 -0.0295817162
C   C77       1.0  0.73823  0.22763  0.65840  1.0000 -0.0295817162
C   C78       1.0  0.56923  0.07983  0.34160  1.0000 -0.0295817162
C   C79       1.0  0.82983  0.98823  0.01060  1.0000 -0.0295817162
C   C80       1.0  0.97763  0.81923  0.98940  1.0000 -0.0295817162
C   C81       1.0  0.49593  0.93492  0.28821  1.0000 -0.0805159215
C   C82       1.0  0.64671  0.20772  0.71179  1.0000 -0.0805159215
C   C83       1.0  0.68492  0.89671  0.93899  1.0000 -0.0805159215
C   C84       1.0  0.95772  0.74593  0.06101  1.0000 -0.0805159215
C   C85       1.0  0.10329  0.31508  0.06101  1.0000 -0.0805159215
C   C86       1.0  0.25407  0.04228  0.93899  1.0000 -0.0805159215
C   C87       1.0  0.79228  0.35329  0.28821  1.0000 -0.0805159215
C   C88       1.0  0.06508  0.50407  0.71179  1.0000 -0.0805159215
C   C89       1.0  0.16488  0.92502  0.94594  1.0000 -0.1686083672
C   C90       1.0  0.97908  0.21894  0.05406  1.0000 -0.1686083672
C   C91       1.0  0.67502  0.22908  0.26014  1.0000 -0.1595528847
C   C92       1.0  0.96894  0.41488  0.73986  1.0000 -0.1595528847
C   C93       1.0  0.77092  0.32498  0.73986  1.0000 -0.1595528847
C   C94       1.0  0.58512  0.03106  0.26014  1.0000 -0.1686083672
C   C95       1.0  0.78106  0.02092  0.94594  1.0000 -0.1686083672
C   C96       1.0  0.07498  0.83512  0.05406  1.0000 -0.1686083672
C   C97       1.0  0.29488  0.86227  0.08559  1.0000 0.0291689299
C   C98       1.0  0.77668  0.20929  0.91441  1.0000 0.0291689299
C   C99       1.0  0.61227  0.02668  0.06739  1.0000 0.0291689299
C   C100      1.0  0.95929  0.54488  0.93261  1.0000 0.0291689299
C   C101      1.0  0.97332  0.38773  0.93261  1.0000 0.0291689299
C   C102      1.0  0.45512  0.04071  0.06739  1.0000 0.0291689299
C   C103      1.0  0.79071  0.22332  0.08559  1.0000 0.0291689299
C   C104      1.0  0.13773  0.70512  0.91441  1.0000 0.0291689299
C   C105      1.0  0.39385  0.96642  0.25503  1.0000 -0.1380107369
C   C106      1.0  0.71139  0.13882  0.74497  1.0000 -0.1380107369
C   C107      1.0  0.71642  0.96139  0.07257  1.0000 -0.1380107369
C   C108      1.0  0.88882  0.64385  0.92743  1.0000 -0.1380107369
C   C109      1.0  0.03861  0.28358  0.92743  1.0000 -0.1380107369
C   C110      1.0  0.35615  0.11118  0.07257  1.0000 -0.1380107369
C   C111      1.0  0.86118  0.28861  0.25503  1.0000 -0.1380107369
C   C112      1.0  0.03358  0.60615  0.74497  1.0000 -0.1380107369
C   C113      1.0  0.22261  0.03827  0.08126  1.0000 -0.0805159215
C   C114      1.0  0.95701  0.14135  0.91874  1.0000 -0.0805159215
C   C115      1.0  0.78827  0.20701  0.31566  1.0000 -0.0805159215
C   C116      1.0  0.89135  0.47261  0.68434  1.0000 -0.0805159215
C   C117      1.0  0.79299  0.21173  0.68434  1.0000 -0.0805159215
C   C118      1.0  0.52739  0.10865  0.31566  1.0000 -0.0805159215
C   C119      1.0  0.85865  0.04299  0.08126  1.0000 -0.0805159215
C   C120      1.0  0.96173  0.77739  0.91874  1.0000 -0.0805159215
C   C121      1.0  0.36740  0.82450  0.14330  1.0000 -0.1686083672
C   C122      1.0  0.68120  0.22410  0.85670  1.0000 -0.1686083672
C   C123      1.0  0.57450  0.93120  0.95710  1.0000 -0.1686083672
C   C124      1.0  0.97410  0.61740  0.04290  1.0000 -0.1686083672
C   C125      1.0  0.06880  0.42550  0.04290  1.0000 -0.1686083672
C   C126      1.0  0.38260  0.02590  0.95710  1.0000 -0.1686083672
C   C127      1.0  0.77590  0.31880  0.14330  1.0000 -0.1686083672
C   C128      1.0  0.17550  0.63260  0.85670  1.0000 -0.1686083672
C   C129      1.0  0.35422  0.86532  0.14490  1.0000 0.0291689299
C   C130      1.0  0.72042  0.20932  0.85510  1.0000 0.0291689299
C   C131      1.0  0.61532  0.97042  0.01110  1.0000 0.0291689299
C   C132      1.0  0.95932  0.60422  0.98890  1.0000 0.0291689299
C   C133      1.0  0.02958  0.38468  0.98890  1.0000 0.0291689299
C   C134      1.0  0.39578  0.04068  0.01110  1.0000 0.0291689299
C   C135      1.0  0.79068  0.27958  0.14490  1.0000 0.0291689299
C   C136      1.0  0.13468  0.64578  0.85510  1.0000 0.0291689299
C   C137      1.0  0.25103  0.82043  0.02860  1.0000 0.0291689299
C   C138      1.0  0.79183  0.22243  0.97140  1.0000 0.0291689299
C   C139      1.0  0.57043  0.04183  0.06940  1.0000 0.0291689299
C   C140      1.0  0.97243  0.50103  0.93060  1.0000 0.0291689299
C   C141      1.0  0.95817  0.42957  0.93060  1.0000 0.0291689299
C   C142      1.0  0.49897  0.02757  0.06940  1.0000 0.0291689299
C   C143      1.0  0.77757  0.20817  0.02860  1.0000 0.0291689299
C   C144      1.0  0.17957  0.74897  0.97140  1.0000 0.0291689299
C   C145      1.0  0.20795  0.94555  0.01960  1.0000 0.0811865918
C   C146      1.0  0.92595  0.18835  0.98040  1.0000 0.0811865918
C   C147      1.0  0.69555  0.17595  0.23760  1.0000 0.0811865918
C   C148      1.0  0.93835  0.45795  0.76240  1.0000 0.0811865918
C   C149      1.0  0.82405  0.30445  0.76240  1.0000 0.0811865918
C   C150      1.0  0.54205  0.06165  0.23760  1.0000 0.0811865918
C   C151      1.0  0.81165  0.07405  0.01960  1.0000 0.0811865918
C   C152      1.0  0.05445  0.79205  0.98040  1.0000 0.0811865918
C   C153      1.0  0.19286  0.82457  0.97251  1.0000 -0.1234940609
C   C154      1.0  0.85206  0.22035  0.02749  1.0000 -0.1234940609
C   C155      1.0  0.57457  0.10206  0.13171  1.0000 -0.1234940609
C   C156      1.0  0.97035  0.44286  0.86829  1.0000 -0.1254934048
C   C157      1.0  0.89794  0.42543  0.86829  1.0000 -0.1254934048
C   C158      1.0  0.55714  0.02965  0.13171  1.0000 -0.1234940609
C   C159      1.0  0.77965  0.14794  0.97251  1.0000 -0.1234940609
C   C160      1.0  0.17543  0.80714  0.02749  1.0000 -0.1254934048
C   C161      1.0  0.17823  0.86318  0.96779  1.0000 -0.1686083672
C   C162      1.0  0.89539  0.21044  0.03221  1.0000 -0.1686083672
C   C163      1.0  0.61318  0.14539  0.18495  1.0000 -0.1686083672
C   C164      1.0  0.96044  0.42823  0.81505  1.0000 -0.1686083672
C   C165      1.0  0.85461  0.38682  0.81505  1.0000 -0.1686083672
C   C166      1.0  0.57177  0.03956  0.18495  1.0000 -0.1686083672
C   C167      1.0  0.78956  0.10461  0.96779  1.0000 -0.1686083672
C   C168      1.0  0.13682  0.82177  0.03221  1.0000 -0.1686083672
C   C169      1.0  0.22514  0.90461  0.02627  1.0000 0.0961882412
C   C170      1.0  0.87834  0.19887  0.97373  1.0000 0.0961882412
C   C171      1.0  0.65461  0.12834  0.17947  1.0000 0.0961882412
C   C172      1.0  0.94887  0.47514  0.82053  1.0000 0.0961882412
C   C173      1.0  0.87166  0.34539  0.82053  1.0000 0.0948931897
C   C174      1.0  0.52486  0.05113  0.17947  1.0000 0.0961882412
C   C175      1.0  0.80113  0.12166  0.02627  1.0000 0.0961882412
C   C176      1.0  0.09539  0.77486  0.97373  1.0000 0.0961882412
C   C177      1.0  0.28037  0.90241  0.08264  1.0000 -0.2035252875
C   C178      1.0  0.81977  0.19773  0.91736  1.0000 -0.2035252875
C   C179      1.0  0.65241  0.06977  0.12204  1.0000 -0.2035252875
C   C180      1.0  0.94773  0.53037  0.87796  1.0000 -0.2035252875
C   C181      1.0  0.93023  0.34759  0.87796  1.0000 -0.2035252875
C   C182      1.0  0.46963  0.05227  0.12204  1.0000 -0.2035252875
C   C183      1.0  0.80227  0.18023  0.08264  1.0000 -0.2035252875
C   C184      1.0  0.09759  0.71963  0.91736  1.0000 -0.2035252875
C   C185      1.0  0.32376  0.77806  0.08190  1.0000 0.2892817283
C   C186      1.0  0.69616  0.24186  0.91810  1.0000 0.2892817283
C   C187      1.0  0.52806  0.94616  0.95430  1.0000 0.2892817283
C   C188      1.0  0.99186  0.57376  0.04570  1.0000 0.2892817283
C   C189      1.0  0.05384  0.47194  0.04570  1.0000 0.2892817283
C   C190      1.0  0.42624  0.00814  0.95430  1.0000 0.2892817283
C   C191      1.0  0.75814  0.30384  0.08190  1.0000 0.2892817283
C   C192      1.0  0.22194  0.67624  0.91810  1.0000 0.2892817283
O   O1        1.0  0.52380  0.08889  0.42685  1.0000 -0.5456008291
O   O2        1.0  0.66204  0.09695  0.57315  1.0000 -0.5456008291
O   O3        1.0  0.83889  0.91204  0.06509  1.0000 -0.5443482772
O   O4        1.0  0.84695  0.77380  0.93491  1.0000 -0.5443482772
O   O5        1.0  0.08796  0.16111  0.93491  1.0000 -0.5443482772
O   O6        1.0  0.22620  0.15305  0.06509  1.0000 -0.5443482772
O   O7        1.0  0.90305  0.33796  0.42685  1.0000 -0.5443482772
O   O8        1.0  0.91111  0.47620  0.57315  1.0000 -0.5443482772
O   O9        1.0  0.58416  0.02032  0.41350  1.0000 -0.4534448758
O   O10       1.0  0.60682  0.17066  0.58650  1.0000 -0.4534448758
O   O11       1.0  0.77032  0.85682  0.93616  1.0000 -0.4558364069
O   O12       1.0  0.92066  0.83416  0.06384  1.0000 -0.4558364069
O   O13       1.0  0.14318  0.22968  0.06384  1.0000 -0.4534448758
O   O14       1.0  0.16584  0.07934  0.93616  1.0000 -0.4558364069
O   O15       1.0  0.82934  0.39318  0.41350  1.0000 -0.4558364069
O   O16       1.0  0.97968  0.41584  0.58650  1.0000 -0.4558364069
O   O17       1.0  0.19340  0.11587  0.07129  1.0000 -0.4931771284
O   O18       1.0  0.04458  0.12211  0.92871  1.0000 -0.4931771284
O   O19       1.0  0.86587  0.29458  0.42247  1.0000 -0.4931771284
O   O20       1.0  0.87211  0.44340  0.57753  1.0000 -0.4931771284
O   O21       1.0  0.70542  0.13413  0.57753  1.0000 -0.4931771284
O   O22       1.0  0.55660  0.12789  0.42247  1.0000 -0.4931771284
O   O23       1.0  0.87789  0.95542  0.07129  1.0000 -0.4931771284
O   O24       1.0  0.88413  0.80660  0.92871  1.0000 -0.4931771284
O   O25       1.0  0.12677  0.04732  0.94149  1.0000 -0.5255324816
O   O26       1.0  0.10583  0.18528  0.05851  1.0000 -0.5255324816
O   O27       1.0  0.79732  0.35583  0.42055  1.0000 -0.5255324816
O   O28       1.0  0.93528  0.37677  0.57945  1.0000 -0.5255324816
O   O29       1.0  0.64417  0.20268  0.57945  1.0000 -0.5255324816
O   O30       1.0  0.62323  0.06472  0.42055  1.0000 -0.5255324816
O   O31       1.0  0.81472  0.89417  0.94149  1.0000 -0.5247917747
O   O32       1.0  0.95268  0.87323  0.05851  1.0000 -0.5255324816
O   O33       1.0  0.34010  0.73098  0.07712  1.0000 -0.4697140059
O   O34       1.0  0.65386  0.26298  0.92288  1.0000 -0.4697140059
O   O35       1.0  0.48098  0.90386  0.89088  1.0000 -0.4697140059
O   O36       1.0  0.01298  0.59010  0.10912  1.0000 -0.4697140059
O   O37       1.0  0.09614  0.51902  0.10912  1.0000 -0.4697140059
O   O38       1.0  0.40990  0.98702  0.89088  1.0000 -0.4697140059
O   O39       1.0  0.73702  0.34614  0.07712  1.0000 -0.4697140059
O   O40       1.0  0.26902  0.65990  0.92288  1.0000 -0.4697140059
O   O41       1.0  0.33363  0.62137  0.99178  1.0000 -0.6421616128
O   O42       1.0  0.62959  0.34185  0.00822  1.0000 -0.6421616128
O   O43       1.0  0.37137  0.87959  0.78774  1.0000 -0.6421616128
O   O44       1.0  0.09185  0.58363  0.21226  1.0000 -0.6421616128
O   O45       1.0  0.12041  0.62863  0.21226  1.0000 -0.6421616128
O   O46       1.0  0.41637  0.90815  0.78774  1.0000 -0.6421616128
O   O47       1.0  0.65815  0.37041  0.99178  1.0000 -0.6421616128
O   O48       1.0  0.37863  0.66637  0.00822  1.0000 -0.6421616128
