# DDEC6 charges by PACMAN v1.1 (https://github.com/mtap-research/PACMAN-charge/)
data_2012[Tm][mog]3[ASR]2
_chemical_formula_sum              "Tm6 H12 C40 N4 O44"
_cell_length_a       14.0035
_cell_length_b       14.0035
_cell_length_c       9.7104
_cell_angle_alpha    76.5164
_cell_angle_beta     103.484
_cell_angle_gamma    84.3619

_symmetry_space_group_name_H-M    "P 1"
_symmetry_Int_Tables_number       1

loop_
  _symmetry_equiv_pos_as_xyz
  'x, y, z'

loop_
  _atom_site_type_symbol
  _atom_site_label
  _atom_site_symmetry_multiplicity
  _atom_site_fract_x
  _atom_site_fract_y
  _atom_site_fract_z
  _atom_site_occupancy
  _atom_site_charge
Tm  Tm1       1.0  0.62477  0.20199  0.65837  1.0000 2.0190304914
Tm  Tm2       1.0  0.20199  0.62477  0.84163  1.0000 2.0190304914
Tm  Tm3       1.0  0.37523  0.79801  0.34163  1.0000 2.0190304914
Tm  Tm4       1.0  0.79801  0.37523  0.15837  1.0000 2.0190304914
Tm  Tm5       1.0  0.78438  0.78438  0.75000  1.0000 2.0376478829
Tm  Tm6       1.0  0.21562  0.21562  0.25000  1.0000 2.0376478829
H   H1        1.0  0.59450  0.02950  0.31640  1.0000 0.1460833759
H   H2        1.0  0.02950  0.59450  0.18360  1.0000 0.1460833759
H   H3        1.0  0.40550  0.97050  0.68360  1.0000 0.1460833759
H   H4        1.0  0.97050  0.40550  0.81640  1.0000 0.1460833759
H   H5        1.0  0.68600  0.88240  0.33740  1.0000 0.1460833759
H   H6        1.0  0.88240  0.68600  0.16260  1.0000 0.1460833759
H   H7        1.0  0.31400  0.11760  0.66260  1.0000 0.1460833759
H   H8        1.0  0.11760  0.31400  0.83740  1.0000 0.1460833759
H   H9        1.0  0.74370  0.86070  0.13700  1.0000 0.1406988003
H   H10       1.0  0.86070  0.74370  0.36300  1.0000 0.1406988003
H   H11       1.0  0.25630  0.13930  0.86300  1.0000 0.1406988003
H   H12       1.0  0.13930  0.25630  0.63700  1.0000 0.1406988003
C   C1        1.0  0.61120  0.07940  0.98330  1.0000 0.5093646194
C   C2        1.0  0.07940  0.61120  0.51670  1.0000 0.5045864978
C   C3        1.0  0.38880  0.92060  0.01670  1.0000 0.5093646194
C   C4        1.0  0.92060  0.38880  0.48330  1.0000 0.5093646194
C   C5        1.0  0.61310  0.01790  0.23510  1.0000 0.1191762262
C   C6        1.0  0.01790  0.61310  0.26490  1.0000 0.1191762262
C   C7        1.0  0.38690  0.98210  0.76490  1.0000 0.1191762262
C   C8        1.0  0.98210  0.38690  0.73510  1.0000 0.1191762262
C   C9        1.0  0.66910  0.93230  0.24960  1.0000 -0.152488587
C   C10       1.0  0.93230  0.66910  0.25040  1.0000 -0.152488587
C   C11       1.0  0.33090  0.06770  0.75040  1.0000 -0.152488587
C   C12       1.0  0.06770  0.33090  0.74960  1.0000 -0.152488587
C   C13       1.0  0.70200  0.91900  0.12810  1.0000 -0.0023493874
C   C14       1.0  0.91900  0.70200  0.37190  1.0000 -0.0023493874
C   C15       1.0  0.29800  0.08100  0.87190  1.0000 -0.0023493874
C   C16       1.0  0.08100  0.29800  0.62810  1.0000 -0.0023493874
C   C17       1.0  0.67380  0.99040  0.99740  1.0000 -0.185069432
C   C18       1.0  0.99040  0.67380  0.50260  1.0000 -0.1841262034
C   C19       1.0  0.32620  0.00960  0.00260  1.0000 -0.1841262034
C   C20       1.0  0.00960  0.32620  0.49740  1.0000 -0.185069432
C   C21       1.0  0.71080  0.97340  0.87100  1.0000 0.7055500247
C   C22       1.0  0.97340  0.71080  0.62900  1.0000 0.7055500247
C   C23       1.0  0.28920  0.02660  0.12900  1.0000 0.7055500247
C   C24       1.0  0.02660  0.28920  0.37100  1.0000 0.7055500247
C   C25       1.0  0.60170  0.75390  0.51130  1.0000 0.5093646194
C   C26       1.0  0.75390  0.60170  0.98870  1.0000 0.5093646194
C   C27       1.0  0.39830  0.24610  0.48870  1.0000 0.5093646194
C   C28       1.0  0.24610  0.39830  0.01130  1.0000 0.5093646194
C   C29       1.0  0.55550  0.83030  0.57870  1.0000 0.5093646194
C   C30       1.0  0.83030  0.55550  0.92130  1.0000 0.5093646194
C   C31       1.0  0.44450  0.16970  0.42130  1.0000 0.5093646194
C   C32       1.0  0.16970  0.44450  0.07870  1.0000 0.5093646194
C   C33       1.0  0.74040  0.23420  0.41140  1.0000 0.5093646194
C   C34       1.0  0.23420  0.74040  0.08860  1.0000 0.5093646194
C   C35       1.0  0.25960  0.76580  0.58860  1.0000 0.5093646194
C   C36       1.0  0.76580  0.25960  0.91140  1.0000 0.5093646194
C   C37       1.0  0.65700  0.32740  0.36110  1.0000 0.5093646194
C   C38       1.0  0.32740  0.65700  0.13890  1.0000 0.5093646194
C   C39       1.0  0.34300  0.67260  0.63890  1.0000 0.5093646194
C   C40       1.0  0.67260  0.34300  0.86110  1.0000 0.5093646194
N   N1        1.0  0.58260  0.08860  0.10720  1.0000 -0.2739771656
N   N2        1.0  0.08860  0.58260  0.39280  1.0000 -0.2739771656
N   N3        1.0  0.41740  0.91140  0.89280  1.0000 -0.2739771656
N   N4        1.0  0.91140  0.41740  0.60720  1.0000 -0.2739771656
O   O1        1.0  0.68790  0.03870  0.74920  1.0000 -0.6178185842
O   O2        1.0  0.03870  0.68790  0.75080  1.0000 -0.6178185842
O   O3        1.0  0.31210  0.96130  0.25080  1.0000 -0.6178185842
O   O4        1.0  0.96130  0.31210  0.24920  1.0000 -0.6178185842
O   O5        1.0  0.76430  0.89010  0.89260  1.0000 -0.6591427824
O   O6        1.0  0.89010  0.76430  0.60740  1.0000 -0.6591427824
O   O7        1.0  0.23570  0.10990  0.10740  1.0000 -0.6591427824
O   O8        1.0  0.10990  0.23570  0.39260  1.0000 -0.6591427824
O   O9        1.0  0.57840  0.15260  0.87110  1.0000 -0.5843733153
O   O10       1.0  0.15260  0.57840  0.62890  1.0000 -0.5843733153
O   O11       1.0  0.42160  0.84740  0.12890  1.0000 -0.5843733153
O   O12       1.0  0.84740  0.42160  0.37110  1.0000 -0.5843733153
O   O13       1.0  0.46420  0.86420  0.52190  1.0000 -0.5715163401
O   O14       1.0  0.86420  0.46420  0.97810  1.0000 -0.5715163401
O   O15       1.0  0.53580  0.13580  0.47810  1.0000 -0.5715163401
O   O16       1.0  0.13580  0.53580  0.02190  1.0000 -0.5715163401
O   O17       1.0  0.54480  0.73060  0.40790  1.0000 -0.532596705
O   O18       1.0  0.73060  0.54480  0.09210  1.0000 -0.532596705
O   O19       1.0  0.45520  0.26940  0.59210  1.0000 -0.532596705
O   O20       1.0  0.26940  0.45520  0.90790  1.0000 -0.532596705
O   O21       1.0  0.69300  0.72260  0.56450  1.0000 -0.5894627772
O   O22       1.0  0.72260  0.69300  0.93550  1.0000 -0.5894627772
O   O23       1.0  0.30700  0.27740  0.43550  1.0000 -0.5894627772
O   O24       1.0  0.27740  0.30700  0.06450  1.0000 -0.5894627772
O   O25       1.0  0.61140  0.85000  0.68400  1.0000 -0.5423248834
O   O26       1.0  0.85000  0.61140  0.81600  1.0000 -0.5423248834
O   O27       1.0  0.38860  0.15000  0.31600  1.0000 -0.5423248834
O   O28       1.0  0.15000  0.38860  0.18400  1.0000 -0.5423248834
O   O29       1.0  0.60240  0.33440  0.44290  1.0000 -0.532596705
O   O30       1.0  0.33440  0.60240  0.05710  1.0000 -0.532596705
O   O31       1.0  0.39760  0.66560  0.55710  1.0000 -0.532596705
O   O32       1.0  0.66560  0.39760  0.94290  1.0000 -0.532596705
O   O33       1.0  0.74470  0.17530  0.53390  1.0000 -0.5460542641
O   O34       1.0  0.17530  0.74470  0.96610  1.0000 -0.5460542641
O   O35       1.0  0.25530  0.82470  0.46610  1.0000 -0.5460542641
O   O36       1.0  0.82470  0.25530  0.03390  1.0000 -0.5460542641
O   O37       1.0  0.65230  0.38590  0.24100  1.0000 -0.5094506047
O   O38       1.0  0.38590  0.65230  0.25900  1.0000 -0.5094506047
O   O39       1.0  0.34770  0.61410  0.75900  1.0000 -0.5094506047
O   O40       1.0  0.61410  0.34770  0.74100  1.0000 -0.5094506047
O   O41       1.0  0.79500  0.22620  0.33060  1.0000 -0.5423248834
O   O42       1.0  0.22620  0.79500  0.16940  1.0000 -0.5423248834
O   O43       1.0  0.20500  0.77380  0.66940  1.0000 -0.5423248834
O   O44       1.0  0.77380  0.20500  0.83060  1.0000 -0.5423248834
