# DDEC6 charges by PACMAN v1.1 (https://github.com/mtap-research/PACMAN-charge/)
data_2012[Cu][unc]3[ASR]2
_chemical_formula_sum              "Cu4 H32 C24 N32 O4"
_cell_length_a       12.355
_cell_length_b       12.355
_cell_length_c       7.9025
_cell_angle_alpha    90
_cell_angle_beta     90
_cell_angle_gamma    90

_symmetry_space_group_name_H-M    "P 1"
_symmetry_Int_Tables_number       1

loop_
  _symmetry_equiv_pos_as_xyz
  'x, y, z'

loop_
  _atom_site_type_symbol
  _atom_site_label
  _atom_site_symmetry_multiplicity
  _atom_site_fract_x
  _atom_site_fract_y
  _atom_site_fract_z
  _atom_site_occupancy
  _atom_site_charge
Cu  Cu1       1.0  0.98475  0.67682  0.03352  1.0000 0.6268028618
Cu  Cu2       1.0  0.67682  0.01525  0.78352  1.0000 0.6268028618
Cu  Cu3       1.0  0.01525  0.32318  0.53352  1.0000 0.6268028618
Cu  Cu4       1.0  0.32318  0.98475  0.28352  1.0000 0.6268028618
H   H1        1.0  0.89330  0.90190  0.18190  1.0000 0.1504090802
H   H2        1.0  0.90190  0.10670  0.93190  1.0000 0.1504090802
H   H3        1.0  0.10670  0.09810  0.68190  1.0000 0.1504090802
H   H4        1.0  0.09810  0.89330  0.43190  1.0000 0.1504090802
H   H5        1.0  0.77600  0.94460  0.14720  1.0000 0.1504090802
H   H6        1.0  0.94460  0.22400  0.89720  1.0000 0.1504090802
H   H7        1.0  0.22400  0.05540  0.64720  1.0000 0.1504090802
H   H8        1.0  0.05540  0.77600  0.39720  1.0000 0.1504090802
H   H9        1.0  0.70600  0.77190  0.20160  1.0000 0.1031703167
H   H10       1.0  0.77190  0.29400  0.95160  1.0000 0.1031703167
H   H11       1.0  0.29400  0.22810  0.70160  1.0000 0.1031703167
H   H12       1.0  0.22810  0.70600  0.45160  1.0000 0.1031703167
H   H13       1.0  0.76980  0.81540  0.35960  1.0000 0.1078589038
H   H14       1.0  0.81540  0.23020  0.10960  1.0000 0.1078589038
H   H15       1.0  0.23020  0.18460  0.85960  1.0000 0.1078589038
H   H16       1.0  0.18460  0.76980  0.60960  1.0000 0.1078589038
H   H17       1.0  0.84160  0.63470  0.46590  1.0000 0.1078589038
H   H18       1.0  0.63470  0.15840  0.21590  1.0000 0.1078589038
H   H19       1.0  0.15840  0.36530  0.96590  1.0000 0.1078589038
H   H20       1.0  0.36530  0.84160  0.71590  1.0000 0.1078589038
H   H21       1.0  0.73920  0.60880  0.35500  1.0000 0.1031703167
H   H22       1.0  0.60880  0.26080  0.10500  1.0000 0.1031703167
H   H23       1.0  0.26080  0.39120  0.85500  1.0000 0.1031703167
H   H24       1.0  0.39120  0.73920  0.60500  1.0000 0.1031703167
H   H25       1.0  0.84120  0.49050  0.18930  1.0000 0.1504090802
H   H26       1.0  0.49050  0.15880  0.93930  1.0000 0.1504090802
H   H27       1.0  0.15880  0.50950  0.68930  1.0000 0.1504090802
H   H28       1.0  0.50950  0.84120  0.43930  1.0000 0.1504090802
H   H29       1.0  0.84300  0.45350  0.37890  1.0000 0.1504090802
H   H30       1.0  0.45350  0.15700  0.12890  1.0000 0.1504090802
H   H31       1.0  0.15700  0.54650  0.87890  1.0000 0.1504090802
H   H32       1.0  0.54650  0.84300  0.62890  1.0000 0.1504090802
C   C1        1.0  0.83500  0.85420  0.95410  1.0000 0.3316363693
C   C2        1.0  0.85420  0.16500  0.70410  1.0000 0.3316363693
C   C3        1.0  0.16500  0.14580  0.45410  1.0000 0.3316363693
C   C4        1.0  0.14580  0.83500  0.20410  1.0000 0.3316363693
C   C5        1.0  0.82290  0.88200  0.13720  1.0000 -0.3206724747
C   C6        1.0  0.88200  0.17710  0.88720  1.0000 -0.3206724747
C   C7        1.0  0.17710  0.11800  0.63720  1.0000 -0.3206724747
C   C8        1.0  0.11800  0.82290  0.38720  1.0000 -0.3206724747
C   C9        1.0  0.77710  0.79170  0.24320  1.0000 0.0009244566
C   C10       1.0  0.79170  0.22290  0.99320  1.0000 0.0009244566
C   C11       1.0  0.22290  0.20830  0.74320  1.0000 0.0009244566
C   C12       1.0  0.20830  0.77710  0.49320  1.0000 0.0009244566
C   C13       1.0  0.81750  0.61550  0.35300  1.0000 0.0125483164
C   C14       1.0  0.61550  0.18250  0.10300  1.0000 0.0125483164
C   C15       1.0  0.18250  0.38450  0.85300  1.0000 0.0125483164
C   C16       1.0  0.38450  0.81750  0.60300  1.0000 0.0125483164
C   C17       1.0  0.86720  0.50930  0.30130  1.0000 -0.3206724747
C   C18       1.0  0.50930  0.13280  0.05130  1.0000 -0.3206724747
C   C19       1.0  0.13280  0.49070  0.80130  1.0000 -0.3206724747
C   C20       1.0  0.49070  0.86720  0.55130  1.0000 -0.3206724747
C   C21       1.0  0.98770  0.51070  0.29910  1.0000 0.315336451
C   C22       1.0  0.51070  0.01230  0.04910  1.0000 0.315336451
C   C23       1.0  0.01230  0.48930  0.79910  1.0000 0.315336451
C   C24       1.0  0.48930  0.98770  0.54910  1.0000 0.315336451
N   N1        1.0  0.89930  0.77460  0.89630  1.0000 -0.2534770108
N   N2        1.0  0.77460  0.10070  0.64630  1.0000 -0.2534770108
N   N3        1.0  0.10070  0.22540  0.39630  1.0000 -0.2534770108
N   N4        1.0  0.22540  0.89930  0.14630  1.0000 -0.2534770108
N   N5        1.0  0.89190  0.77500  0.72490  1.0000 -0.0871791951
N   N6        1.0  0.77500  0.10810  0.47490  1.0000 -0.0871791951
N   N7        1.0  0.10810  0.22500  0.22490  1.0000 -0.0871791951
N   N8        1.0  0.22500  0.89190  0.97490  1.0000 -0.0871791951
N   N9        1.0  0.82740  0.85400  0.67980  1.0000 -0.1049014627
N   N10       1.0  0.85400  0.17260  0.42980  1.0000 -0.1049014627
N   N11       1.0  0.17260  0.14600  0.17980  1.0000 -0.1049014627
N   N12       1.0  0.14600  0.82740  0.92980  1.0000 -0.1055352016
N   N13       1.0  0.78960  0.90480  0.82250  1.0000 -0.2756178229
N   N14       1.0  0.90480  0.21040  0.57250  1.0000 -0.2756178229
N   N15       1.0  0.21040  0.09520  0.32250  1.0000 -0.2756178229
N   N16       1.0  0.09520  0.78960  0.07250  1.0000 -0.2756178229
N   N17       1.0  0.04570  0.57780  0.20260  1.0000 -0.2710246443
N   N18       1.0  0.57780  0.95430  0.95260  1.0000 -0.2710246443
N   N19       1.0  0.95430  0.42220  0.70260  1.0000 -0.2710246443
N   N20       1.0  0.42220  0.04570  0.45260  1.0000 -0.2710246443
N   N21       1.0  0.15090  0.55600  0.23340  1.0000 -0.072851777
N   N22       1.0  0.55600  0.84910  0.98340  1.0000 -0.072851777
N   N23       1.0  0.84910  0.44400  0.73340  1.0000 -0.072851777
N   N24       1.0  0.44400  0.15090  0.48340  1.0000 -0.072851777
N   N25       1.0  0.15680  0.47760  0.34220  1.0000 -0.079886265
N   N26       1.0  0.47760  0.84320  0.09220  1.0000 -0.079886265
N   N27       1.0  0.84320  0.52240  0.84220  1.0000 -0.079886265
N   N28       1.0  0.52240  0.15680  0.59220  1.0000 -0.079886265
N   N29       1.0  0.05350  0.44820  0.38600  1.0000 -0.2710246443
N   N30       1.0  0.44820  0.94650  0.13600  1.0000 -0.2710246443
N   N31       1.0  0.94650  0.55180  0.88600  1.0000 -0.2710246443
N   N32       1.0  0.55180  0.05350  0.63600  1.0000 -0.2710246443
O   O1        1.0  0.84870  0.69900  0.23500  1.0000 -0.2534770108
O   O2        1.0  0.69900  0.15130  0.98500  1.0000 -0.2534770108
O   O3        1.0  0.15130  0.30100  0.73500  1.0000 -0.2534770108
O   O4        1.0  0.30100  0.84870  0.48500  1.0000 -0.2534770108
