# DDEC6 charges by PACMAN v1.1 (https://github.com/mtap-research/PACMAN-charge/)
data_2012[Mn][nan]3[ASR]6
_chemical_formula_sum              "Mn12 H72 C136 O40 F48"
_cell_length_a       7.277
_cell_length_b       31.837
_cell_length_c       16.434
_cell_angle_alpha    90
_cell_angle_beta     99.98
_cell_angle_gamma    90

_symmetry_space_group_name_H-M    "P 1"
_symmetry_Int_Tables_number       1

loop_
  _symmetry_equiv_pos_as_xyz
  'x, y, z'

loop_
  _atom_site_type_symbol
  _atom_site_label
  _atom_site_symmetry_multiplicity
  _atom_site_fract_x
  _atom_site_fract_y
  _atom_site_fract_z
  _atom_site_occupancy
  _atom_site_charge
Mn  Mn1       1.0  0.74764  0.07068  0.60147  1.0000 1.0141098093
Mn  Mn2       1.0  0.25236  0.57068  0.89853  1.0000 1.0141098093
Mn  Mn3       1.0  0.25236  0.92932  0.39853  1.0000 1.0141098093
Mn  Mn4       1.0  0.74764  0.42932  0.10147  1.0000 1.0141098093
Mn  Mn5       1.0  0.72646  0.92635  0.37486  1.0000 1.0616411161
Mn  Mn6       1.0  0.27354  0.42635  0.12514  1.0000 1.0616411161
Mn  Mn7       1.0  0.27354  0.07365  0.62514  1.0000 1.0616411161
Mn  Mn8       1.0  0.72646  0.57365  0.87486  1.0000 1.0616411161
Mn  Mn9       1.0  0.00000  0.00000  0.50000  1.0000 1.0795834255
Mn  Mn10      1.0  0.00000  0.50000  0.00000  1.0000 1.0795834255
Mn  Mn11      1.0  0.50000  0.00000  0.50000  1.0000 1.0254553747
Mn  Mn12      1.0  0.50000  0.50000  0.00000  1.0000 1.024317522
H   H1        1.0  0.84970  0.99700  0.23220  1.0000 0.1284405966
H   H2        1.0  0.15030  0.49700  0.26780  1.0000 0.1284405966
H   H3        1.0  0.15030  0.00300  0.76780  1.0000 0.1284405966
H   H4        1.0  0.84970  0.50300  0.73220  1.0000 0.1284405966
H   H5        1.0  0.87820  0.28910  0.19900  1.0000 0.1284405966
H   H6        1.0  0.12180  0.78910  0.30100  1.0000 0.1284405966
H   H7        1.0  0.12180  0.71090  0.80100  1.0000 0.1284405966
H   H8        1.0  0.87820  0.21090  0.69900  1.0000 0.1284405966
H   H9        1.0  0.94190  0.03330  0.12490  1.0000 0.1198134853
H   H10       1.0  0.05810  0.53330  0.37510  1.0000 0.1198134853
H   H11       1.0  0.05810  0.96670  0.87510  1.0000 0.1198134853
H   H12       1.0  0.94190  0.46670  0.62490  1.0000 0.1198134853
H   H13       1.0  0.79440  0.14190  0.21850  1.0000 0.1198134853
H   H14       1.0  0.20560  0.64190  0.28150  1.0000 0.1198134853
H   H15       1.0  0.20560  0.85810  0.78150  1.0000 0.1198134853
H   H16       1.0  0.79440  0.35810  0.71850  1.0000 0.1198134853
H   H17       1.0  0.67280  0.10500  0.31880  1.0000 0.1198134853
H   H18       1.0  0.32720  0.60500  0.18120  1.0000 0.1198134853
H   H19       1.0  0.32720  0.89500  0.68120  1.0000 0.1198134853
H   H20       1.0  0.67280  0.39500  0.81880  1.0000 0.1198134853
H   H21       1.0  0.10520  0.09190  0.95260  1.0000 0.1144619551
H   H22       1.0  0.89480  0.59190  0.54740  1.0000 0.1144619551
H   H23       1.0  0.89480  0.90810  0.04740  1.0000 0.1144619551
H   H24       1.0  0.10520  0.40810  0.45260  1.0000 0.1144619551
H   H25       1.0  0.95500  0.06860  0.82510  1.0000 0.1198134853
H   H26       1.0  0.04500  0.56860  0.67490  1.0000 0.1198134853
H   H27       1.0  0.04500  0.93140  0.17490  1.0000 0.1198134853
H   H28       1.0  0.95500  0.43140  0.32510  1.0000 0.1198134853
H   H29       1.0  0.61710  0.09270  0.03450  1.0000 0.1144619551
H   H30       1.0  0.38290  0.59270  0.46550  1.0000 0.1144619551
H   H31       1.0  0.38290  0.90730  0.96550  1.0000 0.1144619551
H   H32       1.0  0.61710  0.40730  0.53450  1.0000 0.1144619551
H   H33       1.0  0.22600  0.09890  0.38970  1.0000 0.1284405966
H   H34       1.0  0.77400  0.59890  0.11030  1.0000 0.1284405966
H   H35       1.0  0.77400  0.90110  0.61030  1.0000 0.1284405966
H   H36       1.0  0.22600  0.40110  0.88970  1.0000 0.1284405966
H   H37       1.0  0.39800  0.15180  0.34240  1.0000 0.1198134853
H   H38       1.0  0.60200  0.65180  0.15760  1.0000 0.1198134853
H   H39       1.0  0.60200  0.84820  0.65760  1.0000 0.1198134853
H   H40       1.0  0.39800  0.34820  0.84240  1.0000 0.1198134853
H   H41       1.0  0.10410  0.23790  0.44480  1.0000 0.1198134853
H   H42       1.0  0.89590  0.73790  0.05520  1.0000 0.1198134853
H   H43       1.0  0.89590  0.76210  0.55520  1.0000 0.1198134853
H   H44       1.0  0.10410  0.26210  0.94480  1.0000 0.1198134853
H   H45       1.0  0.26030  0.37450  0.29720  1.0000 0.1198134853
H   H46       1.0  0.73970  0.87450  0.20280  1.0000 0.1198134853
H   H47       1.0  0.73970  0.62550  0.70280  1.0000 0.1198134853
H   H48       1.0  0.26030  0.12550  0.79720  1.0000 0.1198134853
H   H49       1.0  0.92600  0.18510  0.48810  1.0000 0.1284405966
H   H50       1.0  0.07400  0.68510  0.01190  1.0000 0.1284405966
H   H51       1.0  0.07400  0.81490  0.51190  1.0000 0.1284405966
H   H52       1.0  0.92600  0.31490  0.98810  1.0000 0.1284405966
H   H53       1.0  0.43600  0.32220  0.37040  1.0000 0.1198134853
H   H54       1.0  0.56400  0.82220  0.12960  1.0000 0.1198134853
H   H55       1.0  0.56400  0.67780  0.62960  1.0000 0.1198134853
H   H56       1.0  0.43600  0.17780  0.87040  1.0000 0.1198134853
H   H57       1.0  0.06230  0.23620  0.26820  1.0000 0.1144619551
H   H58       1.0  0.93770  0.73620  0.23180  1.0000 0.1144619551
H   H59       1.0  0.93770  0.76380  0.73180  1.0000 0.1144619551
H   H60       1.0  0.06230  0.26380  0.76820  1.0000 0.1144619551
H   H61       1.0  0.45900  0.07400  0.90400  1.0000 0.1198134853
H   H62       1.0  0.54100  0.57400  0.59600  1.0000 0.1198134853
H   H63       1.0  0.54100  0.92600  0.09600  1.0000 0.1198134853
H   H64       1.0  0.45900  0.42600  0.40400  1.0000 0.1198134853
H   H65       1.0  0.79000  0.99730  0.61300  1.0000 0.3882321384
H   H66       1.0  0.21000  0.49730  0.88700  1.0000 0.3882321384
H   H67       1.0  0.21000  0.00270  0.38700  1.0000 0.3882321384
H   H68       1.0  0.79000  0.50270  0.11300  1.0000 0.3882321384
H   H69       1.0  0.43900  0.07740  0.50400  1.0000 0.3753963601
H   H70       1.0  0.56100  0.57740  0.99600  1.0000 0.3753963601
H   H71       1.0  0.56100  0.92260  0.49600  1.0000 0.3753963601
H   H72       1.0  0.43900  0.42260  0.00400  1.0000 0.3753963601
C   C1        1.0  0.69370  0.02384  0.35670  1.0000 0.5913471323
C   C2        1.0  0.30630  0.52384  0.14330  1.0000 0.5913471323
C   C3        1.0  0.30630  0.97616  0.64330  1.0000 0.5913471323
C   C4        1.0  0.69370  0.47616  0.85670  1.0000 0.5913471323
C   C5        1.0  0.75100  0.04730  0.28640  1.0000 -0.0133179795
C   C6        1.0  0.24900  0.54730  0.21360  1.0000 -0.0133179795
C   C7        1.0  0.24900  0.95270  0.71360  1.0000 -0.0133179795
C   C8        1.0  0.75100  0.45270  0.78640  1.0000 -0.0133179795
C   C9        1.0  0.83420  0.02597  0.22840  1.0000 -0.092182385
C   C10       1.0  0.16580  0.52597  0.27160  1.0000 -0.092182385
C   C11       1.0  0.16580  0.97403  0.77160  1.0000 -0.092182385
C   C12       1.0  0.83420  0.47403  0.72840  1.0000 -0.092182385
C   C13       1.0  0.89360  0.04790  0.16540  1.0000 -0.1375321839
C   C14       1.0  0.10640  0.54790  0.33460  1.0000 -0.1375321839
C   C15       1.0  0.10640  0.95210  0.83460  1.0000 -0.1375321839
C   C16       1.0  0.89360  0.45210  0.66540  1.0000 -0.1375321839
C   C17       1.0  0.88250  0.09171  0.16130  1.0000 0.0807019318
C   C18       1.0  0.11750  0.59171  0.33870  1.0000 0.0807019318
C   C19       1.0  0.11750  0.90829  0.83870  1.0000 0.0807019318
C   C20       1.0  0.88250  0.40829  0.66130  1.0000 0.0807019318
C   C21       1.0  0.80190  0.11274  0.22000  1.0000 -0.1375321839
C   C22       1.0  0.19810  0.61274  0.28000  1.0000 -0.1375321839
C   C23       1.0  0.19810  0.88726  0.78000  1.0000 -0.1375321839
C   C24       1.0  0.80190  0.38726  0.72000  1.0000 -0.1375321839
C   C25       1.0  0.73200  0.09071  0.28130  1.0000 -0.1001997707
C   C26       1.0  0.26800  0.59071  0.21870  1.0000 -0.1001997707
C   C27       1.0  0.26800  0.90929  0.71870  1.0000 -0.1001997707
C   C28       1.0  0.73200  0.40929  0.78130  1.0000 -0.1001997707
C   C29       1.0  0.96580  0.11321  0.09200  1.0000 -0.2804995957
C   C30       1.0  0.03420  0.61321  0.40800  1.0000 -0.2804995957
C   C31       1.0  0.03420  0.88679  0.90800  1.0000 -0.2804995957
C   C32       1.0  0.96580  0.38679  0.59200  1.0000 -0.2804995957
C   C33       1.0  0.92900  0.16116  0.08670  1.0000 0.6672038825
C   C34       1.0  0.07100  0.66116  0.41330  1.0000 0.6672038825
C   C35       1.0  0.07100  0.83884  0.91330  1.0000 0.6672038825
C   C36       1.0  0.92900  0.33884  0.58670  1.0000 0.6672038825
C   C37       1.0  0.18090  0.10688  0.11180  1.0000 0.6672038825
C   C38       1.0  0.81910  0.60688  0.38820  1.0000 0.6646613669
C   C39       1.0  0.81910  0.89312  0.88820  1.0000 0.6672038825
C   C40       1.0  0.18090  0.39312  0.61180  1.0000 0.6672038825
C   C41       1.0  0.87800  0.09518  0.00670  1.0000 0.0807019318
C   C42       1.0  0.12200  0.59518  0.49330  1.0000 0.0807019318
C   C43       1.0  0.12200  0.90482  0.99330  1.0000 0.0807019318
C   C44       1.0  0.87800  0.40482  0.50670  1.0000 0.0807019318
C   C45       1.0  0.97670  0.08777  0.94350  1.0000 -0.1499696184
C   C46       1.0  0.02330  0.58777  0.55650  1.0000 -0.1499696184
C   C47       1.0  0.02330  0.91223  0.05650  1.0000 -0.1499696184
C   C48       1.0  0.97670  0.41223  0.44350  1.0000 -0.1499696184
C   C49       1.0  0.88650  0.07429  0.86660  1.0000 -0.092182385
C   C50       1.0  0.11350  0.57429  0.63340  1.0000 -0.092182385
C   C51       1.0  0.11350  0.92571  0.13340  1.0000 -0.092182385
C   C52       1.0  0.88650  0.42571  0.36660  1.0000 -0.092182385
C   C53       1.0  0.69320  0.06918  0.85140  1.0000 -0.0133179795
C   C54       1.0  0.30680  0.56918  0.64860  1.0000 -0.0133179795
C   C55       1.0  0.30680  0.93082  0.14860  1.0000 -0.0133179795
C   C56       1.0  0.69320  0.43082  0.35140  1.0000 -0.0133179795
C   C57       1.0  0.59440  0.07598  0.91470  1.0000 -0.1001997707
C   C58       1.0  0.40560  0.57598  0.58530  1.0000 -0.1001997707
C   C59       1.0  0.40560  0.92402  0.08530  1.0000 -0.1001997707
C   C60       1.0  0.59440  0.42402  0.41470  1.0000 -0.1001997707
C   C61       1.0  0.68490  0.08861  0.99210  1.0000 -0.1375321839
C   C62       1.0  0.31510  0.58861  0.50790  1.0000 -0.1375321839
C   C63       1.0  0.31510  0.91139  0.00790  1.0000 -0.1375321839
C   C64       1.0  0.68490  0.41139  0.49210  1.0000 -0.1375321839
C   C65       1.0  0.59850  0.05874  0.76460  1.0000 0.5913471323
C   C66       1.0  0.40150  0.55874  0.73540  1.0000 0.5913471323
C   C67       1.0  0.40150  0.94126  0.23540  1.0000 0.5913471323
C   C68       1.0  0.59850  0.44126  0.26460  1.0000 0.5913471323
C   C69       1.0  0.96030  0.10265  0.48250  1.0000 0.5671923649
C   C70       1.0  0.03970  0.60265  0.01750  1.0000 0.5671923649
C   C71       1.0  0.03970  0.89735  0.51750  1.0000 0.5671923649
C   C72       1.0  0.96030  0.39735  0.98250  1.0000 0.5671923649
C   C73       1.0  0.06160  0.13645  0.44570  1.0000 -0.0236147209
C   C74       1.0  0.93840  0.63645  0.05430  1.0000 -0.0236147209
C   C75       1.0  0.93840  0.86355  0.55430  1.0000 -0.0236147209
C   C76       1.0  0.06160  0.36355  0.94570  1.0000 -0.0236147209
C   C77       1.0  0.20180  0.12677  0.40080  1.0000 -0.1072658259
C   C78       1.0  0.79820  0.62677  0.09920  1.0000 -0.1072658259
C   C79       1.0  0.79820  0.87323  0.59920  1.0000 -0.1072658259
C   C80       1.0  0.20180  0.37323  0.90080  1.0000 -0.1072658259
C   C81       1.0  0.30520  0.15847  0.37260  1.0000 -0.1375321839
C   C82       1.0  0.69480  0.65847  0.12740  1.0000 -0.1375321839
C   C83       1.0  0.69480  0.84153  0.62740  1.0000 -0.1375321839
C   C84       1.0  0.30520  0.34153  0.87260  1.0000 -0.1375321839
C   C85       1.0  0.27080  0.20034  0.38940  1.0000 0.0807019318
C   C86       1.0  0.72920  0.70034  0.11060  1.0000 0.0807019318
C   C87       1.0  0.72920  0.79966  0.61060  1.0000 0.0807019318
C   C88       1.0  0.27080  0.29966  0.88940  1.0000 0.0807019318
C   C89       1.0  0.12830  0.20998  0.43340  1.0000 -0.1334571723
C   C90       1.0  0.87170  0.70998  0.06660  1.0000 -0.1334571723
C   C91       1.0  0.87170  0.79002  0.56660  1.0000 -0.1334571723
C   C92       1.0  0.12830  0.29002  0.93340  1.0000 -0.1334571723
C   C93       1.0  0.02300  0.17833  0.46020  1.0000 -0.092182385
C   C94       1.0  0.97700  0.67833  0.03980  1.0000 -0.092182385
C   C95       1.0  0.97700  0.82167  0.53980  1.0000 -0.092182385
C   C96       1.0  0.02300  0.32167  0.96020  1.0000 -0.092182385
C   C97       1.0  0.39120  0.23679  0.36590  1.0000 -0.2804995957
C   C98       1.0  0.60880  0.73679  0.13410  1.0000 -0.2804995957
C   C99       1.0  0.60880  0.76321  0.63410  1.0000 -0.2804995957
C   C100      1.0  0.39120  0.26321  0.86590  1.0000 -0.2804995957
C   C101      1.0  0.51110  0.22390  0.30080  1.0000 0.6672038825
C   C102      1.0  0.48890  0.72390  0.19920  1.0000 0.6672038825
C   C103      1.0  0.48890  0.77610  0.69920  1.0000 0.6672038825
C   C104      1.0  0.51110  0.27610  0.80080  1.0000 0.6672038825
C   C105      1.0  0.52440  0.25010  0.44620  1.0000 0.6672038825
C   C106      1.0  0.47560  0.75010  0.05380  1.0000 0.6672038825
C   C107      1.0  0.47560  0.74990  0.55380  1.0000 0.6672038825
C   C108      1.0  0.52440  0.24990  0.94620  1.0000 0.6672038825
C   C109      1.0  0.26910  0.27358  0.32690  1.0000 0.0807019318
C   C110      1.0  0.73090  0.77358  0.17310  1.0000 0.0807019318
C   C111      1.0  0.73090  0.72642  0.67310  1.0000 0.0807019318
C   C112      1.0  0.26910  0.22642  0.82690  1.0000 0.0807019318
C   C113      1.0  0.32580  0.31530  0.33520  1.0000 -0.1375321839
C   C114      1.0  0.67420  0.81530  0.16480  1.0000 -0.1375321839
C   C115      1.0  0.67420  0.68470  0.66480  1.0000 -0.1375321839
C   C116      1.0  0.32580  0.18470  0.83520  1.0000 -0.1375321839
C   C117      1.0  0.22010  0.34676  0.29150  1.0000 -0.1001997707
C   C118      1.0  0.77990  0.84676  0.20850  1.0000 -0.1001997707
C   C119      1.0  0.77990  0.65324  0.70850  1.0000 -0.1001997707
C   C120      1.0  0.22010  0.15324  0.79150  1.0000 -0.1001997707
C   C121      1.0  0.05350  0.33702  0.23920  1.0000 -0.0133179795
C   C122      1.0  0.94650  0.83702  0.26080  1.0000 -0.0133179795
C   C123      1.0  0.94650  0.66298  0.76080  1.0000 -0.0133179795
C   C124      1.0  0.05350  0.16298  0.73920  1.0000 -0.0133179795
C   C125      1.0  0.99160  0.29567  0.23200  1.0000 -0.1001997707
C   C126      1.0  0.00840  0.79567  0.26800  1.0000 -0.1001997707
C   C127      1.0  0.00840  0.70433  0.76800  1.0000 -0.1001997707
C   C128      1.0  0.99160  0.20433  0.73200  1.0000 -0.1001997707
C   C129      1.0  0.10130  0.26404  0.27460  1.0000 -0.1334571723
C   C130      1.0  0.89870  0.76404  0.22540  1.0000 -0.1334571723
C   C131      1.0  0.89870  0.73596  0.72540  1.0000 -0.1334571723
C   C132      1.0  0.10130  0.23596  0.77460  1.0000 -0.1334571723
C   C133      1.0  0.94350  0.37060  0.18940  1.0000 0.5671923649
C   C134      1.0  0.05650  0.87060  0.31060  1.0000 0.5671923649
C   C135      1.0  0.05650  0.62940  0.81060  1.0000 0.5671923649
C   C136      1.0  0.94350  0.12940  0.68940  1.0000 0.5671923649
O   O1        1.0  0.79950  0.99240  0.38344  1.0000 -0.6282929588
O   O2        1.0  0.20050  0.49240  0.11656  1.0000 -0.6282929588
O   O3        1.0  0.20050  0.00760  0.61656  1.0000 -0.6282929588
O   O4        1.0  0.79950  0.50760  0.88344  1.0000 -0.6282929588
O   O5        1.0  0.56040  0.03535  0.38862  1.0000 -0.5184757668
O   O6        1.0  0.43960  0.53535  0.11138  1.0000 -0.5184757668
O   O7        1.0  0.43960  0.96465  0.61138  1.0000 -0.5184757668
O   O8        1.0  0.56040  0.46465  0.88862  1.0000 -0.5184757668
O   O9        1.0  0.69760  0.04534  0.71536  1.0000 -0.5612207461
O   O10       1.0  0.30240  0.54534  0.78464  1.0000 -0.5612207461
O   O11       1.0  0.30240  0.95466  0.28464  1.0000 -0.5612207461
O   O12       1.0  0.69760  0.45466  0.21536  1.0000 -0.5612207461
O   O13       1.0  0.42380  0.06543  0.74729  1.0000 -0.5789533216
O   O14       1.0  0.57620  0.56543  0.75271  1.0000 -0.5789533216
O   O15       1.0  0.57620  0.93457  0.25271  1.0000 -0.5789533216
O   O16       1.0  0.42380  0.43457  0.24729  1.0000 -0.5789533216
O   O17       1.0  0.05240  0.06866  0.50275  1.0000 -0.6389405984
O   O18       1.0  0.94760  0.56866  0.99725  1.0000 -0.6389405984
O   O19       1.0  0.94760  0.93134  0.49725  1.0000 -0.6389405984
O   O20       1.0  0.05240  0.43134  0.00275  1.0000 -0.6389405984
O   O21       1.0  0.79960  0.10888  0.49643  1.0000 -0.5073379684
O   O22       1.0  0.20040  0.60888  0.00357  1.0000 -0.5073379684
O   O23       1.0  0.20040  0.89112  0.50357  1.0000 -0.5073379684
O   O24       1.0  0.79960  0.39112  0.99643  1.0000 -0.5073379684
O   O25       1.0  0.02630  0.40313  0.16913  1.0000 -0.6022831607
O   O26       1.0  0.97370  0.90313  0.33087  1.0000 -0.6022831607
O   O27       1.0  0.97370  0.59687  0.83087  1.0000 -0.6022831607
O   O28       1.0  0.02630  0.09687  0.66913  1.0000 -0.6022831607
O   O29       1.0  0.77050  0.36616  0.16780  1.0000 -0.5184757668
O   O30       1.0  0.22950  0.86616  0.33220  1.0000 -0.5184757668
O   O31       1.0  0.22950  0.63384  0.83220  1.0000 -0.5184757668
O   O32       1.0  0.77050  0.13384  0.66780  1.0000 -0.5184757668
O   O33       1.0  0.78080  0.00767  0.56559  1.0000 -0.8454817045
O   O34       1.0  0.21920  0.50767  0.93441  1.0000 -0.8454817045
O   O35       1.0  0.21920  0.99233  0.43441  1.0000 -0.8454817045
O   O36       1.0  0.78080  0.49233  0.06559  1.0000 -0.8454817045
O   O37       1.0  0.46720  0.06413  0.54652  1.0000 -0.8392397273
O   O38       1.0  0.53280  0.56413  0.95348  1.0000 -0.8392397273
O   O39       1.0  0.53280  0.93587  0.45348  1.0000 -0.8392397273
O   O40       1.0  0.46720  0.43587  0.04652  1.0000 -0.8392397273
F   F1        1.0  0.24640  0.11516  0.19167  1.0000 -0.1930192044
F   F2        1.0  0.75360  0.61516  0.30833  1.0000 -0.1930192044
F   F3        1.0  0.75360  0.88484  0.80833  1.0000 -0.1930192044
F   F4        1.0  0.24640  0.38484  0.69167  1.0000 -0.1930192044
F   F5        1.0  0.22910  0.06743  0.09837  1.0000 -0.1979168378
F   F6        1.0  0.77090  0.56743  0.40163  1.0000 -0.1979168378
F   F7        1.0  0.77090  0.93257  0.90163  1.0000 -0.1930192044
F   F8        1.0  0.22910  0.43257  0.59837  1.0000 -0.1930192044
F   F9        1.0  0.27490  0.13155  0.06762  1.0000 -0.1979168378
F   F10       1.0  0.72510  0.63155  0.43238  1.0000 -0.1979168378
F   F11       1.0  0.72510  0.86845  0.93238  1.0000 -0.1979168378
F   F12       1.0  0.27490  0.36845  0.56762  1.0000 -0.1979168378
F   F13       1.0  0.98320  0.17819  0.02122  1.0000 -0.1979168378
F   F14       1.0  0.01680  0.67819  0.47878  1.0000 -0.1979168378
F   F15       1.0  0.01680  0.82181  0.97878  1.0000 -0.1979168378
F   F16       1.0  0.98320  0.32181  0.52122  1.0000 -0.1979168378
F   F17       1.0  0.01780  0.18152  0.15386  1.0000 -0.2094698433
F   F18       1.0  0.98220  0.68152  0.34614  1.0000 -0.2094698433
F   F19       1.0  0.98220  0.81848  0.84614  1.0000 -0.2094698433
F   F20       1.0  0.01780  0.31848  0.65386  1.0000 -0.2094698433
F   F21       1.0  0.74630  0.16933  0.08102  1.0000 -0.1979168378
F   F22       1.0  0.25370  0.66933  0.41898  1.0000 -0.1979168378
F   F23       1.0  0.25370  0.83067  0.91898  1.0000 -0.1979168378
F   F24       1.0  0.74630  0.33067  0.58102  1.0000 -0.1979168378
F   F25       1.0  0.59730  0.21648  0.48886  1.0000 -0.1930192044
F   F26       1.0  0.40270  0.71648  0.01114  1.0000 -0.1930192044
F   F27       1.0  0.40270  0.78352  0.51114  1.0000 -0.1930192044
F   F28       1.0  0.59730  0.28352  0.98886  1.0000 -0.1930192044
F   F29       1.0  0.43170  0.27166  0.49570  1.0000 -0.1930192044
F   F30       1.0  0.56830  0.77166  0.00430  1.0000 -0.1930192044
F   F31       1.0  0.56830  0.72834  0.50430  1.0000 -0.1930192044
F   F32       1.0  0.43170  0.22834  0.99570  1.0000 -0.1930192044
F   F33       1.0  0.66667  0.27355  0.43202  1.0000 -0.2094698433
F   F34       1.0  0.33340  0.77355  0.06798  1.0000 -0.2094698433
F   F35       1.0  0.33340  0.72645  0.56798  1.0000 -0.2094698433
F   F36       1.0  0.66667  0.22645  0.93202  1.0000 -0.2094698433
F   F37       1.0  0.40830  0.20534  0.23605  1.0000 -0.1930192044
F   F38       1.0  0.59170  0.70534  0.26395  1.0000 -0.1930192044
F   F39       1.0  0.59170  0.79466  0.76395  1.0000 -0.1930192044
F   F40       1.0  0.40830  0.29466  0.73605  1.0000 -0.1930192044
F   F41       1.0  0.64950  0.19708  0.33134  1.0000 -0.2094698433
F   F42       1.0  0.35050  0.69708  0.16866  1.0000 -0.2094698433
F   F43       1.0  0.35050  0.80292  0.66866  1.0000 -0.2094698433
F   F44       1.0  0.64950  0.30292  0.83134  1.0000 -0.2094698433
F   F45       1.0  0.59360  0.25698  0.27208  1.0000 -0.1930192044
F   F46       1.0  0.40640  0.75698  0.22792  1.0000 -0.1930192044
F   F47       1.0  0.40640  0.74302  0.72792  1.0000 -0.1930192044
F   F48       1.0  0.59360  0.24302  0.77208  1.0000 -0.1930192044
