# DDEC6 charges by PACMAN v1.1 (https://github.com/mtap-research/PACMAN-charge/)
data_2012[Co][tsn]3[ASR]2
_chemical_formula_sum              "Co3 H52 C70 N6 O20"
_cell_length_a       16.6722
_cell_length_b       16.6722
_cell_length_c       14.825
_cell_angle_alpha    83.6827
_cell_angle_beta     96.3173
_cell_angle_gamma    61.1654

_symmetry_space_group_name_H-M    "P 1"
_symmetry_Int_Tables_number       1

loop_
  _symmetry_equiv_pos_as_xyz
  'x, y, z'

loop_
  _atom_site_type_symbol
  _atom_site_label
  _atom_site_symmetry_multiplicity
  _atom_site_fract_x
  _atom_site_fract_y
  _atom_site_fract_z
  _atom_site_occupancy
  _atom_site_charge
Co  Co1       1.0  0.19797  0.19797  0.00000  1.0000 1.0341676489
Co  Co2       1.0  0.20095  0.98911  0.00939  1.0000 1.0233327166
Co  Co3       1.0  0.98911  0.20095  0.99061  1.0000 1.0233327166
H   H1        1.0  0.69520  0.84540  0.72200  1.0000 0.109669754
H   H2        1.0  0.84540  0.69520  0.27800  1.0000 0.109669754
H   H3        1.0  0.61550  0.85350  0.64710  1.0000 0.0997315816
H   H4        1.0  0.85350  0.61550  0.35290  1.0000 0.0997315816
H   H5        1.0  0.66310  0.96150  0.45530  1.0000 0.0997315816
H   H6        1.0  0.96150  0.66310  0.54470  1.0000 0.0997315816
H   H7        1.0  0.58280  0.01040  0.51110  1.0000 0.0997315816
H   H8        1.0  0.01040  0.58280  0.48890  1.0000 0.0997315816
H   H9        1.0  0.73840  0.76680  0.56160  1.0000 0.0900714816
H   H10       1.0  0.76680  0.73840  0.43840  1.0000 0.0997315816
H   H11       1.0  0.81640  0.76820  0.63000  1.0000 0.0997315816
H   H12       1.0  0.76820  0.81640  0.37000  1.0000 0.0997315816
H   H13       1.0  0.69980  0.01160  0.62920  1.0000 0.0997315816
H   H14       1.0  0.01160  0.69980  0.37080  1.0000 0.0997315816
H   H15       1.0  0.77240  0.96440  0.56520  1.0000 0.0997315816
H   H16       1.0  0.96440  0.77240  0.43480  1.0000 0.0997315816
H   H17       1.0  0.51410  0.05770  0.35810  1.0000 0.1227874979
H   H18       1.0  0.05770  0.51410  0.64190  1.0000 0.1227874979
H   H19       1.0  0.76570  0.06830  0.70350  1.0000 0.1227874979
H   H20       1.0  0.06830  0.76570  0.29650  1.0000 0.1227874979
H   H21       1.0  0.97980  0.82160  0.77230  1.0000 0.1357888327
H   H22       1.0  0.82160  0.97980  0.22770  1.0000 0.1357888327
H   H23       1.0  0.54620  0.85600  0.77250  1.0000 0.1227874979
H   H24       1.0  0.85600  0.54620  0.22750  1.0000 0.1227874979
H   H25       1.0  0.42440  0.89400  0.84570  1.0000 0.1227874979
H   H26       1.0  0.89400  0.42440  0.15430  1.0000 0.1227874979
H   H27       1.0  0.35860  0.15760  0.80030  1.0000 0.1227874979
H   H28       1.0  0.15760  0.35860  0.19970  1.0000 0.1227874979
H   H29       1.0  0.47130  0.12610  0.71070  1.0000 0.1357888327
H   H30       1.0  0.12610  0.47130  0.28930  1.0000 0.1357888327
H   H31       1.0  0.39700  0.16460  0.99860  1.0000 0.109669754
H   H32       1.0  0.16460  0.39700  0.00140  1.0000 0.109669754
H   H33       1.0  0.47670  0.24290  0.99630  1.0000 0.1305808481
H   H34       1.0  0.24290  0.47670  0.00370  1.0000 0.1305808481
H   H35       1.0  0.41880  0.86100  0.26270  1.0000 0.1227874979
H   H36       1.0  0.86100  0.41880  0.73730  1.0000 0.1227874979
H   H37       1.0  0.52140  0.81500  0.39840  1.0000 0.1305808481
H   H38       1.0  0.81500  0.52140  0.60160  1.0000 0.1305808481
H   H39       1.0  0.41830  0.09890  0.21690  1.0000 0.1305808481
H   H40       1.0  0.09890  0.41830  0.78310  1.0000 0.1305808481
H   H41       1.0  0.82300  0.16820  0.98870  1.0000 0.109669754
H   H42       1.0  0.16820  0.82300  0.01130  1.0000 0.109669754
H   H43       1.0  0.66630  0.24590  0.99230  1.0000 0.1305808481
H   H44       1.0  0.24590  0.66630  0.00770  1.0000 0.1305808481
H   H45       1.0  0.67500  0.48180  0.98630  1.0000 0.1357888327
H   H46       1.0  0.48180  0.67500  0.01370  1.0000 0.1305808481
H   H47       1.0  0.82820  0.40080  0.98030  1.0000 0.109669754
H   H48       1.0  0.40080  0.82820  0.01970  1.0000 0.109669754
H   H49       1.0  0.06360  0.87800  0.84160  1.0000 0.1227874979
H   H50       1.0  0.87800  0.06360  0.15840  1.0000 0.1227874979
H   H51       1.0  0.84330  0.12270  0.79870  1.0000 0.1305808481
H   H52       1.0  0.12270  0.84330  0.20130  1.0000 0.1305808481
C   C1        1.0  0.69850  0.89750  0.59020  1.0000 0.0713671014
C   C2        1.0  0.89750  0.69850  0.40980  1.0000 0.0713671014
C   C3        1.0  0.65000  0.88360  0.66620  1.0000 -0.0799888568
C   C4        1.0  0.88360  0.65000  0.33380  1.0000 -0.0799888568
C   C5        1.0  0.63120  0.95060  0.50200  1.0000 -0.0906196534
C   C6        1.0  0.95060  0.63120  0.49800  1.0000 -0.0906196534
C   C7        1.0  0.76920  0.80200  0.57460  1.0000 -0.0799888568
C   C8        1.0  0.80200  0.76920  0.42540  1.0000 -0.0799888568
C   C9        1.0  0.74500  0.95240  0.61570  1.0000 -0.0799888568
C   C10       1.0  0.95240  0.74500  0.38430  1.0000 -0.0799888568
C   C11       1.0  0.53070  0.93070  0.38850  1.0000 0.2197112705
C   C12       1.0  0.93070  0.53070  0.61150  1.0000 0.2197112705
C   C13       1.0  0.49700  0.01640  0.33740  1.0000 -0.2268961205
C   C14       1.0  0.01640  0.49700  0.66260  1.0000 -0.2268961205
C   C15       1.0  0.86240  0.93900  0.73620  1.0000 0.2147550152
C   C16       1.0  0.93900  0.86240  0.26380  1.0000 0.2197112705
C   C17       1.0  0.82500  0.02700  0.73760  1.0000 -0.2268961205
C   C18       1.0  0.02700  0.82500  0.26240  1.0000 -0.2268961205
C   C19       1.0  0.95090  0.88470  0.77500  1.0000 -0.2089527979
C   C20       1.0  0.88470  0.95090  0.22500  1.0000 -0.2089527979
C   C21       1.0  0.52100  0.98600  0.73170  1.0000 0.2482246623
C   C22       1.0  0.98600  0.52100  0.26830  1.0000 0.2482246623
C   C23       1.0  0.50650  0.91810  0.77500  1.0000 -0.2179518401
C   C24       1.0  0.91810  0.50650  0.22500  1.0000 -0.2179518401
C   C25       1.0  0.43590  0.94030  0.82060  1.0000 -0.0906196534
C   C26       1.0  0.94030  0.43590  0.17940  1.0000 -0.0906196534
C   C27       1.0  0.38030  0.03050  0.83090  1.0000 -0.0452055841
C   C28       1.0  0.03050  0.38030  0.16910  1.0000 -0.0392797859
C   C29       1.0  0.39540  0.09680  0.79190  1.0000 -0.0906196534
C   C30       1.0  0.09680  0.39540  0.20810  1.0000 -0.0906196534
C   C31       1.0  0.46360  0.07840  0.73970  1.0000 -0.2179518401
C   C32       1.0  0.07840  0.46360  0.26030  1.0000 -0.2179518401
C   C33       1.0  0.36550  0.22830  0.99890  1.0000 0.0767165848
C   C34       1.0  0.22830  0.36550  0.00110  1.0000 0.0767165848
C   C35       1.0  0.41340  0.27480  0.99820  1.0000 -0.1591651983
C   C36       1.0  0.27480  0.41340  0.00180  1.0000 -0.1591651983
C   C37       1.0  0.36910  0.36910  0.00000  1.0000 0.0445194074
C   C38       1.0  0.41970  0.41970  0.00000  1.0000 0.3697640316
C   C39       1.0  0.55410  0.42230  0.99630  1.0000 0.3697640316
C   C40       1.0  0.42230  0.55410  0.00370  1.0000 0.3697640316
C   C41       1.0  0.33320  0.01940  0.13920  1.0000 0.5885364429
C   C42       1.0  0.01940  0.33320  0.86080  1.0000 0.5885364429
C   C43       1.0  0.40470  0.98690  0.22630  1.0000 -0.0392797859
C   C44       1.0  0.98690  0.40470  0.77370  1.0000 -0.0392797859
C   C45       1.0  0.43880  0.90100  0.28130  1.0000 -0.0906196534
C   C46       1.0  0.90100  0.43880  0.71870  1.0000 -0.0906196534
C   C47       1.0  0.50030  0.87290  0.36190  1.0000 -0.2089527979
C   C48       1.0  0.87290  0.50030  0.63810  1.0000 -0.2089527979
C   C49       1.0  0.43710  0.04210  0.25450  1.0000 -0.0906196534
C   C50       1.0  0.04210  0.43710  0.74550  1.0000 -0.0906196534
C   C51       1.0  0.79270  0.23190  0.98830  1.0000 0.0900714816
C   C52       1.0  0.23190  0.79270  0.01170  1.0000 0.0900714816
C   C53       1.0  0.69880  0.27820  0.99110  1.0000 -0.1591651983
C   C54       1.0  0.27820  0.69880  0.00890  1.0000 -0.1591651983
C   C55       1.0  0.65330  0.37210  0.99220  1.0000 0.0479626745
C   C56       1.0  0.37210  0.65330  0.00780  1.0000 0.0479626745
C   C57       1.0  0.70380  0.41800  0.98730  1.0000 -0.1699889932
C   C58       1.0  0.41800  0.70380  0.01270  1.0000 -0.1699889932
C   C59       1.0  0.79540  0.36880  0.98370  1.0000 0.0900714816
C   C60       1.0  0.36880  0.79540  0.01630  1.0000 0.0900714816
C   C61       1.0  0.01460  0.04540  0.88080  1.0000 0.5885364429
C   C62       1.0  0.04540  0.01460  0.11920  1.0000 0.5885364429
C   C63       1.0  0.30240  0.05640  0.88370  1.0000 0.5885364429
C   C64       1.0  0.05640  0.30240  0.11630  1.0000 0.5885364429
C   C65       1.0  0.96220  0.00680  0.82930  1.0000 -0.0319033836
C   C66       1.0  0.00680  0.96220  0.17070  1.0000 -0.0319033836
C   C67       1.0  0.00050  0.91810  0.81840  1.0000 -0.1008906088
C   C68       1.0  0.91810  0.00050  0.18160  1.0000 -0.1008906088
C   C69       1.0  0.87410  0.06090  0.79090  1.0000 -0.1008906088
C   C70       1.0  0.06090  0.87410  0.20910  1.0000 -0.1008906088
N   N1        1.0  0.27200  0.27200  0.00000  1.0000 -0.245157881
N   N2        1.0  0.51060  0.37240  0.99670  1.0000 -0.4117398147
N   N3        1.0  0.37240  0.51060  0.00330  1.0000 -0.4117398147
N   N4        1.0  0.51270  0.51270  0.00000  1.0000 -0.4117398147
N   N5        1.0  0.84200  0.27660  0.98490  1.0000 -0.2179518401
N   N6        1.0  0.27660  0.84200  0.01510  1.0000 -0.2179518401
O   O1        1.0  0.59140  0.89760  0.47310  1.0000 -0.2006348505
O   O2        1.0  0.89760  0.59140  0.52690  1.0000 -0.2006348505
O   O3        1.0  0.81140  0.81140  0.50000  1.0000 -0.1699889932
O   O4        1.0  0.81620  0.89680  0.69620  1.0000 -0.2179518401
O   O5        1.0  0.89680  0.81620  0.30380  1.0000 -0.2179518401
O   O6        1.0  0.58910  0.97370  0.68150  1.0000 -0.1797174275
O   O7        1.0  0.97370  0.58910  0.31850  1.0000 -0.1797174275
O   O8        1.0  0.31298  0.09478  0.09320  1.0000 -0.5255763217
O   O9        1.0  0.09478  0.31298  0.90680  1.0000 -0.5255763217
O   O10       1.0  0.30133  0.96813  0.12050  1.0000 -0.5191859468
O   O11       1.0  0.96813  0.30133  0.87950  1.0000 -0.5191859468
O   O12       1.0  0.28567  0.99347  0.91590  1.0000 -0.5429097398
O   O13       1.0  0.99347  0.28567  0.08410  1.0000 -0.5429097398
O   O14       1.0  0.25940  0.13880  0.89310  1.0000 -0.5191859468
O   O15       1.0  0.13880  0.25940  0.10690  1.0000 -0.5191859468
O   O16       1.0  0.12780  0.12780  0.00000  1.0000 -0.8295478805
O   O17       1.0  0.10000  0.99320  0.90420  1.0000 -0.5191859468
O   O18       1.0  0.99320  0.10000  0.09580  1.0000 -0.5110549911
O   O19       1.0  0.96840  0.12420  0.89720  1.0000 -0.5110549911
O   O20       1.0  0.12420  0.96840  0.10280  1.0000 -0.5110549911
