# DDEC6 charges by PACMAN v1.1 (https://github.com/mtap-research/PACMAN-charge/)
data_2012[Co][ecu]3[ASR]3
_chemical_formula_sum              "Co8 H72 C96 N16 O36"
_cell_length_a       11.249
_cell_length_b       13.238
_cell_length_c       26.05
_cell_angle_alpha    90
_cell_angle_beta     90
_cell_angle_gamma    90

_symmetry_space_group_name_H-M    "P 1"
_symmetry_Int_Tables_number       1

loop_
  _symmetry_equiv_pos_as_xyz
  'x, y, z'

loop_
  _atom_site_type_symbol
  _atom_site_label
  _atom_site_symmetry_multiplicity
  _atom_site_fract_x
  _atom_site_fract_y
  _atom_site_fract_z
  _atom_site_occupancy
  _atom_site_charge
Co  Co1       1.0  0.33853  0.43908  0.07952  1.0000 0.8894396983
Co  Co2       1.0  0.16147  0.56092  0.57952  1.0000 0.8894396983
Co  Co3       1.0  0.83853  0.06092  0.92048  1.0000 0.8894396983
Co  Co4       1.0  0.66147  0.93908  0.42048  1.0000 0.8894396983
Co  Co5       1.0  0.59198  0.56151  0.13693  1.0000 0.8894396983
Co  Co6       1.0  0.90802  0.43849  0.63693  1.0000 0.8894396983
Co  Co7       1.0  0.09198  0.93849  0.86307  1.0000 0.8894396983
Co  Co8       1.0  0.40802  0.06151  0.36307  1.0000 0.8894396983
H   H1        1.0  0.37570  0.18510  0.17840  1.0000 0.136757223
H   H2        1.0  0.12430  0.81490  0.67840  1.0000 0.1321820734
H   H3        1.0  0.87570  0.31490  0.82160  1.0000 0.136757223
H   H4        1.0  0.62430  0.68510  0.32160  1.0000 0.136757223
H   H5        1.0  0.56560  0.37000  0.26870  1.0000 0.1321820734
H   H6        1.0  0.93440  0.63000  0.76870  1.0000 0.1321820734
H   H7        1.0  0.06560  0.13000  0.73130  1.0000 0.1321820734
H   H8        1.0  0.43440  0.87000  0.23130  1.0000 0.1321820734
H   H9        1.0  0.29450  0.69610  0.93490  1.0000 0.1321820734
H   H10       1.0  0.20550  0.30390  0.43490  1.0000 0.1321820734
H   H11       1.0  0.79450  0.80390  0.06510  1.0000 0.1321820734
H   H12       1.0  0.70550  0.19610  0.56510  1.0000 0.1321820734
H   H13       1.0  0.38550  0.58020  0.98760  1.0000 0.110703052
H   H14       1.0  0.11450  0.41980  0.48760  1.0000 0.110703052
H   H15       1.0  0.88550  0.91980  0.01240  1.0000 0.110703052
H   H16       1.0  0.61450  0.08020  0.51240  1.0000 0.110703052
H   H17       1.0  0.98450  0.38280  0.15550  1.0000 0.1321820734
H   H18       1.0  0.51550  0.61720  0.65550  1.0000 0.1321820734
H   H19       1.0  0.48450  0.11720  0.84450  1.0000 0.1321820734
H   H20       1.0  0.01550  0.88280  0.34450  1.0000 0.1321820734
H   H21       1.0  0.01680  0.68440  0.16320  1.0000 0.136757223
H   H22       1.0  0.48320  0.31560  0.66320  1.0000 0.136757223
H   H23       1.0  0.51680  0.81560  0.83680  1.0000 0.136757223
H   H24       1.0  0.98320  0.18440  0.33680  1.0000 0.136757223
H   H25       1.0  0.08040  0.50520  0.05280  1.0000 0.087839948
H   H26       1.0  0.41960  0.49480  0.55280  1.0000 0.087839948
H   H27       1.0  0.58040  0.99480  0.94720  1.0000 0.087839948
H   H28       1.0  0.91960  0.00520  0.44720  1.0000 0.087839948
H   H29       1.0  0.66000  0.23570  0.89850  1.0000 0.110703052
H   H30       1.0  0.84000  0.76430  0.39850  1.0000 0.110703052
H   H31       1.0  0.16000  0.26430  0.10150  1.0000 0.110703052
H   H32       1.0  0.34000  0.73570  0.60150  1.0000 0.110703052
H   H33       1.0  0.35610  0.07600  0.24830  1.0000 0.1010408091
H   H34       1.0  0.14390  0.92400  0.74830  1.0000 0.1010408091
H   H35       1.0  0.85610  0.42400  0.75170  1.0000 0.1010408091
H   H36       1.0  0.64390  0.57600  0.25170  1.0000 0.1010408091
H   H37       1.0  0.78010  0.40000  0.15750  1.0000 0.110703052
H   H38       1.0  0.71990  0.60000  0.65750  1.0000 0.110703052
H   H39       1.0  0.28010  0.10000  0.84250  1.0000 0.110703052
H   H40       1.0  0.21990  0.90000  0.34250  1.0000 0.110703052
H   H41       1.0  0.77480  0.31460  0.06320  1.0000 0.136757223
H   H42       1.0  0.72520  0.68540  0.56320  1.0000 0.136757223
H   H43       1.0  0.27480  0.18540  0.93680  1.0000 0.136757223
H   H44       1.0  0.22520  0.81460  0.43680  1.0000 0.136757223
H   H45       1.0  0.97810  0.62760  0.00510  1.0000 0.136757223
H   H46       1.0  0.52190  0.37240  0.50510  1.0000 0.136757223
H   H47       1.0  0.47810  0.87240  0.99490  1.0000 0.136757223
H   H48       1.0  0.02190  0.12760  0.49490  1.0000 0.136757223
H   H49       1.0  0.85510  0.17610  0.01960  1.0000 0.1010408091
H   H50       1.0  0.64490  0.82390  0.51960  1.0000 0.1010408091
H   H51       1.0  0.35510  0.32390  0.98040  1.0000 0.1010408091
H   H52       1.0  0.14490  0.67610  0.48040  1.0000 0.1010408091
H   H53       1.0  0.80850  0.69590  0.16210  1.0000 0.1010408091
H   H54       1.0  0.69150  0.30410  0.66210  1.0000 0.1010408091
H   H55       1.0  0.30850  0.80410  0.83790  1.0000 0.1010408091
H   H56       1.0  0.19150  0.19590  0.33790  1.0000 0.1010408091
H   H57       1.0  0.56320  0.36370  0.94130  1.0000 0.136757223
H   H58       1.0  0.93680  0.63630  0.44130  1.0000 0.136757223
H   H59       1.0  0.06320  0.13630  0.05870  1.0000 0.136757223
H   H60       1.0  0.43680  0.86370  0.55870  1.0000 0.136757223
H   H61       1.0  0.53970  0.26040  0.33620  1.0000 0.110703052
H   H62       1.0  0.96030  0.73960  0.83620  1.0000 0.110703052
H   H63       1.0  0.03970  0.23960  0.66380  1.0000 0.110703052
H   H64       1.0  0.46030  0.76040  0.16380  1.0000 0.110703052
H   H65       1.0  0.35840  0.59170  0.14370  1.0000 0.3815293647
H   H66       1.0  0.14160  0.40830  0.64370  1.0000 0.3815293647
H   H67       1.0  0.85840  0.90830  0.85630  1.0000 0.3815293647
H   H68       1.0  0.64160  0.09170  0.35630  1.0000 0.3815293647
H   H69       1.0  0.39990  0.63010  0.08840  1.0000 0.3815293647
H   H70       1.0  0.10010  0.36990  0.58840  1.0000 0.3815293647
H   H71       1.0  0.89990  0.86990  0.91160  1.0000 0.3815293647
H   H72       1.0  0.60010  0.13010  0.41160  1.0000 0.3815293647
C   C1        1.0  0.15870  0.52400  0.15380  1.0000 0.5597934462
C   C2        1.0  0.34130  0.47600  0.65380  1.0000 0.5597934462
C   C3        1.0  0.65870  0.97600  0.84620  1.0000 0.5597934462
C   C4        1.0  0.84130  0.02400  0.34620  1.0000 0.5597934462
C   C5        1.0  0.02320  0.53280  0.15860  1.0000 0.0277637085
C   C6        1.0  0.47680  0.46720  0.65860  1.0000 0.0277637085
C   C7        1.0  0.52320  0.96720  0.84140  1.0000 0.0277637085
C   C8        1.0  0.97680  0.03280  0.34140  1.0000 0.0277637085
C   C9        1.0  0.47050  0.29120  0.21630  1.0000 0.0277637085
C   C10       1.0  0.02950  0.70880  0.71630  1.0000 0.0277637085
C   C11       1.0  0.97050  0.20880  0.78370  1.0000 0.0277637085
C   C12       1.0  0.52950  0.79120  0.28370  1.0000 0.0277637085
C   C13       1.0  0.40960  0.20260  0.21060  1.0000 -0.1690784484
C   C14       1.0  0.09040  0.79740  0.71060  1.0000 -0.1690784484
C   C15       1.0  0.90960  0.29740  0.78940  1.0000 -0.1690784484
C   C16       1.0  0.59040  0.70260  0.28940  1.0000 -0.1690784484
C   C17       1.0  0.52010  0.31030  0.26380  1.0000 -0.1512493305
C   C18       1.0  0.97990  0.68970  0.76380  1.0000 -0.1512493305
C   C19       1.0  0.02010  0.18970  0.73620  1.0000 -0.1512493305
C   C20       1.0  0.47990  0.81030  0.23620  1.0000 -0.1512493305
C   C21       1.0  0.06400  0.76030  0.93530  1.0000 0.5597934462
C   C22       1.0  0.43600  0.23970  0.43530  1.0000 0.5597934462
C   C23       1.0  0.56400  0.73970  0.06470  1.0000 0.5597934462
C   C24       1.0  0.93600  0.26030  0.56470  1.0000 0.5597934462
C   C25       1.0  0.24950  0.65940  0.95950  1.0000 -0.1587649323
C   C26       1.0  0.25050  0.34060  0.45950  1.0000 -0.1587649323
C   C27       1.0  0.74950  0.84060  0.04050  1.0000 -0.1587649323
C   C28       1.0  0.75050  0.15940  0.54050  1.0000 -0.1587649323
C   C29       1.0  0.30190  0.58910  0.99030  1.0000 0.087839948
C   C30       1.0  0.19810  0.41090  0.49030  1.0000 0.087839948
C   C31       1.0  0.80190  0.91090  0.00970  1.0000 0.087839948
C   C32       1.0  0.69810  0.08910  0.50970  1.0000 0.087839948
C   C33       1.0  0.95020  0.44830  0.15690  1.0000 -0.1690784484
C   C34       1.0  0.54980  0.55170  0.65690  1.0000 -0.1690784484
C   C35       1.0  0.45020  0.05170  0.84310  1.0000 -0.1690784484
C   C36       1.0  0.04980  0.94830  0.34310  1.0000 -0.1690784484
C   C37       1.0  0.97000  0.62480  0.16100  1.0000 -0.1587649323
C   C38       1.0  0.53000  0.37520  0.66100  1.0000 -0.1587649323
C   C39       1.0  0.47000  0.87520  0.83900  1.0000 -0.1587649323
C   C40       1.0  0.03000  0.12480  0.33900  1.0000 -0.1587649323
C   C41       1.0  0.12330  0.54590  0.02910  1.0000 0.0697943009
C   C42       1.0  0.37670  0.45410  0.52910  1.0000 0.0697943009
C   C43       1.0  0.62330  0.95410  0.97090  1.0000 0.0697943009
C   C44       1.0  0.87670  0.04590  0.47090  1.0000 0.0697943009
C   C45       1.0  0.68100  0.24950  0.93320  1.0000 0.0697943009
C   C46       1.0  0.81900  0.75050  0.43320  1.0000 0.0697943009
C   C47       1.0  0.18100  0.25050  0.06680  1.0000 0.0697943009
C   C48       1.0  0.31900  0.74950  0.56680  1.0000 0.0697943009
C   C49       1.0  0.39780  0.13770  0.25290  1.0000 0.087839948
C   C50       1.0  0.10220  0.86230  0.75290  1.0000 0.087839948
C   C51       1.0  0.89780  0.36230  0.74710  1.0000 0.087839948
C   C52       1.0  0.60220  0.63770  0.24710  1.0000 0.087839948
C   C53       1.0  0.82850  0.45880  0.15720  1.0000 0.087839948
C   C54       1.0  0.67150  0.54120  0.65720  1.0000 0.087839948
C   C55       1.0  0.32850  0.04120  0.84280  1.0000 0.087839948
C   C56       1.0  0.17150  0.95880  0.34280  1.0000 0.087839948
C   C57       1.0  0.12510  0.67630  0.96550  1.0000 0.0392840038
C   C58       1.0  0.37490  0.32370  0.46550  1.0000 0.0392840038
C   C59       1.0  0.62510  0.82370  0.03450  1.0000 0.0392840038
C   C60       1.0  0.87490  0.17630  0.53450  1.0000 0.0392840038
C   C61       1.0  0.58580  0.42600  0.04030  1.0000 0.5878768898
C   C62       1.0  0.91420  0.57400  0.54030  1.0000 0.5878768898
C   C63       1.0  0.08580  0.07400  0.95970  1.0000 0.5878768898
C   C64       1.0  0.41420  0.92600  0.45970  1.0000 0.5878768898
C   C65       1.0  0.65360  0.34980  0.00830  1.0000 0.0392840038
C   C66       1.0  0.84640  0.65020  0.50830  1.0000 0.0392840038
C   C67       1.0  0.15360  0.15020  0.99170  1.0000 0.0392840038
C   C68       1.0  0.34640  0.84980  0.49170  1.0000 0.0392840038
C   C69       1.0  0.74580  0.29670  0.03010  1.0000 -0.1690784484
C   C70       1.0  0.75420  0.70330  0.53010  1.0000 -0.1690784484
C   C71       1.0  0.24580  0.20330  0.96990  1.0000 -0.1690784484
C   C72       1.0  0.25420  0.79670  0.46990  1.0000 -0.1690784484
C   C73       1.0  0.06120  0.61820  0.00060  1.0000 -0.1690784484
C   C74       1.0  0.43880  0.38180  0.50060  1.0000 -0.1690784484
C   C75       1.0  0.56120  0.88180  0.99940  1.0000 -0.1690784484
C   C76       1.0  0.93880  0.11820  0.49940  1.0000 -0.1690784484
C   C77       1.0  0.79630  0.21590  0.00300  1.0000 0.087839948
C   C78       1.0  0.70370  0.78410  0.50300  1.0000 0.087839948
C   C79       1.0  0.29630  0.28410  0.99700  1.0000 0.087839948
C   C80       1.0  0.20370  0.71590  0.49700  1.0000 0.087839948
C   C81       1.0  0.48320  0.36590  0.17300  1.0000 0.5878768898
C   C82       1.0  0.01680  0.63410  0.67300  1.0000 0.5878768898
C   C83       1.0  0.98320  0.13410  0.82700  1.0000 0.5878768898
C   C84       1.0  0.51680  0.86590  0.32700  1.0000 0.5878768898
C   C85       1.0  0.84500  0.63130  0.16020  1.0000 0.087839948
C   C86       1.0  0.65500  0.36870  0.66020  1.0000 0.087839948
C   C87       1.0  0.34500  0.86870  0.83980  1.0000 0.087839948
C   C88       1.0  0.15500  0.13130  0.33980  1.0000 0.087839948
C   C89       1.0  0.62370  0.32640  0.95840  1.0000 -0.1690784484
C   C90       1.0  0.87630  0.67360  0.45840  1.0000 -0.1690784484
C   C91       1.0  0.12370  0.17360  0.04160  1.0000 -0.1690784484
C   C92       1.0  0.37630  0.82640  0.54160  1.0000 -0.1690784484
C   C93       1.0  0.50500  0.24470  0.30390  1.0000 0.0755980238
C   C94       1.0  0.99500  0.75530  0.80390  1.0000 0.0755980238
C   C95       1.0  0.00500  0.25530  0.69610  1.0000 0.0755980238
C   C96       1.0  0.49500  0.74470  0.19610  1.0000 0.0755980238
N   N1        1.0  0.77650  0.54940  0.15700  1.0000 -0.2275125496
N   N2        1.0  0.72350  0.45060  0.65700  1.0000 -0.2275125496
N   N3        1.0  0.27650  0.95060  0.84300  1.0000 -0.2275125496
N   N4        1.0  0.22350  0.04940  0.34300  1.0000 -0.2275125496
N   N5        1.0  0.44190  0.15810  0.29890  1.0000 -0.2533735708
N   N6        1.0  0.05810  0.84190  0.79890  1.0000 -0.2533735708
N   N7        1.0  0.94190  0.34190  0.70110  1.0000 -0.2533735708
N   N8        1.0  0.55810  0.65810  0.20110  1.0000 -0.2533735708
N   N9        1.0  0.24190  0.53130  0.02430  1.0000 -0.2669005953
N   N10       1.0  0.25810  0.46870  0.52430  1.0000 -0.2669005953
N   N11       1.0  0.74190  0.96870  0.97570  1.0000 -0.2669005953
N   N12       1.0  0.75810  0.03130  0.47570  1.0000 -0.2669005953
N   N13       1.0  0.76570  0.19270  0.95540  1.0000 -0.2275125496
N   N14       1.0  0.73430  0.80730  0.45540  1.0000 -0.2275125496
N   N15       1.0  0.26570  0.30730  0.04460  1.0000 -0.2275125496
N   N16       1.0  0.23430  0.69270  0.54460  1.0000 -0.2275125496
O   O1        1.0  0.47840  0.43820  0.02784  1.0000 -0.5594103001
O   O2        1.0  0.02160  0.56180  0.52784  1.0000 -0.5594103001
O   O3        1.0  0.97840  0.06180  0.97216  1.0000 -0.5594103001
O   O4        1.0  0.52160  0.93820  0.47216  1.0000 -0.5594103001
O   O5        1.0  0.42760  0.34700  0.13232  1.0000 -0.5481462069
O   O6        1.0  0.07240  0.65300  0.63232  1.0000 -0.5481462069
O   O7        1.0  0.92760  0.15300  0.86768  1.0000 -0.5481462069
O   O8        1.0  0.57240  0.84700  0.36768  1.0000 -0.5481462069
O   O9        1.0  0.55040  0.44100  0.18207  1.0000 -0.5719835721
O   O10       1.0  0.94960  0.55900  0.68207  1.0000 -0.5719835721
O   O11       1.0  0.05040  0.05900  0.81793  1.0000 -0.5719835721
O   O12       1.0  0.44960  0.94100  0.31793  1.0000 -0.5719835721
O   O13       1.0  0.64050  0.46770  0.07625  1.0000 -0.5413695537
O   O14       1.0  0.85950  0.53230  0.57625  1.0000 -0.5413695537
O   O15       1.0  0.14050  0.03230  0.92375  1.0000 -0.5413695537
O   O16       1.0  0.35950  0.96770  0.42375  1.0000 -0.5413695537
O   O17       1.0  0.19490  0.44700  0.12940  1.0000 -0.5814194642
O   O18       1.0  0.30510  0.55300  0.62940  1.0000 -0.5814194642
O   O19       1.0  0.69490  0.05300  0.87060  1.0000 -0.5814194642
O   O20       1.0  0.80510  0.94700  0.37060  1.0000 -0.5814194642
O   O21       1.0  0.13100  0.81300  0.90729  1.0000 -0.5719835721
O   O22       1.0  0.36900  0.18700  0.40729  1.0000 -0.5719835721
O   O23       1.0  0.63100  0.68700  0.09271  1.0000 -0.5719835721
O   O24       1.0  0.86900  0.31300  0.59271  1.0000 -0.5719835721
O   O25       1.0  0.21970  0.59480  0.17060  1.0000 -0.5330249034
O   O26       1.0  0.28030  0.40520  0.67060  1.0000 -0.5330249034
O   O27       1.0  0.71970  0.90520  0.82940  1.0000 -0.5330249034
O   O28       1.0  0.78030  0.09480  0.32940  1.0000 -0.5330249034
O   O29       1.0  0.95410  0.76940  0.94100  1.0000 -0.5481462069
O   O30       1.0  0.54590  0.23060  0.44100  1.0000 -0.5481462069
O   O31       1.0  0.45410  0.73060  0.05900  1.0000 -0.5481462069
O   O32       1.0  0.04590  0.26940  0.55900  1.0000 -0.5481462069
O   O33       1.0  0.40730  0.57420  0.11338  1.0000 -0.7937692367
O   O34       1.0  0.09270  0.42580  0.61338  1.0000 -0.7937692367
O   O35       1.0  0.90730  0.92580  0.88662  1.0000 -0.7937692367
O   O36       1.0  0.59270  0.07420  0.38662  1.0000 -0.7937692367
