# DDEC6 charges by PACMAN v1.1 (https://github.com/mtap-research/PACMAN-charge/)
data_2012[La][seh]3[ASR]1
_chemical_formula_sum              "La6 H90 C162 O36"
_cell_length_a       16.5428
_cell_length_b       16.5428
_cell_length_c       24.3988
_cell_angle_alpha    90
_cell_angle_beta     90
_cell_angle_gamma    120

_symmetry_space_group_name_H-M    "P 1"
_symmetry_Int_Tables_number       1

loop_
  _symmetry_equiv_pos_as_xyz
  'x, y, z'

loop_
  _atom_site_type_symbol
  _atom_site_label
  _atom_site_symmetry_multiplicity
  _atom_site_fract_x
  _atom_site_fract_y
  _atom_site_fract_z
  _atom_site_occupancy
  _atom_site_charge
La  La1       1.0  0.91902  0.00000  0.00000  1.0000 1.8660661118
La  La2       1.0  0.91902  0.91902  0.83333  1.0000 1.8660661118
La  La3       1.0  0.00000  0.91902  0.66667  1.0000 1.8660661118
La  La4       1.0  0.08098  0.00000  0.50000  1.0000 1.8660661118
La  La5       1.0  0.08098  0.08098  0.33333  1.0000 1.8660661118
La  La6       1.0  0.00000  0.08098  0.16667  1.0000 1.8660661118
H   H1        1.0  0.01690  0.33900  0.99810  1.0000 0.1197651084
H   H2        1.0  0.67790  0.01690  0.83143  1.0000 0.1197651084
H   H3        1.0  0.66100  0.67790  0.66477  1.0000 0.1197651084
H   H4        1.0  0.98310  0.66100  0.49810  1.0000 0.1197651084
H   H5        1.0  0.32210  0.98310  0.33143  1.0000 0.1197651084
H   H6        1.0  0.33900  0.32210  0.16477  1.0000 0.1197651084
H   H7        1.0  0.67790  0.66100  0.00190  1.0000 0.1197651084
H   H8        1.0  0.98310  0.32210  0.33523  1.0000 0.1197651084
H   H9        1.0  0.33900  0.01690  0.66857  1.0000 0.1197651084
H   H10       1.0  0.66100  0.98310  0.16857  1.0000 0.1197651084
H   H11       1.0  0.32210  0.33900  0.50190  1.0000 0.1197651084
H   H12       1.0  0.01690  0.67790  0.83523  1.0000 0.1197651084
H   H13       1.0  0.11270  0.50010  0.00770  1.0000 0.1095524794
H   H14       1.0  0.61260  0.11270  0.84103  1.0000 0.1095524794
H   H15       1.0  0.49990  0.61260  0.67437  1.0000 0.1095524794
H   H16       1.0  0.88730  0.49990  0.50770  1.0000 0.1095524794
H   H17       1.0  0.38740  0.88730  0.34103  1.0000 0.1095524794
H   H18       1.0  0.50010  0.38740  0.17437  1.0000 0.1095524794
H   H19       1.0  0.61260  0.49990  0.99230  1.0000 0.1095524794
H   H20       1.0  0.88730  0.38740  0.32563  1.0000 0.1095524794
H   H21       1.0  0.50010  0.11270  0.65897  1.0000 0.1095524794
H   H22       1.0  0.49990  0.88730  0.15897  1.0000 0.1095524794
H   H23       1.0  0.38740  0.50010  0.49230  1.0000 0.1095524794
H   H24       1.0  0.11270  0.61260  0.82563  1.0000 0.1095524794
H   H25       1.0  0.28030  0.45550  0.10750  1.0000 0.1095524794
H   H26       1.0  0.82480  0.28030  0.94083  1.0000 0.1095524794
H   H27       1.0  0.54450  0.82480  0.77417  1.0000 0.1095524794
H   H28       1.0  0.71970  0.54450  0.60750  1.0000 0.1095524794
H   H29       1.0  0.17520  0.71970  0.44083  1.0000 0.1095524794
H   H30       1.0  0.45550  0.17520  0.27417  1.0000 0.1095524794
H   H31       1.0  0.82480  0.54450  0.89250  1.0000 0.1095524794
H   H32       1.0  0.71970  0.17520  0.22583  1.0000 0.1095524794
H   H33       1.0  0.45550  0.28030  0.55917  1.0000 0.1095524794
H   H34       1.0  0.54450  0.71970  0.05917  1.0000 0.1095524794
H   H35       1.0  0.17520  0.45550  0.39250  1.0000 0.1095524794
H   H36       1.0  0.28030  0.82480  0.72583  1.0000 0.1095524794
H   H37       1.0  0.18910  0.29540  0.09350  1.0000 0.129483773
H   H38       1.0  0.89370  0.18910  0.92683  1.0000 0.129483773
H   H39       1.0  0.70460  0.89370  0.76017  1.0000 0.129483773
H   H40       1.0  0.81090  0.70460  0.59350  1.0000 0.129483773
H   H41       1.0  0.10630  0.81090  0.42683  1.0000 0.129483773
H   H42       1.0  0.29540  0.10630  0.26017  1.0000 0.129483773
H   H43       1.0  0.89370  0.70460  0.90650  1.0000 0.129483773
H   H44       1.0  0.81090  0.10630  0.23983  1.0000 0.129483773
H   H45       1.0  0.29540  0.18910  0.57317  1.0000 0.129483773
H   H46       1.0  0.70460  0.81090  0.07317  1.0000 0.129483773
H   H47       1.0  0.10630  0.29540  0.40650  1.0000 0.129483773
H   H48       1.0  0.18910  0.89370  0.73983  1.0000 0.129483773
H   H49       1.0  0.38620  0.61380  0.08333  1.0000 0.1095524794
H   H50       1.0  0.77240  0.38620  0.91667  1.0000 0.1095524794
H   H51       1.0  0.38620  0.77240  0.75000  1.0000 0.1095524794
H   H52       1.0  0.61380  0.38620  0.58333  1.0000 0.1095524794
H   H53       1.0  0.22760  0.61380  0.41667  1.0000 0.1095524794
H   H54       1.0  0.61380  0.22760  0.25000  1.0000 0.1095524794
H   H55       1.0  0.15020  0.62130  0.06120  1.0000 0.1095524794
H   H56       1.0  0.52890  0.15020  0.89453  1.0000 0.1095524794
H   H57       1.0  0.37870  0.52890  0.72787  1.0000 0.1095524794
H   H58       1.0  0.84980  0.37870  0.56120  1.0000 0.1095524794
H   H59       1.0  0.47110  0.84980  0.39453  1.0000 0.1095524794
H   H60       1.0  0.62130  0.47110  0.22787  1.0000 0.1095524794
H   H61       1.0  0.52890  0.37870  0.93880  1.0000 0.1095524794
H   H62       1.0  0.84980  0.47110  0.27213  1.0000 0.1095524794
H   H63       1.0  0.62130  0.15020  0.60547  1.0000 0.1095524794
H   H64       1.0  0.37870  0.84980  0.10547  1.0000 0.1095524794
H   H65       1.0  0.47110  0.62130  0.43880  1.0000 0.1095524794
H   H66       1.0  0.15020  0.52890  0.77213  1.0000 0.1095524794
H   H67       1.0  0.12520  0.73180  0.01660  1.0000 0.1095524794
H   H68       1.0  0.39340  0.12520  0.84993  1.0000 0.1095524794
H   H69       1.0  0.26820  0.39340  0.68327  1.0000 0.1095524794
H   H70       1.0  0.87480  0.26820  0.51660  1.0000 0.1095524794
H   H71       1.0  0.60660  0.87480  0.34993  1.0000 0.1095524794
H   H72       1.0  0.73180  0.60660  0.18327  1.0000 0.1095524794
H   H73       1.0  0.39340  0.26820  0.98340  1.0000 0.1095524794
H   H74       1.0  0.87480  0.60660  0.31673  1.0000 0.1095524794
H   H75       1.0  0.73180  0.12520  0.65007  1.0000 0.1095524794
H   H76       1.0  0.26820  0.87480  0.15007  1.0000 0.1095524794
H   H77       1.0  0.60660  0.73180  0.48340  1.0000 0.1095524794
H   H78       1.0  0.12520  0.39340  0.81673  1.0000 0.1095524794
H   H79       1.0  0.04150  0.80980  0.01800  1.0000 0.129483773
H   H80       1.0  0.23170  0.04150  0.85133  1.0000 0.129483773
H   H81       1.0  0.19020  0.23170  0.68467  1.0000 0.129483773
H   H82       1.0  0.95850  0.19020  0.51800  1.0000 0.129483773
H   H83       1.0  0.76830  0.95850  0.35133  1.0000 0.129483773
H   H84       1.0  0.80980  0.76830  0.18467  1.0000 0.129483773
H   H85       1.0  0.23170  0.19020  0.98200  1.0000 0.129483773
H   H86       1.0  0.95850  0.76830  0.31533  1.0000 0.129483773
H   H87       1.0  0.80980  0.04150  0.64867  1.0000 0.129483773
H   H88       1.0  0.19020  0.95850  0.14867  1.0000 0.129483773
H   H89       1.0  0.76830  0.80980  0.48200  1.0000 0.129483773
H   H90       1.0  0.04150  0.23170  0.81533  1.0000 0.129483773
C   C1        1.0  0.02600  0.19940  0.03910  1.0000 0.5859962291
C   C2        1.0  0.82660  0.02600  0.87243  1.0000 0.5859962291
C   C3        1.0  0.80060  0.82660  0.70577  1.0000 0.5859962291
C   C4        1.0  0.97400  0.80060  0.53910  1.0000 0.5859962291
C   C5        1.0  0.17340  0.97400  0.37243  1.0000 0.5859962291
C   C6        1.0  0.19940  0.17340  0.20577  1.0000 0.5859962291
C   C7        1.0  0.82660  0.80060  0.96090  1.0000 0.5859962291
C   C8        1.0  0.97400  0.17340  0.29423  1.0000 0.5859962291
C   C9        1.0  0.19940  0.02600  0.62757  1.0000 0.5859962291
C   C10       1.0  0.80060  0.97400  0.12757  1.0000 0.5859962291
C   C11       1.0  0.17340  0.19940  0.46090  1.0000 0.5859962291
C   C12       1.0  0.02600  0.82660  0.79423  1.0000 0.5859962291
C   C13       1.0  0.09270  0.30200  0.04480  1.0000 -0.0345487757
C   C14       1.0  0.79070  0.09270  0.87813  1.0000 -0.0345487757
C   C15       1.0  0.69800  0.79070  0.71147  1.0000 -0.0345487757
C   C16       1.0  0.90730  0.69800  0.54480  1.0000 -0.0345487757
C   C17       1.0  0.20930  0.90730  0.37813  1.0000 -0.0345487757
C   C18       1.0  0.30200  0.20930  0.21147  1.0000 -0.0345487757
C   C19       1.0  0.79070  0.69800  0.95520  1.0000 -0.0345487757
C   C20       1.0  0.90730  0.20930  0.28853  1.0000 -0.0345487757
C   C21       1.0  0.30200  0.09270  0.62187  1.0000 -0.0345487757
C   C22       1.0  0.69800  0.90730  0.12187  1.0000 -0.0345487757
C   C23       1.0  0.20930  0.30200  0.45520  1.0000 -0.0345487757
C   C24       1.0  0.09270  0.79070  0.78853  1.0000 -0.0345487757
C   C25       1.0  0.07020  0.36250  0.01970  1.0000 -0.0951951457
C   C26       1.0  0.70770  0.07020  0.85303  1.0000 -0.0951951457
C   C27       1.0  0.63750  0.70770  0.68637  1.0000 -0.0944644673
C   C28       1.0  0.92980  0.63750  0.51970  1.0000 -0.0944644673
C   C29       1.0  0.29230  0.92980  0.35303  1.0000 -0.0944644673
C   C30       1.0  0.36250  0.29230  0.18637  1.0000 -0.0951951457
C   C31       1.0  0.70770  0.63750  0.98030  1.0000 -0.0944644673
C   C32       1.0  0.92980  0.29230  0.31363  1.0000 -0.0951951457
C   C33       1.0  0.36250  0.07020  0.64697  1.0000 -0.0951951457
C   C34       1.0  0.63750  0.92980  0.14697  1.0000 -0.0944644673
C   C35       1.0  0.29230  0.36250  0.48030  1.0000 -0.0944644673
C   C36       1.0  0.07020  0.70770  0.81363  1.0000 -0.0951951457
C   C37       1.0  0.12730  0.45990  0.02620  1.0000 -0.1584928633
C   C38       1.0  0.66740  0.12730  0.85953  1.0000 -0.1584928633
C   C39       1.0  0.54010  0.66740  0.69287  1.0000 -0.1584928633
C   C40       1.0  0.87270  0.54010  0.52620  1.0000 -0.1584928633
C   C41       1.0  0.33260  0.87270  0.35953  1.0000 -0.1584928633
C   C42       1.0  0.45990  0.33260  0.19287  1.0000 -0.1584928633
C   C43       1.0  0.66740  0.54010  0.97380  1.0000 -0.1584928633
C   C44       1.0  0.87270  0.33260  0.30713  1.0000 -0.1584928633
C   C45       1.0  0.45990  0.12730  0.64047  1.0000 -0.1584928633
C   C46       1.0  0.54010  0.87270  0.14047  1.0000 -0.1584928633
C   C47       1.0  0.33260  0.45990  0.47380  1.0000 -0.1584928633
C   C48       1.0  0.12730  0.66740  0.80713  1.0000 -0.1584928633
C   C49       1.0  0.20550  0.49660  0.06040  1.0000 0.0682746866
C   C50       1.0  0.70890  0.20550  0.89373  1.0000 0.0682746866
C   C51       1.0  0.50340  0.70890  0.72707  1.0000 0.0682746866
C   C52       1.0  0.79450  0.50340  0.56040  1.0000 0.0682746866
C   C53       1.0  0.29110  0.79450  0.39373  1.0000 0.0682746866
C   C54       1.0  0.49660  0.29110  0.22707  1.0000 0.0682746866
C   C55       1.0  0.70890  0.50340  0.93960  1.0000 0.0682746866
C   C56       1.0  0.79450  0.29110  0.27293  1.0000 0.0682746866
C   C57       1.0  0.49660  0.20550  0.60627  1.0000 0.0682746866
C   C58       1.0  0.50340  0.79450  0.10627  1.0000 0.0682746866
C   C59       1.0  0.29110  0.49660  0.43960  1.0000 0.0682746866
C   C60       1.0  0.20550  0.70890  0.77293  1.0000 0.0682746866
C   C61       1.0  0.22770  0.43260  0.08530  1.0000 -0.1497173186
C   C62       1.0  0.79510  0.22770  0.91863  1.0000 -0.1497173186
C   C63       1.0  0.56740  0.79510  0.75197  1.0000 -0.1497173186
C   C64       1.0  0.77230  0.56740  0.58530  1.0000 -0.1497173186
C   C65       1.0  0.20490  0.77230  0.41863  1.0000 -0.1497173186
C   C66       1.0  0.43260  0.20490  0.25197  1.0000 -0.1497173186
C   C67       1.0  0.79510  0.56740  0.91470  1.0000 -0.1497173186
C   C68       1.0  0.77230  0.20490  0.24803  1.0000 -0.1497173186
C   C69       1.0  0.43260  0.22770  0.58137  1.0000 -0.1497173186
C   C70       1.0  0.56740  0.77230  0.08137  1.0000 -0.1497173186
C   C71       1.0  0.20490  0.43260  0.41470  1.0000 -0.1497173186
C   C72       1.0  0.22770  0.79510  0.74803  1.0000 -0.1497173186
C   C73       1.0  0.17270  0.33610  0.07730  1.0000 -0.0944644673
C   C74       1.0  0.83660  0.17270  0.91063  1.0000 -0.0944644673
C   C75       1.0  0.66390  0.83660  0.74397  1.0000 -0.0944644673
C   C76       1.0  0.82730  0.66390  0.57730  1.0000 -0.0944644673
C   C77       1.0  0.16340  0.82730  0.41063  1.0000 -0.0944644673
C   C78       1.0  0.33610  0.16340  0.24397  1.0000 -0.0944644673
C   C79       1.0  0.83660  0.66390  0.92270  1.0000 -0.0944644673
C   C80       1.0  0.82730  0.16340  0.25603  1.0000 -0.0944644673
C   C81       1.0  0.33610  0.17270  0.58937  1.0000 -0.0944644673
C   C82       1.0  0.66390  0.82730  0.08937  1.0000 -0.0944644673
C   C83       1.0  0.16340  0.33610  0.42270  1.0000 -0.0944644673
C   C84       1.0  0.17270  0.83660  0.75603  1.0000 -0.0944644673
C   C85       1.0  0.25950  0.59800  0.07240  1.0000 0.079029976
C   C86       1.0  0.66150  0.25950  0.90573  1.0000 0.079029976
C   C87       1.0  0.40200  0.66150  0.73907  1.0000 0.079029976
C   C88       1.0  0.74050  0.40200  0.57240  1.0000 0.079029976
C   C89       1.0  0.33850  0.74050  0.40573  1.0000 0.079029976
C   C90       1.0  0.59800  0.33850  0.23907  1.0000 0.079029976
C   C91       1.0  0.66150  0.40200  0.92760  1.0000 0.079029976
C   C92       1.0  0.74050  0.33850  0.26093  1.0000 0.079029976
C   C93       1.0  0.59800  0.25950  0.59427  1.0000 0.079029976
C   C94       1.0  0.40200  0.74050  0.09427  1.0000 0.079029976
C   C95       1.0  0.33850  0.59800  0.42760  1.0000 0.079029976
C   C96       1.0  0.25950  0.66150  0.76093  1.0000 0.079029976
C   C97       1.0  0.35380  0.64620  0.08333  1.0000 -0.187397228
C   C98       1.0  0.70760  0.35380  0.91667  1.0000 -0.187397228
C   C99       1.0  0.35380  0.70760  0.75000  1.0000 -0.187397228
C   C100      1.0  0.64620  0.35380  0.58333  1.0000 -0.187397228
C   C101      1.0  0.29240  0.64620  0.41667  1.0000 -0.187397228
C   C102      1.0  0.64620  0.29240  0.25000  1.0000 -0.187397228
C   C103      1.0  0.21290  0.65080  0.07100  1.0000 -0.1961042248
C   C104      1.0  0.56210  0.21290  0.90433  1.0000 -0.1961042248
C   C105      1.0  0.34920  0.56210  0.73767  1.0000 -0.1961042248
C   C106      1.0  0.78710  0.34920  0.57100  1.0000 -0.1961042248
C   C107      1.0  0.43790  0.78710  0.40433  1.0000 -0.1961042248
C   C108      1.0  0.65080  0.43790  0.23767  1.0000 -0.1961042248
C   C109      1.0  0.56210  0.34920  0.92900  1.0000 -0.1961042248
C   C110      1.0  0.78710  0.43790  0.26233  1.0000 -0.1961042248
C   C111      1.0  0.65080  0.21290  0.59567  1.0000 -0.1961042248
C   C112      1.0  0.34920  0.78710  0.09567  1.0000 -0.1961042248
C   C113      1.0  0.43790  0.65080  0.42900  1.0000 -0.1961042248
C   C114      1.0  0.21290  0.56210  0.76233  1.0000 -0.1961042248
C   C115      1.0  0.25770  0.74230  0.08333  1.0000 0.079029976
C   C116      1.0  0.51540  0.25770  0.91667  1.0000 0.079029976
C   C117      1.0  0.25770  0.51540  0.75000  1.0000 0.079029976
C   C118      1.0  0.74230  0.25770  0.58333  1.0000 0.079029976
C   C119      1.0  0.48460  0.74230  0.41667  1.0000 0.079029976
C   C120      1.0  0.74230  0.48460  0.25000  1.0000 0.079029976
C   C121      1.0  0.20470  0.79530  0.08333  1.0000 0.0852605812
C   C122      1.0  0.40940  0.20470  0.91667  1.0000 0.0852605812
C   C123      1.0  0.20470  0.40940  0.75000  1.0000 0.0852605812
C   C124      1.0  0.79530  0.20470  0.58333  1.0000 0.0852605812
C   C125      1.0  0.59060  0.79530  0.41667  1.0000 0.0852605812
C   C126      1.0  0.79530  0.59060  0.25000  1.0000 0.0852605812
C   C127      1.0  0.13720  0.77620  0.04350  1.0000 -0.1497173186
C   C128      1.0  0.36100  0.13720  0.87683  1.0000 -0.1497173186
C   C129      1.0  0.22380  0.36100  0.71017  1.0000 -0.1497173186
C   C130      1.0  0.86280  0.22380  0.54350  1.0000 -0.1497173186
C   C131      1.0  0.63900  0.86280  0.37683  1.0000 -0.1497173186
C   C132      1.0  0.77620  0.63900  0.21017  1.0000 -0.1497173186
C   C133      1.0  0.36100  0.22380  0.95650  1.0000 -0.1497173186
C   C134      1.0  0.86280  0.63900  0.28983  1.0000 -0.1497173186
C   C135      1.0  0.77620  0.13720  0.62317  1.0000 -0.1497173186
C   C136      1.0  0.22380  0.86280  0.12317  1.0000 -0.1497173186
C   C137      1.0  0.63900  0.77620  0.45650  1.0000 -0.1497173186
C   C138      1.0  0.13720  0.36100  0.78983  1.0000 -0.1497173186
C   C139      1.0  0.08780  0.82380  0.04400  1.0000 -0.0951951457
C   C140      1.0  0.26400  0.08780  0.87733  1.0000 -0.0944644673
C   C141      1.0  0.17620  0.26400  0.71067  1.0000 -0.0944644673
C   C142      1.0  0.91220  0.17620  0.54400  1.0000 -0.0951951457
C   C143      1.0  0.73600  0.91220  0.37733  1.0000 -0.0951951457
C   C144      1.0  0.82380  0.73600  0.21067  1.0000 -0.0944644673
C   C145      1.0  0.26400  0.17620  0.95600  1.0000 -0.0944644673
C   C146      1.0  0.91220  0.73600  0.28933  1.0000 -0.0944644673
C   C147      1.0  0.82380  0.08780  0.62267  1.0000 -0.0951951457
C   C148      1.0  0.17620  0.91220  0.12267  1.0000 -0.0951951457
C   C149      1.0  0.73600  0.82380  0.45600  1.0000 -0.0951951457
C   C150      1.0  0.08780  0.26400  0.78933  1.0000 -0.0944644673
C   C151      1.0  0.10730  0.89270  0.08333  1.0000 -0.0383397224
C   C152      1.0  0.21460  0.10730  0.91667  1.0000 -0.0383397224
C   C153      1.0  0.10730  0.21460  0.75000  1.0000 -0.0383397224
C   C154      1.0  0.89270  0.10730  0.58333  1.0000 -0.0383397224
C   C155      1.0  0.78540  0.89270  0.41667  1.0000 -0.0383397224
C   C156      1.0  0.89270  0.78540  0.25000  1.0000 -0.0383397224
C   C157      1.0  0.05510  0.94490  0.08333  1.0000 0.6211648719
C   C158      1.0  0.11020  0.05510  0.91667  1.0000 0.6211648719
C   C159      1.0  0.05510  0.11020  0.75000  1.0000 0.6211648719
C   C160      1.0  0.94490  0.05510  0.58333  1.0000 0.6211648719
C   C161      1.0  0.88980  0.94490  0.41667  1.0000 0.6211648719
C   C162      1.0  0.94490  0.88980  0.25000  1.0000 0.6211648719
O   O1        1.0  0.03590  0.14180  0.06980  1.0000 -0.6720609926
O   O2        1.0  0.89410  0.03590  0.90313  1.0000 -0.6720609926
O   O3        1.0  0.85820  0.89410  0.73647  1.0000 -0.6720609926
O   O4        1.0  0.96410  0.85820  0.56980  1.0000 -0.6720609926
O   O5        1.0  0.10590  0.96410  0.40313  1.0000 -0.6720609926
O   O6        1.0  0.14180  0.10590  0.23647  1.0000 -0.6720609926
O   O7        1.0  0.89410  0.85820  0.93020  1.0000 -0.6720609926
O   O8        1.0  0.96410  0.10590  0.26353  1.0000 -0.6720609926
O   O9        1.0  0.14180  0.03590  0.59687  1.0000 -0.6720609926
O   O10       1.0  0.85820  0.96410  0.09687  1.0000 -0.6720609926
O   O11       1.0  0.10590  0.14180  0.43020  1.0000 -0.6720609926
O   O12       1.0  0.03590  0.89410  0.76353  1.0000 -0.6720609926
O   O13       1.0  0.96300  0.17150  0.00440  1.0000 -0.567183938
O   O14       1.0  0.79150  0.96300  0.83773  1.0000 -0.567183938
O   O15       1.0  0.82850  0.79150  0.67107  1.0000 -0.567183938
O   O16       1.0  0.03700  0.82850  0.50440  1.0000 -0.567183938
O   O17       1.0  0.20850  0.03700  0.33773  1.0000 -0.567183938
O   O18       1.0  0.17150  0.20850  0.17107  1.0000 -0.567183938
O   O19       1.0  0.79150  0.82850  0.99560  1.0000 -0.567183938
O   O20       1.0  0.03700  0.20850  0.32893  1.0000 -0.567183938
O   O21       1.0  0.17150  0.96300  0.66227  1.0000 -0.567183938
O   O22       1.0  0.82850  0.03700  0.16227  1.0000 -0.567183938
O   O23       1.0  0.20850  0.17150  0.49560  1.0000 -0.567183938
O   O24       1.0  0.96300  0.79150  0.82893  1.0000 -0.567183938
O   O25       1.0  0.99840  0.92820  0.04490  1.0000 -0.6059624864
O   O26       1.0  0.07020  0.99840  0.87823  1.0000 -0.6059624864
O   O27       1.0  0.07180  0.07020  0.71157  1.0000 -0.6059624864
O   O28       1.0  0.00160  0.07180  0.54490  1.0000 -0.6059624864
O   O29       1.0  0.92980  0.00160  0.37823  1.0000 -0.6059624864
O   O30       1.0  0.92820  0.92980  0.21157  1.0000 -0.6059624864
O   O31       1.0  0.07020  0.07180  0.95510  1.0000 -0.6059624864
O   O32       1.0  0.00160  0.92980  0.28843  1.0000 -0.6059624864
O   O33       1.0  0.92820  0.99840  0.62177  1.0000 -0.6059624864
O   O34       1.0  0.07180  0.00160  0.12177  1.0000 -0.6059624864
O   O35       1.0  0.92980  0.92820  0.45510  1.0000 -0.6059624864
O   O36       1.0  0.99840  0.07020  0.78843  1.0000 -0.6059624864
