# DDEC6 charges by PACMAN v1.1 (https://github.com/mtap-research/PACMAN-charge/)
data_2012[CuSi][scu]3[ASR]1
_chemical_formula_sum              "Cu8 Si2 H24 C64 O32"
_cell_length_a       17.492
_cell_length_b       17.492
_cell_length_c       9.105
_cell_angle_alpha    90
_cell_angle_beta     90
_cell_angle_gamma    90

_symmetry_space_group_name_H-M    "P 1"
_symmetry_Int_Tables_number       1

loop_
  _symmetry_equiv_pos_as_xyz
  'x, y, z'

loop_
  _atom_site_type_symbol
  _atom_site_label
  _atom_site_symmetry_multiplicity
  _atom_site_fract_x
  _atom_site_fract_y
  _atom_site_fract_z
  _atom_site_occupancy
  _atom_site_charge
Cu  Cu1       1.0  0.20628  0.29372  0.58487  1.0000 0.8673182459
Cu  Cu2       1.0  0.79372  0.70628  0.58487  1.0000 0.8673182459
Cu  Cu3       1.0  0.79372  0.29372  0.58487  1.0000 0.8673182459
Cu  Cu4       1.0  0.20628  0.70628  0.58487  1.0000 0.8673182459
Cu  Cu5       1.0  0.70628  0.20628  0.41513  1.0000 0.8673182459
Cu  Cu6       1.0  0.29372  0.79372  0.41513  1.0000 0.8673182459
Cu  Cu7       1.0  0.29372  0.20628  0.41513  1.0000 0.8673182459
Cu  Cu8       1.0  0.70628  0.79372  0.41513  1.0000 0.8673182459
Si  Si1       1.0  0.50000  0.50000  0.00000  1.0000 0.6291713298
Si  Si2       1.0  0.00000  0.00000  0.00000  1.0000 0.6291713298
H   H1        1.0  0.40170  0.38520  0.13990  1.0000 0.1206491313
H   H2        1.0  0.59830  0.61480  0.13990  1.0000 0.1206491313
H   H3        1.0  0.88520  0.09830  0.13990  1.0000 0.1206491313
H   H4        1.0  0.11480  0.90170  0.13990  1.0000 0.1206491313
H   H5        1.0  0.90170  0.11480  0.86010  1.0000 0.1206491313
H   H6        1.0  0.09830  0.88520  0.86010  1.0000 0.1206491313
H   H7        1.0  0.38520  0.40170  0.86010  1.0000 0.1206491313
H   H8        1.0  0.61480  0.59830  0.86010  1.0000 0.1206491313
H   H9        1.0  0.09830  0.11480  0.86010  1.0000 0.1206491313
H   H10       1.0  0.90170  0.88520  0.86010  1.0000 0.1206491313
H   H11       1.0  0.61480  0.40170  0.86010  1.0000 0.1206491313
H   H12       1.0  0.38520  0.59830  0.86010  1.0000 0.1206491313
H   H13       1.0  0.59830  0.38520  0.13990  1.0000 0.1206491313
H   H14       1.0  0.40170  0.61480  0.13990  1.0000 0.1206491313
H   H15       1.0  0.11480  0.09830  0.13990  1.0000 0.1206491313
H   H16       1.0  0.88520  0.90170  0.13990  1.0000 0.1206491313
H   H17       1.0  0.25220  0.50000  0.38960  1.0000 0.1421072216
H   H18       1.0  0.74780  0.50000  0.38960  1.0000 0.1421072216
H   H19       1.0  0.00000  0.24780  0.38960  1.0000 0.1421072216
H   H20       1.0  0.00000  0.75220  0.38960  1.0000 0.1421072216
H   H21       1.0  0.75220  0.00000  0.61040  1.0000 0.1421072216
H   H22       1.0  0.24780  0.00000  0.61040  1.0000 0.1421072216
H   H23       1.0  0.50000  0.25220  0.61040  1.0000 0.1421072216
H   H24       1.0  0.50000  0.74780  0.61040  1.0000 0.1421072216
C   C1        1.0  0.41250  0.50000  0.12050  1.0000 -0.1869588016
C   C2        1.0  0.58750  0.50000  0.12050  1.0000 -0.1869588016
C   C3        1.0  0.00000  0.08750  0.12050  1.0000 -0.1869588016
C   C4        1.0  0.00000  0.91250  0.12050  1.0000 -0.1869588016
C   C5        1.0  0.91250  0.00000  0.87950  1.0000 -0.1869588016
C   C6        1.0  0.08750  0.00000  0.87950  1.0000 -0.1869588016
C   C7        1.0  0.50000  0.41250  0.87950  1.0000 -0.1869588016
C   C8        1.0  0.50000  0.58750  0.87950  1.0000 -0.1869588016
C   C9        1.0  0.38190  0.43145  0.17310  1.0000 -0.0913562312
C   C10       1.0  0.61810  0.56855  0.17310  1.0000 -0.0913562312
C   C11       1.0  0.93145  0.11810  0.17310  1.0000 -0.0913562312
C   C12       1.0  0.06855  0.88190  0.17310  1.0000 -0.0913562312
C   C13       1.0  0.88190  0.06855  0.82690  1.0000 -0.0913562312
C   C14       1.0  0.11810  0.93145  0.82690  1.0000 -0.0913562312
C   C15       1.0  0.43145  0.38190  0.82690  1.0000 -0.0913562312
C   C16       1.0  0.56855  0.61810  0.82690  1.0000 -0.0913562312
C   C17       1.0  0.11810  0.06855  0.82690  1.0000 -0.0913562312
C   C18       1.0  0.88190  0.93145  0.82690  1.0000 -0.0913562312
C   C19       1.0  0.56855  0.38190  0.82690  1.0000 -0.0913562312
C   C20       1.0  0.43145  0.61810  0.82690  1.0000 -0.0913562312
C   C21       1.0  0.61810  0.43145  0.17310  1.0000 -0.0913562312
C   C22       1.0  0.38190  0.56855  0.17310  1.0000 -0.0913562312
C   C23       1.0  0.06855  0.11810  0.17310  1.0000 -0.0913562312
C   C24       1.0  0.93145  0.88190  0.17310  1.0000 -0.0913562312
C   C25       1.0  0.32230  0.43130  0.27480  1.0000 -0.0204863234
C   C26       1.0  0.67770  0.56870  0.27480  1.0000 -0.0204863234
C   C27       1.0  0.93130  0.17770  0.27480  1.0000 -0.0204863234
C   C28       1.0  0.06870  0.82230  0.27480  1.0000 -0.0204863234
C   C29       1.0  0.82230  0.06870  0.72520  1.0000 -0.0204863234
C   C30       1.0  0.17770  0.93130  0.72520  1.0000 -0.0204863234
C   C31       1.0  0.43130  0.32230  0.72520  1.0000 -0.0204863234
C   C32       1.0  0.56870  0.67770  0.72520  1.0000 -0.0204863234
C   C33       1.0  0.17770  0.06870  0.72520  1.0000 -0.0204863234
C   C34       1.0  0.82230  0.93130  0.72520  1.0000 -0.0204863234
C   C35       1.0  0.56870  0.32230  0.72520  1.0000 -0.0204863234
C   C36       1.0  0.43130  0.67770  0.72520  1.0000 -0.0204863234
C   C37       1.0  0.67770  0.43130  0.27480  1.0000 -0.0204863234
C   C38       1.0  0.32230  0.56870  0.27480  1.0000 -0.0204863234
C   C39       1.0  0.06870  0.17770  0.27480  1.0000 -0.0204863234
C   C40       1.0  0.93130  0.82230  0.27480  1.0000 -0.0204863234
C   C41       1.0  0.29270  0.50000  0.32330  1.0000 -0.0913562312
C   C42       1.0  0.70730  0.50000  0.32330  1.0000 -0.0913562312
C   C43       1.0  0.00000  0.20730  0.32330  1.0000 -0.0913562312
C   C44       1.0  0.00000  0.79270  0.32330  1.0000 -0.0913562312
C   C45       1.0  0.79270  0.00000  0.67670  1.0000 -0.0913562312
C   C46       1.0  0.20730  0.00000  0.67670  1.0000 -0.0913562312
C   C47       1.0  0.50000  0.29270  0.67670  1.0000 -0.0913562312
C   C48       1.0  0.50000  0.70730  0.67670  1.0000 -0.0913562312
C   C49       1.0  0.29160  0.35950  0.34120  1.0000 0.5835135163
C   C50       1.0  0.70840  0.64050  0.34120  1.0000 0.5835135163
C   C51       1.0  0.85950  0.20840  0.34120  1.0000 0.5835135163
C   C52       1.0  0.14050  0.79160  0.34120  1.0000 0.5835135163
C   C53       1.0  0.79160  0.14050  0.65880  1.0000 0.5835135163
C   C54       1.0  0.20840  0.85950  0.65880  1.0000 0.5835135163
C   C55       1.0  0.35950  0.29160  0.65880  1.0000 0.5835135163
C   C56       1.0  0.64050  0.70840  0.65880  1.0000 0.5835135163
C   C57       1.0  0.20840  0.14050  0.65880  1.0000 0.5835135163
C   C58       1.0  0.79160  0.85950  0.65880  1.0000 0.5835135163
C   C59       1.0  0.64050  0.29160  0.65880  1.0000 0.5835135163
C   C60       1.0  0.35950  0.70840  0.65880  1.0000 0.5835135163
C   C61       1.0  0.70840  0.35950  0.34120  1.0000 0.5835135163
C   C62       1.0  0.29160  0.64050  0.34120  1.0000 0.5835135163
C   C63       1.0  0.14050  0.20840  0.34120  1.0000 0.5835135163
C   C64       1.0  0.85950  0.79160  0.34120  1.0000 0.5835135163
O   O1        1.0  0.24379  0.36780  0.44110  1.0000 -0.5243738113
O   O2        1.0  0.75621  0.63220  0.44110  1.0000 -0.5243738113
O   O3        1.0  0.86780  0.25621  0.44110  1.0000 -0.5243738113
O   O4        1.0  0.13220  0.74379  0.44110  1.0000 -0.5243738113
O   O5        1.0  0.74379  0.13220  0.55890  1.0000 -0.5243738113
O   O6        1.0  0.25621  0.86780  0.55890  1.0000 -0.5243738113
O   O7        1.0  0.36780  0.24379  0.55890  1.0000 -0.5243738113
O   O8        1.0  0.63220  0.75621  0.55890  1.0000 -0.5243738113
O   O9        1.0  0.25621  0.13220  0.55890  1.0000 -0.5243738113
O   O10       1.0  0.74379  0.86780  0.55890  1.0000 -0.5243738113
O   O11       1.0  0.63220  0.24379  0.55890  1.0000 -0.5243738113
O   O12       1.0  0.36780  0.75621  0.55890  1.0000 -0.5243738113
O   O13       1.0  0.75621  0.36780  0.44110  1.0000 -0.5243738113
O   O14       1.0  0.24379  0.63220  0.44110  1.0000 -0.5243738113
O   O15       1.0  0.13220  0.25621  0.44110  1.0000 -0.5243738113
O   O16       1.0  0.86780  0.74379  0.44110  1.0000 -0.5243738113
O   O17       1.0  0.31750  0.29700  0.29550  1.0000 -0.5121479152
O   O18       1.0  0.68250  0.70300  0.29550  1.0000 -0.5121479152
O   O19       1.0  0.79700  0.18250  0.29550  1.0000 -0.5121479152
O   O20       1.0  0.20300  0.81750  0.29550  1.0000 -0.5121479152
O   O21       1.0  0.81750  0.20300  0.70450  1.0000 -0.5121479152
O   O22       1.0  0.18250  0.79700  0.70450  1.0000 -0.5121479152
O   O23       1.0  0.29700  0.31750  0.70450  1.0000 -0.5121479152
O   O24       1.0  0.70300  0.68250  0.70450  1.0000 -0.5121479152
O   O25       1.0  0.18250  0.20300  0.70450  1.0000 -0.5121479152
O   O26       1.0  0.81750  0.79700  0.70450  1.0000 -0.5121479152
O   O27       1.0  0.70300  0.31750  0.70450  1.0000 -0.5121479152
O   O28       1.0  0.29700  0.68250  0.70450  1.0000 -0.5121479152
O   O29       1.0  0.68250  0.29700  0.29550  1.0000 -0.5121479152
O   O30       1.0  0.31750  0.70300  0.29550  1.0000 -0.5121479152
O   O31       1.0  0.20300  0.18250  0.29550  1.0000 -0.5121479152
O   O32       1.0  0.79700  0.81750  0.29550  1.0000 -0.5121479152
