# DDEC6 charges by PACMAN v1.1 (https://github.com/mtap-research/PACMAN-charge/)
data_2012[Cu][dia]3[ASR]4
_chemical_formula_sum              "Cu4 H40 C56 N4 O16"
_cell_length_a       14.3098
_cell_length_b       14.3098
_cell_length_c       14.3098
_cell_angle_alpha    108.945
_cell_angle_beta     108.945
_cell_angle_gamma    110.529

_symmetry_space_group_name_H-M    "P 1"
_symmetry_Int_Tables_number       1

loop_
  _symmetry_equiv_pos_as_xyz
  'x, y, z'

loop_
  _atom_site_type_symbol
  _atom_site_label
  _atom_site_symmetry_multiplicity
  _atom_site_fract_x
  _atom_site_fract_y
  _atom_site_fract_z
  _atom_site_occupancy
  _atom_site_charge
Cu  Cu1       1.0  0.69413  0.30587  0.50000  1.0000 0.8353953404
Cu  Cu2       1.0  0.80587  0.19413  0.50000  1.0000 0.8353953404
Cu  Cu3       1.0  0.44413  0.44413  0.88826  1.0000 0.8353953404
Cu  Cu4       1.0  0.55587  0.55587  0.11174  1.0000 0.8353953404
H   H1        1.0  0.50450  0.84930  0.23320  1.0000 0.1242806452
H   H2        1.0  0.61610  0.27130  0.76680  1.0000 0.1242806452
H   H3        1.0  0.52130  0.25450  0.15520  1.0000 0.1242806452
H   H4        1.0  0.09930  0.36610  0.84480  1.0000 0.1242806452
H   H5        1.0  0.74550  0.47870  0.84480  1.0000 0.1242806452
H   H6        1.0  0.63390  0.90070  0.15520  1.0000 0.1242806452
H   H7        1.0  0.72870  0.38390  0.23320  1.0000 0.1242806452
H   H8        1.0  0.15070  0.49550  0.76680  1.0000 0.1242806452
H   H9        1.0  0.32740  0.68340  0.10580  1.0000 0.1269760392
H   H10       1.0  0.57760  0.22160  0.89420  1.0000 0.1269760392
H   H11       1.0  0.47160  0.07740  0.14400  1.0000 0.1269760392
H   H12       1.0  0.93340  0.32760  0.85600  1.0000 0.1269760392
H   H13       1.0  0.92260  0.52840  0.85600  1.0000 0.1269760392
H   H14       1.0  0.67240  0.06660  0.14400  1.0000 0.1269760392
H   H15       1.0  0.77840  0.42240  0.10580  1.0000 0.1269760392
H   H16       1.0  0.31660  0.67260  0.89420  1.0000 0.1269760392
H   H17       1.0  0.17680  0.86980  0.15520  1.0000 0.1269760392
H   H18       1.0  0.71460  0.02160  0.84480  1.0000 0.1269760392
H   H19       1.0  0.27160  0.92680  0.80700  1.0000 0.1269760392
H   H20       1.0  0.11980  0.46460  0.19300  1.0000 0.1269760392
H   H21       1.0  0.07320  0.72840  0.19300  1.0000 0.1269760392
H   H22       1.0  0.53540  0.88020  0.80700  1.0000 0.1269760392
H   H23       1.0  0.97840  0.28540  0.15520  1.0000 0.1269760392
H   H24       1.0  0.13020  0.82320  0.84480  1.0000 0.1269760392
H   H25       1.0  0.35070  0.03080  0.27730  1.0000 0.1269760392
H   H26       1.0  0.75350  0.07340  0.72270  1.0000 0.1269760392
H   H27       1.0  0.32340  0.10070  0.81990  1.0000 0.1269760392
H   H28       1.0  0.28080  0.50350  0.18010  1.0000 0.1269760392
H   H29       1.0  0.89930  0.67660  0.18010  1.0000 0.1269760392
H   H30       1.0  0.49650  0.71920  0.81990  1.0000 0.1269760392
H   H31       1.0  0.92660  0.24650  0.27730  1.0000 0.1269760392
H   H32       1.0  0.96920  0.64930  0.72270  1.0000 0.1269760392
H   H33       1.0  0.11660  0.65130  0.96510  1.0000 0.2584876312
H   H34       1.0  0.68620  0.15150  0.03490  1.0000 0.2584876312
H   H35       1.0  0.40150  0.86660  0.96530  1.0000 0.2584876312
H   H36       1.0  0.90130  0.43620  0.03470  1.0000 0.2584876312
H   H37       1.0  0.13340  0.59850  0.03470  1.0000 0.2584876312
H   H38       1.0  0.56380  0.09870  0.96530  1.0000 0.2584876312
H   H39       1.0  0.84850  0.31380  0.96510  1.0000 0.2584876312
H   H40       1.0  0.34870  0.88340  0.03490  1.0000 0.2584876312
C   C1        1.0  0.56109  0.06589  0.35160  1.0000 0.5561523331
C   C2        1.0  0.71429  0.20949  0.64840  1.0000 0.5561523331
C   C3        1.0  0.45949  0.31109  0.99520  1.0000 0.5561523331
C   C4        1.0  0.31589  0.46429  0.00480  1.0000 0.5561523331
C   C5        1.0  0.68891  0.54051  0.00480  1.0000 0.5561523331
C   C6        1.0  0.53571  0.68411  0.99520  1.0000 0.5561523331
C   C7        1.0  0.79051  0.28571  0.35160  1.0000 0.5561523331
C   C8        1.0  0.93411  0.43891  0.64840  1.0000 0.5561523331
C   C9        1.0  0.44669  0.95759  0.26950  1.0000 -0.0494835231
C   C10       1.0  0.68809  0.17719  0.73050  1.0000 -0.0494835231
C   C11       1.0  0.42719  0.19669  0.98910  1.0000 -0.0494835231
C   C12       1.0  0.20759  0.43809  0.01090  1.0000 -0.0494835231
C   C13       1.0  0.80331  0.57281  0.01090  1.0000 -0.0494835231
C   C14       1.0  0.56191  0.79241  0.98910  1.0000 -0.0494835231
C   C15       1.0  0.82281  0.31191  0.26950  1.0000 -0.0494835231
C   C16       1.0  0.04241  0.55331  0.73050  1.0000 -0.0494835231
C   C17       1.0  0.43790  0.85300  0.21710  1.0000 -0.1082212137
C   C18       1.0  0.63590  0.22080  0.78290  1.0000 -0.1082212137
C   C19       1.0  0.47080  0.18790  0.08490  1.0000 -0.1082212137
C   C20       1.0  0.10300  0.38590  0.91510  1.0000 -0.1082212137
C   C21       1.0  0.81210  0.52920  0.91510  1.0000 -0.1082212137
C   C22       1.0  0.61410  0.89700  0.08490  1.0000 -0.1082212137
C   C23       1.0  0.77920  0.36410  0.21710  1.0000 -0.1082212137
C   C24       1.0  0.14700  0.56210  0.78290  1.0000 -0.1082212137
C   C25       1.0  0.33220  0.75340  0.14100  1.0000 -0.226069163
C   C26       1.0  0.61240  0.19120  0.85900  1.0000 -0.226069163
C   C27       1.0  0.44120  0.08220  0.07880  1.0000 -0.226069163
C   C28       1.0  0.00340  0.36240  0.92120  1.0000 -0.226069163
C   C29       1.0  0.91780  0.55880  0.92120  1.0000 -0.226069163
C   C30       1.0  0.63760  0.99660  0.07880  1.0000 -0.226069163
C   C31       1.0  0.80880  0.38760  0.14100  1.0000 -0.226069163
C   C32       1.0  0.24660  0.66780  0.85900  1.0000 -0.226069163
C   C33       1.0  0.23260  0.76000  0.11820  1.0000 0.1578891916
C   C34       1.0  0.64180  0.11440  0.88180  1.0000 0.1578891916
C   C35       1.0  0.36440  0.98260  0.97260  1.0000 0.1578891916
C   C36       1.0  0.01000  0.39180  0.02740  1.0000 0.1578891916
C   C37       1.0  0.01740  0.63560  0.02740  1.0000 0.1578891916
C   C38       1.0  0.60820  0.99000  0.97260  1.0000 0.1578891916
C   C39       1.0  0.88560  0.35820  0.11820  1.0000 0.1578891916
C   C40       1.0  0.24000  0.76740  0.88180  1.0000 0.1578891916
C   C41       1.0  0.24280  0.86500  0.17060  1.0000 -0.2051366078
C   C42       1.0  0.69440  0.07220  0.82940  1.0000 -0.2051366078
C   C43       1.0  0.32220  0.99280  0.87780  1.0000 -0.2051366078
C   C44       1.0  0.11500  0.44440  0.12220  1.0000 -0.2051366078
C   C45       1.0  0.00720  0.67780  0.12220  1.0000 -0.2051366078
C   C46       1.0  0.55560  0.88500  0.87780  1.0000 -0.2051366078
C   C47       1.0  0.92780  0.30560  0.17060  1.0000 -0.2051366078
C   C48       1.0  0.13500  0.75720  0.82940  1.0000 -0.2051366078
C   C49       1.0  0.34640  0.96080  0.24360  1.0000 -0.1082212137
C   C50       1.0  0.71720  0.10280  0.75640  1.0000 -0.1082212137
C   C51       1.0  0.35280  0.09640  0.88560  1.0000 -0.1082212137
C   C52       1.0  0.21080  0.46720  0.11440  1.0000 -0.1082212137
C   C53       1.0  0.90360  0.64720  0.11440  1.0000 -0.1082212137
C   C54       1.0  0.53280  0.78920  0.88560  1.0000 -0.1082212137
C   C55       1.0  0.89720  0.28280  0.24360  1.0000 -0.1082212137
C   C56       1.0  0.03920  0.65360  0.75640  1.0000 -0.1082212137
N   N1        1.0  0.12500  0.65740  0.03240  1.0000 -0.3538929926
N   N2        1.0  0.62500  0.09260  0.96760  1.0000 -0.3538929926
N   N3        1.0  0.34260  0.87500  0.96760  1.0000 -0.3538929926
N   N4        1.0  0.90740  0.37500  0.03240  1.0000 -0.3538929926
O   O1        1.0  0.55882  0.15664  0.38826  1.0000 -0.5058352233
O   O2        1.0  0.76838  0.17056  0.61174  1.0000 -0.5058352233
O   O3        1.0  0.42056  0.30882  0.90218  1.0000 -0.5058352233
O   O4        1.0  0.40664  0.51838  0.09782  1.0000 -0.5058352233
O   O5        1.0  0.69118  0.57944  0.09782  1.0000 -0.5058352233
O   O6        1.0  0.48162  0.59336  0.90218  1.0000 -0.5058352233
O   O7        1.0  0.82944  0.23162  0.38826  1.0000 -0.5058352233
O   O8        1.0  0.84336  0.44118  0.61174  1.0000 -0.5058352233
O   O9        1.0  0.65032  0.05981  0.37807  1.0000 -0.5155221479
O   O10       1.0  0.68174  0.27225  0.62193  1.0000 -0.5155221479
O   O11       1.0  0.52225  0.40032  0.09051  1.0000 -0.5155221479
O   O12       1.0  0.30981  0.43174  0.90949  1.0000 -0.5155221479
O   O13       1.0  0.59968  0.47775  0.90949  1.0000 -0.5155221479
O   O14       1.0  0.56826  0.69019  0.09051  1.0000 -0.5155221479
O   O15       1.0  0.72775  0.31826  0.37807  1.0000 -0.5155221479
O   O16       1.0  0.94019  0.34968  0.62193  1.0000 -0.5155221479
