# DDEC6 charges by PACMAN v1.1 (https://github.com/mtap-research/PACMAN-charge/)
data_2012[Cu][ths]3[ASR]3
_chemical_formula_sum              "Cu8 C24 O48"
_cell_length_a       8.8052
_cell_length_b       33.7719
_cell_length_c       8.8294
_cell_angle_alpha    90
_cell_angle_beta     107.901
_cell_angle_gamma    90

_symmetry_space_group_name_H-M    "P 1"
_symmetry_Int_Tables_number       1

loop_
  _symmetry_equiv_pos_as_xyz
  'x, y, z'

loop_
  _atom_site_type_symbol
  _atom_site_label
  _atom_site_symmetry_multiplicity
  _atom_site_fract_x
  _atom_site_fract_y
  _atom_site_fract_z
  _atom_site_occupancy
  _atom_site_charge
Cu  Cu1       1.0  0.50238  0.79594  0.25304  1.0000 0.9163123034
Cu  Cu2       1.0  0.99762  0.29594  0.74696  1.0000 0.9163123034
Cu  Cu3       1.0  0.49762  0.20406  0.74696  1.0000 0.9163123034
Cu  Cu4       1.0  0.00238  0.70406  0.25304  1.0000 0.9163123034
Cu  Cu5       1.0  0.49787  0.95431  0.25755  1.0000 0.9130951129
Cu  Cu6       1.0  0.00213  0.45431  0.74245  1.0000 0.9130951129
Cu  Cu7       1.0  0.50213  0.04569  0.74245  1.0000 0.9130951129
Cu  Cu8       1.0  0.99787  0.54569  0.25755  1.0000 0.9130951129
C   C1        1.0  0.42770  0.87608  0.18130  1.0000 0.561622005
C   C2        1.0  0.07230  0.37608  0.81870  1.0000 0.561622005
C   C3        1.0  0.57230  0.12392  0.81870  1.0000 0.561622005
C   C4        1.0  0.92770  0.62392  0.18130  1.0000 0.561622005
C   C5        1.0  0.57970  0.87399  0.33010  1.0000 0.561622005
C   C6        1.0  0.92030  0.37399  0.66990  1.0000 0.561622005
C   C7        1.0  0.42030  0.12601  0.66990  1.0000 0.561622005
C   C8        1.0  0.07970  0.62601  0.33010  1.0000 0.561622005
C   C9        1.0  0.26110  0.74081  0.18550  1.0000 0.5497799329
C   C10       1.0  0.23890  0.24081  0.81450  1.0000 0.5497799329
C   C11       1.0  0.73890  0.25919  0.81450  1.0000 0.5497799329
C   C12       1.0  0.76110  0.75919  0.18550  1.0000 0.5497799329
C   C13       1.0  0.24800  0.76269  0.33530  1.0000 0.5497799329
C   C14       1.0  0.25200  0.26269  0.66470  1.0000 0.5497799329
C   C15       1.0  0.75200  0.23731  0.66470  1.0000 0.5497799329
C   C16       1.0  0.74800  0.73731  0.33530  1.0000 0.5497799329
C   C17       1.0  0.57760  0.98914  0.99770  1.0000 0.561622005
C   C18       1.0  0.92240  0.48914  0.00230  1.0000 0.561622005
C   C19       1.0  0.42240  0.01086  0.00230  1.0000 0.561622005
C   C20       1.0  0.07760  0.51086  0.99770  1.0000 0.561622005
C   C21       1.0  0.42810  0.98860  0.51200  1.0000 0.5374481641
C   C22       1.0  0.07190  0.48860  0.48800  1.0000 0.5374481641
C   C23       1.0  0.57190  0.01140  0.48800  1.0000 0.5374481641
C   C24       1.0  0.92810  0.51140  0.51200  1.0000 0.5374481641
O   O1        1.0  0.37674  0.84468  0.11345  1.0000 -0.4184597669
O   O2        1.0  0.12326  0.34468  0.88655  1.0000 -0.4184597669
O   O3        1.0  0.62326  0.15532  0.88655  1.0000 -0.4184597669
O   O4        1.0  0.87674  0.65532  0.11345  1.0000 -0.4184597669
O   O5        1.0  0.36863  0.90956  0.14280  1.0000 -0.429290954
O   O6        1.0  0.13137  0.40956  0.85720  1.0000 -0.429290954
O   O7        1.0  0.63137  0.09044  0.85720  1.0000 -0.429290954
O   O8        1.0  0.86863  0.59044  0.14280  1.0000 -0.429290954
O   O9        1.0  0.62493  0.84025  0.38180  1.0000 -0.429290954
O   O10       1.0  0.87507  0.34025  0.61820  1.0000 -0.429290954
O   O11       1.0  0.37507  0.15975  0.61820  1.0000 -0.429290954
O   O12       1.0  0.12493  0.65975  0.38180  1.0000 -0.429290954
O   O13       1.0  0.64342  0.90570  0.38434  1.0000 -0.4184597669
O   O14       1.0  0.85658  0.40570  0.61566  1.0000 -0.4184597669
O   O15       1.0  0.35658  0.09430  0.61566  1.0000 -0.4184597669
O   O16       1.0  0.14342  0.59430  0.38434  1.0000 -0.4184597669
O   O17       1.0  0.33914  0.79197  0.38029  1.0000 -0.4497224949
O   O18       1.0  0.16086  0.29197  0.61971  1.0000 -0.4497224949
O   O19       1.0  0.66086  0.20803  0.61971  1.0000 -0.4497224949
O   O20       1.0  0.83914  0.70803  0.38029  1.0000 -0.4497224949
O   O21       1.0  0.15290  0.75030  0.40140  1.0000 -0.4134924151
O   O22       1.0  0.34710  0.25030  0.59860  1.0000 -0.4134924151
O   O23       1.0  0.84710  0.24970  0.59860  1.0000 -0.4134924151
O   O24       1.0  0.65290  0.74970  0.40140  1.0000 -0.4134924151
O   O25       1.0  0.36179  0.75379  0.12542  1.0000 -0.4407997392
O   O26       1.0  0.13821  0.25379  0.87458  1.0000 -0.4407997392
O   O27       1.0  0.63821  0.24621  0.87458  1.0000 -0.4407997392
O   O28       1.0  0.86179  0.74621  0.12542  1.0000 -0.4407997392
O   O29       1.0  0.17021  0.71242  0.13643  1.0000 -0.4134924151
O   O30       1.0  0.32979  0.21242  0.86357  1.0000 -0.4134924151
O   O31       1.0  0.82979  0.28758  0.86357  1.0000 -0.4134924151
O   O32       1.0  0.67021  0.78758  0.13643  1.0000 -0.4134924151
O   O33       1.0  0.61887  0.95988  0.08931  1.0000 -0.4497224949
O   O34       1.0  0.88113  0.45988  0.91069  1.0000 -0.4497224949
O   O35       1.0  0.38113  0.04012  0.91069  1.0000 -0.4497224949
O   O36       1.0  0.11887  0.54012  0.08931  1.0000 -0.4497224949
O   O37       1.0  0.64915  0.00176  0.90800  1.0000 -0.4184597669
O   O38       1.0  0.85085  0.50176  0.09200  1.0000 -0.4184597669
O   O39       1.0  0.35085  0.99824  0.09200  1.0000 -0.4184597669
O   O40       1.0  0.14915  0.49824  0.90800  1.0000 -0.4184597669
O   O41       1.0  0.37762  0.95969  0.42450  1.0000 -0.429290954
O   O42       1.0  0.12238  0.45969  0.57550  1.0000 -0.429290954
O   O43       1.0  0.62238  0.04031  0.57550  1.0000 -0.429290954
O   O44       1.0  0.87762  0.54031  0.42450  1.0000 -0.429290954
O   O45       1.0  0.37396  0.00149  0.61758  1.0000 -0.4407997392
O   O46       1.0  0.12604  0.50149  0.38242  1.0000 -0.4407997392
O   O47       1.0  0.62604  0.99851  0.38242  1.0000 -0.4407997392
O   O48       1.0  0.87396  0.49851  0.61758  1.0000 -0.4407997392
