# DDEC6 charges by PACMAN v1.1 (https://github.com/mtap-research/PACMAN-charge/)
data_2012[Fe][nan]3[ASR]6
_chemical_formula_sum              "Fe3 H24 C26 N24 O4"
_cell_length_a       13.6683
_cell_length_b       13.6683
_cell_length_c       11.95
_cell_angle_alpha    81.1713
_cell_angle_beta     98.8287
_cell_angle_gamma    52.6089

_symmetry_space_group_name_H-M    "P 1"
_symmetry_Int_Tables_number       1

loop_
  _symmetry_equiv_pos_as_xyz
  'x, y, z'

loop_
  _atom_site_type_symbol
  _atom_site_label
  _atom_site_symmetry_multiplicity
  _atom_site_fract_x
  _atom_site_fract_y
  _atom_site_fract_z
  _atom_site_occupancy
  _atom_site_charge
Fe  Fe1       1.0  0.00000  0.00000  0.00000  1.0000 0.2422836778
Fe  Fe2       1.0  0.10522  0.89478  0.73968  1.0000 0.2887027321
Fe  Fe3       1.0  0.89478  0.10522  0.26032  1.0000 0.2887027321
H   H1        1.0  0.53290  0.46710  0.69960  1.0000 0.1132204465
H   H2        1.0  0.46710  0.53290  0.30040  1.0000 0.1132204465
H   H3        1.0  0.66020  0.33980  0.44290  1.0000 0.1194731193
H   H4        1.0  0.33980  0.66020  0.55710  1.0000 0.1194731193
H   H5        1.0  0.33810  0.08710  0.08550  1.0000 0.1132204465
H   H6        1.0  0.08710  0.33810  0.91450  1.0000 0.1132204465
H   H7        1.0  0.66190  0.91290  0.91450  1.0000 0.1132204465
H   H8        1.0  0.91290  0.66190  0.08550  1.0000 0.1132204465
H   H9        1.0  0.52580  0.86720  0.88910  1.0000 0.1194731193
H   H10       1.0  0.86720  0.52580  0.11090  1.0000 0.1132204465
H   H11       1.0  0.47420  0.13280  0.11090  1.0000 0.1132204465
H   H12       1.0  0.13280  0.47420  0.88910  1.0000 0.1132204465
H   H13       1.0  0.72140  0.27860  0.83170  1.0000 0.2812130658
H   H14       1.0  0.27860  0.72140  0.16830  1.0000 0.2812130658
H   H15       1.0  0.83210  0.16790  0.55680  1.0000 0.2812130658
H   H16       1.0  0.16790  0.83210  0.44320  1.0000 0.2812130658
H   H17       1.0  0.23580  0.00180  0.08460  1.0000 0.2667313723
H   H18       1.0  0.00180  0.23580  0.91540  1.0000 0.2667313723
H   H19       1.0  0.76420  0.99820  0.91540  1.0000 0.2667313723
H   H20       1.0  0.99820  0.76420  0.08460  1.0000 0.2667313723
H   H21       1.0  0.33590  0.90670  0.80730  1.0000 0.2812130658
H   H22       1.0  0.90670  0.33590  0.19270  1.0000 0.2812130658
H   H23       1.0  0.66410  0.09330  0.19270  1.0000 0.2812130658
H   H24       1.0  0.09330  0.66410  0.80730  1.0000 0.2812130658
C   C1        1.0  0.52210  0.47790  0.61870  1.0000 -0.1601043499
C   C2        1.0  0.47790  0.52210  0.38130  1.0000 -0.1601043499
C   C3        1.0  0.61660  0.38340  0.58280  1.0000 -0.0026621917
C   C4        1.0  0.38340  0.61660  0.41720  1.0000 -0.0026621917
C   C5        1.0  0.59650  0.40350  0.46950  1.0000 -0.140616888
C   C6        1.0  0.40350  0.59650  0.53050  1.0000 -0.140616888
C   C7        1.0  0.73650  0.26350  0.66410  1.0000 0.1531153677
C   C8        1.0  0.26350  0.73650  0.33590  1.0000 0.1579646674
C   C9        1.0  0.40300  0.05220  0.04960  1.0000 -0.1601043499
C   C10       1.0  0.05220  0.40300  0.95040  1.0000 -0.1601043499
C   C11       1.0  0.59700  0.94780  0.95040  1.0000 -0.1601043499
C   C12       1.0  0.94780  0.59700  0.04960  1.0000 -0.1601043499
C   C13       1.0  0.41300  0.97700  0.98160  1.0000 0.0017185873
C   C14       1.0  0.97700  0.41300  0.01840  1.0000 0.0017185873
C   C15       1.0  0.58700  0.02300  0.01840  1.0000 0.0017185873
C   C16       1.0  0.02300  0.58700  0.98160  1.0000 0.0017185873
C   C17       1.0  0.51400  0.92200  0.93330  1.0000 -0.1601043499
C   C18       1.0  0.92200  0.51400  0.06670  1.0000 -0.1601043499
C   C19       1.0  0.48600  0.07800  0.06670  1.0000 -0.1601043499
C   C20       1.0  0.07800  0.48600  0.93330  1.0000 -0.1601043499
C   C21       1.0  0.31630  0.96070  0.95660  1.0000 0.1194731193
C   C22       1.0  0.96070  0.31630  0.04340  1.0000 0.1194731193
C   C23       1.0  0.68370  0.03930  0.04340  1.0000 0.1194731193
C   C24       1.0  0.03930  0.68370  0.95660  1.0000 0.1194731193
C   C25       1.0  0.03130  0.03130  0.50000  1.0000 0.4205704091
C   C26       1.0  0.96870  0.96870  0.50000  1.0000 0.4205704091
N   N1        1.0  0.76840  0.23160  0.78650  1.0000 -0.2901443335
N   N2        1.0  0.23160  0.76840  0.21350  1.0000 -0.2901443335
N   N3        1.0  0.88320  0.11680  0.82210  1.0000 -0.0510683232
N   N4        1.0  0.11680  0.88320  0.17790  1.0000 -0.0510683232
N   N5        1.0  0.92100  0.07900  0.73280  1.0000 -0.0904856974
N   N6        1.0  0.07900  0.92100  0.26720  1.0000 -0.0904856974
N   N7        1.0  0.82960  0.17040  0.63150  1.0000 -0.1259107085
N   N8        1.0  0.17040  0.82960  0.36850  1.0000 -0.1259107085
N   N9        1.0  0.23803  0.98003  0.02060  1.0000 -0.2608678805
N   N10       1.0  0.98003  0.23803  0.97940  1.0000 -0.2608678805
N   N11       1.0  0.76197  0.01997  0.97940  1.0000 -0.2608678805
N   N12       1.0  0.01997  0.76197  0.02060  1.0000 -0.2608678805
N   N13       1.0  0.16536  0.95876  0.96590  1.0000 -0.0510683232
N   N14       1.0  0.95876  0.16536  0.03410  1.0000 -0.0510683232
N   N15       1.0  0.83464  0.04124  0.03410  1.0000 -0.0510683232
N   N16       1.0  0.04124  0.83464  0.96590  1.0000 -0.0510683232
N   N17       1.0  0.19490  0.93090  0.86760  1.0000 -0.1037291864
N   N18       1.0  0.93090  0.19490  0.13240  1.0000 -0.1057002785
N   N19       1.0  0.80510  0.06910  0.13240  1.0000 -0.1037291864
N   N20       1.0  0.06910  0.80510  0.86760  1.0000 -0.1057002785
N   N21       1.0  0.29268  0.92828  0.86180  1.0000 -0.1601043499
N   N22       1.0  0.92828  0.29268  0.13820  1.0000 -0.1601043499
N   N23       1.0  0.70732  0.07172  0.13820  1.0000 -0.1601043499
N   N24       1.0  0.07172  0.70732  0.86180  1.0000 -0.1601043499
O   O1        1.0  0.10334  0.00574  0.59620  1.0000 -0.4602173211
O   O2        1.0  0.00574  0.10334  0.40380  1.0000 -0.4602173211
O   O3        1.0  0.89666  0.99426  0.40380  1.0000 -0.4602173211
O   O4        1.0  0.99426  0.89666  0.59620  1.0000 -0.4602173211
