# DDEC6 charges by PACMAN v1.1 (https://github.com/mtap-research/PACMAN-charge/)
data_2012[CuMo][nan]3[ASR]1
_chemical_formula_sum              "Cu12 Mo4 H80 C104 S16 N24"
_cell_length_a       20.8675
_cell_length_b       20.8675
_cell_length_c       24.75
_cell_angle_alpha    75.4686
_cell_angle_beta     104.531
_cell_angle_gamma    153.119

_symmetry_space_group_name_H-M    "P 1"
_symmetry_Int_Tables_number       1

loop_
  _symmetry_equiv_pos_as_xyz
  'x, y, z'

loop_
  _atom_site_type_symbol
  _atom_site_label
  _atom_site_symmetry_multiplicity
  _atom_site_fract_x
  _atom_site_fract_y
  _atom_site_fract_z
  _atom_site_occupancy
  _atom_site_charge
Cu  Cu1       1.0  0.53343  0.74795  0.01049  1.0000 0.3006985749
Cu  Cu2       1.0  0.74795  0.53343  0.48951  1.0000 0.3006985749
Cu  Cu3       1.0  0.46657  0.25205  0.98951  1.0000 0.3006985749
Cu  Cu4       1.0  0.25205  0.46657  0.51049  1.0000 0.3006985749
Cu  Cu5       1.0  0.14584  0.43550  0.96181  1.0000 0.3893370333
Cu  Cu6       1.0  0.43550  0.14584  0.53819  1.0000 0.3893370333
Cu  Cu7       1.0  0.85416  0.56450  0.03819  1.0000 0.3893370333
Cu  Cu8       1.0  0.56450  0.85416  0.46181  1.0000 0.3893370333
Cu  Cu9       1.0  0.26425  0.52573  0.10828  1.0000 0.3006985749
Cu  Cu10      1.0  0.52573  0.26425  0.39172  1.0000 0.3006985749
Cu  Cu11      1.0  0.73575  0.47427  0.89172  1.0000 0.3006985749
Cu  Cu12      1.0  0.47427  0.73575  0.60828  1.0000 0.3006985749
Mo  Mo1       1.0  0.29013  0.46903  0.04004  1.0000 0.7526242959
Mo  Mo2       1.0  0.46903  0.29013  0.45996  1.0000 0.7526242959
Mo  Mo3       1.0  0.70987  0.53097  0.95996  1.0000 0.766324811
Mo  Mo4       1.0  0.53097  0.70987  0.54004  1.0000 0.763385706
H   H1        1.0  0.75530  0.04070  0.03910  1.0000 0.1003718722
H   H2        1.0  0.04070  0.75530  0.46090  1.0000 0.1003718722
H   H3        1.0  0.24470  0.95930  0.96090  1.0000 0.1003718722
H   H4        1.0  0.95930  0.24470  0.53910  1.0000 0.1003718722
H   H5        1.0  0.80310  0.19350  0.01870  1.0000 0.1281703011
H   H6        1.0  0.19350  0.80310  0.48130  1.0000 0.1281703011
H   H7        1.0  0.19690  0.80650  0.98130  1.0000 0.1281703011
H   H8        1.0  0.80650  0.19690  0.51870  1.0000 0.1281703011
H   H9        1.0  0.48320  0.93540  0.90180  1.0000 0.1281703011
H   H10       1.0  0.93540  0.48320  0.59820  1.0000 0.1281703011
H   H11       1.0  0.51680  0.06460  0.09820  1.0000 0.1281703011
H   H12       1.0  0.06460  0.51680  0.40180  1.0000 0.1281703011
H   H13       1.0  0.44030  0.78750  0.92820  1.0000 0.1083973295
H   H14       1.0  0.78750  0.44030  0.57180  1.0000 0.1083973295
H   H15       1.0  0.55970  0.21250  0.07180  1.0000 0.1083973295
H   H16       1.0  0.21250  0.55970  0.42820  1.0000 0.1083973295
H   H17       1.0  0.89410  0.48750  0.95090  1.0000 0.1003718722
H   H18       1.0  0.48750  0.89410  0.54910  1.0000 0.1003718722
H   H19       1.0  0.10590  0.51250  0.04910  1.0000 0.1003718722
H   H20       1.0  0.51250  0.10590  0.45090  1.0000 0.1003718722
H   H21       1.0  0.87240  0.35680  0.97230  1.0000 0.1281703011
H   H22       1.0  0.35680  0.87240  0.52770  1.0000 0.1281703011
H   H23       1.0  0.12760  0.64320  0.02770  1.0000 0.1281703011
H   H24       1.0  0.64320  0.12760  0.47230  1.0000 0.1281703011
H   H25       1.0  0.46580  0.02280  0.91050  1.0000 0.123624314
H   H26       1.0  0.02280  0.46580  0.58950  1.0000 0.123624314
H   H27       1.0  0.53420  0.97720  0.08950  1.0000 0.123624314
H   H28       1.0  0.97720  0.53420  0.41050  1.0000 0.123624314
H   H29       1.0  0.50730  0.17110  0.89070  1.0000 0.1003718722
H   H30       1.0  0.17110  0.50730  0.60930  1.0000 0.1003718722
H   H31       1.0  0.49270  0.82890  0.10930  1.0000 0.1003718722
H   H32       1.0  0.82890  0.49270  0.39070  1.0000 0.1003718722
H   H33       1.0  0.85270  0.01490  0.04370  1.0000 0.1003718722
H   H34       1.0  0.01490  0.85270  0.45630  1.0000 0.1003718722
H   H35       1.0  0.14730  0.98510  0.95630  1.0000 0.1003718722
H   H36       1.0  0.98510  0.14730  0.54370  1.0000 0.1003718722
H   H37       1.0  0.03570  0.10950  0.04590  1.0000 0.123624314
H   H38       1.0  0.10950  0.03570  0.45410  1.0000 0.123624314
H   H39       1.0  0.96430  0.89050  0.95410  1.0000 0.123624314
H   H40       1.0  0.89050  0.96430  0.54590  1.0000 0.123624314
H   H41       1.0  0.80690  0.82050  0.94690  1.0000 0.1281703011
H   H42       1.0  0.82050  0.80690  0.55310  1.0000 0.1281703011
H   H43       1.0  0.19310  0.17950  0.05310  1.0000 0.1281703011
H   H44       1.0  0.17950  0.19310  0.44690  1.0000 0.1281703011
H   H45       1.0  0.61720  0.71800  0.95290  1.0000 0.1003718722
H   H46       1.0  0.71800  0.61720  0.54710  1.0000 0.1003718722
H   H47       1.0  0.38280  0.28200  0.04710  1.0000 0.1003718722
H   H48       1.0  0.28200  0.38280  0.45290  1.0000 0.1003718722
H   H49       1.0  0.05540  0.23540  0.91600  1.0000 0.1003718722
H   H50       1.0  0.23540  0.05540  0.58400  1.0000 0.1003718722
H   H51       1.0  0.94460  0.76460  0.08400  1.0000 0.1003718722
H   H52       1.0  0.76460  0.94460  0.41600  1.0000 0.1003718722
H   H53       1.0  0.90400  0.07300  0.84990  1.0000 0.1281703011
H   H54       1.0  0.07300  0.90400  0.65010  1.0000 0.1281703011
H   H55       1.0  0.09600  0.92700  0.15010  1.0000 0.1281703011
H   H56       1.0  0.92700  0.09600  0.34990  1.0000 0.1281703011
H   H57       1.0  0.72610  0.09410  0.82240  1.0000 0.1281703011
H   H58       1.0  0.09410  0.72610  0.67760  1.0000 0.1281703011
H   H59       1.0  0.27390  0.90590  0.17760  1.0000 0.1281703011
H   H60       1.0  0.90590  0.27390  0.32240  1.0000 0.1281703011
H   H61       1.0  0.88810  0.26030  0.88770  1.0000 0.1003718722
H   H62       1.0  0.26030  0.88810  0.61230  1.0000 0.1003718722
H   H63       1.0  0.11190  0.73970  0.11230  1.0000 0.1003718722
H   H64       1.0  0.73970  0.11190  0.38770  1.0000 0.1003718722
H   H65       1.0  0.56700  0.73620  0.72620  1.0000 0.1003718722
H   H66       1.0  0.73620  0.56700  0.77380  1.0000 0.1003718722
H   H67       1.0  0.43300  0.26380  0.27380  1.0000 0.1003718722
H   H68       1.0  0.26380  0.43300  0.22620  1.0000 0.1003718722
H   H69       1.0  0.68700  0.85540  0.80440  1.0000 0.1281703011
H   H70       1.0  0.85540  0.68700  0.69560  1.0000 0.1281703011
H   H71       1.0  0.31300  0.14460  0.19560  1.0000 0.1281703011
H   H72       1.0  0.14460  0.31300  0.30440  1.0000 0.1281703011
H   H73       1.0  0.68910  0.05130  0.73670  1.0000 0.1281703011
H   H74       1.0  0.05130  0.68910  0.76330  1.0000 0.1281703011
H   H75       1.0  0.31090  0.94870  0.26330  1.0000 0.1281703011
H   H76       1.0  0.94870  0.31090  0.23670  1.0000 0.1281703011
H   H77       1.0  0.54530  0.90490  0.66250  1.0000 0.1003718722
H   H78       1.0  0.90490  0.54530  0.83750  1.0000 0.1003718722
H   H79       1.0  0.45470  0.09510  0.33750  1.0000 0.1003718722
H   H80       1.0  0.09510  0.45470  0.16250  1.0000 0.1003718722
C   C1        1.0  0.69686  0.01714  0.01200  1.0000 0.0678642941
C   C2        1.0  0.01714  0.69686  0.48800  1.0000 0.0617057889
C   C3        1.0  0.30314  0.98286  0.98800  1.0000 0.0617057889
C   C4        1.0  0.98286  0.30314  0.51200  1.0000 0.0678642941
C   C5        1.0  0.72694  0.11046  0.99990  1.0000 -0.191307199
C   C6        1.0  0.11046  0.72694  0.50010  1.0000 -0.191307199
C   C7        1.0  0.27306  0.88954  0.00010  1.0000 -0.191307199
C   C8        1.0  0.88954  0.27306  0.49990  1.0000 -0.191307199
C   C9        1.0  0.64300  0.07960  0.95960  1.0000 0.1003718722
C   C10       1.0  0.07960  0.64300  0.54040  1.0000 0.1003718722
C   C11       1.0  0.35700  0.92040  0.04040  1.0000 0.1003718722
C   C12       1.0  0.92040  0.35700  0.45960  1.0000 0.1003718722
C   C13       1.0  0.53782  0.95738  0.93150  1.0000 -0.191307199
C   C14       1.0  0.95738  0.53782  0.56850  1.0000 -0.191307199
C   C15       1.0  0.46218  0.04262  0.06850  1.0000 -0.191307199
C   C16       1.0  0.04262  0.46218  0.43150  1.0000 -0.191307199
C   C17       1.0  0.51393  0.87007  0.94690  1.0000 0.0617057889
C   C18       1.0  0.87007  0.51393  0.55310  1.0000 0.0617057889
C   C19       1.0  0.48607  0.12993  0.05310  1.0000 0.0617057889
C   C20       1.0  0.12993  0.48607  0.44690  1.0000 0.0617057889
C   C21       1.0  0.80750  0.39290  0.94200  1.0000 0.0678642941
C   C22       1.0  0.39290  0.80750  0.55800  1.0000 0.0678642941
C   C23       1.0  0.19250  0.60710  0.05800  1.0000 0.0678642941
C   C24       1.0  0.60710  0.19250  0.44200  1.0000 0.0678642941
C   C25       1.0  0.79537  0.31503  0.95550  1.0000 -0.1817982281
C   C26       1.0  0.31503  0.79537  0.54450  1.0000 -0.1817982281
C   C27       1.0  0.20463  0.68497  0.04450  1.0000 -0.1817982281
C   C28       1.0  0.68497  0.20463  0.45550  1.0000 -0.1817982281
C   C29       1.0  0.66656  0.17244  0.94400  1.0000 0.1003718722
C   C30       1.0  0.17244  0.66656  0.55600  1.0000 0.1003718722
C   C31       1.0  0.33344  0.82756  0.05600  1.0000 0.1003718722
C   C32       1.0  0.82756  0.33344  0.44400  1.0000 0.1003718722
C   C33       1.0  0.55504  0.11776  0.91890  1.0000 -0.1983214614
C   C34       1.0  0.11776  0.55504  0.58110  1.0000 -0.1983214614
C   C35       1.0  0.44496  0.88224  0.08110  1.0000 -0.1983214614
C   C36       1.0  0.88224  0.44496  0.41890  1.0000 -0.1983214614
C   C37       1.0  0.58166  0.20834  0.90700  1.0000 0.0807073101
C   C38       1.0  0.20834  0.58166  0.59300  1.0000 0.0807073101
C   C39       1.0  0.41834  0.79166  0.09300  1.0000 0.0807073101
C   C40       1.0  0.79166  0.41834  0.40700  1.0000 0.0807073101
C   C41       1.0  0.83882  0.96878  0.02550  1.0000 0.0397023468
C   C42       1.0  0.96878  0.83882  0.47450  1.0000 0.0397023468
C   C43       1.0  0.16118  0.03122  0.97450  1.0000 0.0397023468
C   C44       1.0  0.03122  0.16118  0.52550  1.0000 0.0397023468
C   C45       1.0  0.95092  0.02848  0.02650  1.0000 -0.191307199
C   C46       1.0  0.02848  0.95092  0.47350  1.0000 -0.191307199
C   C47       1.0  0.04908  0.97152  0.97350  1.0000 -0.191307199
C   C48       1.0  0.97152  0.04908  0.52650  1.0000 -0.191307199
C   C49       1.0  0.93916  0.97044  0.99940  1.0000 0.0907511695
C   C50       1.0  0.97044  0.93916  0.50060  1.0000 0.0907511695
C   C51       1.0  0.06084  0.02956  0.00060  1.0000 0.0907511695
C   C52       1.0  0.02956  0.06084  0.49940  1.0000 0.0907511695
C   C53       1.0  0.81610  0.85810  0.96950  1.0000 -0.2091310244
C   C54       1.0  0.85810  0.81610  0.53050  1.0000 -0.2091310244
C   C55       1.0  0.18390  0.14190  0.03050  1.0000 -0.2091310244
C   C56       1.0  0.14190  0.18390  0.46950  1.0000 -0.2091310244
C   C57       1.0  0.70270  0.79850  0.97230  1.0000 0.0617057889
C   C58       1.0  0.79850  0.70270  0.52770  1.0000 0.0617057889
C   C59       1.0  0.29730  0.20150  0.02770  1.0000 0.0617057889
C   C60       1.0  0.20150  0.29730  0.47230  1.0000 0.0617057889
C   C61       1.0  0.98870  0.20730  0.89650  1.0000 0.0678642941
C   C62       1.0  0.20730  0.98870  0.60350  1.0000 0.0678642941
C   C63       1.0  0.01130  0.79270  0.10350  1.0000 0.0678642941
C   C64       1.0  0.79270  0.01130  0.39650  1.0000 0.0678642941
C   C65       1.0  0.89815  0.10945  0.85670  1.0000 -0.2091310244
C   C66       1.0  0.10945  0.89815  0.64330  1.0000 -0.2091310244
C   C67       1.0  0.10185  0.89055  0.14330  1.0000 -0.2091310244
C   C68       1.0  0.89055  0.10185  0.35670  1.0000 -0.2091310244
C   C69       1.0  0.79792  0.06648  0.82690  1.0000 0.1003718722
C   C70       1.0  0.06648  0.79792  0.67310  1.0000 0.1003718722
C   C71       1.0  0.20208  0.93352  0.17310  1.0000 0.1003718722
C   C72       1.0  0.93352  0.20208  0.32690  1.0000 0.1003718722
C   C73       1.0  0.79370  0.12230  0.84020  1.0000 -0.191307199
C   C74       1.0  0.12230  0.79370  0.65980  1.0000 -0.191307199
C   C75       1.0  0.20630  0.87770  0.15980  1.0000 -0.191307199
C   C76       1.0  0.87770  0.20630  0.34020  1.0000 -0.191307199
C   C77       1.0  0.89060  0.22100  0.88020  1.0000 0.0807073101
C   C78       1.0  0.22100  0.89060  0.61980  1.0000 0.0807073101
C   C79       1.0  0.10940  0.77900  0.11980  1.0000 0.0807073101
C   C80       1.0  0.77900  0.10940  0.38020  1.0000 0.0807073101
C   C81       1.0  0.59080  0.80000  0.72810  1.0000 0.0617057889
C   C82       1.0  0.80000  0.59080  0.77190  1.0000 0.0678642941
C   C83       1.0  0.40920  0.20000  0.27190  1.0000 0.0617057889
C   C84       1.0  0.20000  0.40920  0.22810  1.0000 0.0678642941
C   C85       1.0  0.66493  0.87287  0.77530  1.0000 -0.2091310244
C   C86       1.0  0.87287  0.66493  0.72470  1.0000 -0.2091310244
C   C87       1.0  0.33507  0.12713  0.22470  1.0000 -0.2091310244
C   C88       1.0  0.12713  0.33507  0.27530  1.0000 -0.2091310244
C   C89       1.0  0.70808  0.97412  0.78030  1.0000 0.1003718722
C   C90       1.0  0.97412  0.70808  0.71970  1.0000 0.1003718722
C   C91       1.0  0.29192  0.02588  0.21970  1.0000 0.1003718722
C   C92       1.0  0.02588  0.29192  0.28030  1.0000 0.1003718722
C   C93       1.0  0.66400  0.98580  0.73640  1.0000 -0.191307199
C   C94       1.0  0.98580  0.66400  0.76360  1.0000 -0.191307199
C   C95       1.0  0.33600  0.01420  0.26360  1.0000 -0.191307199
C   C96       1.0  0.01420  0.33600  0.23640  1.0000 -0.191307199
C   C97       1.0  0.58040  0.89980  0.69020  1.0000 0.0807073101
C   C98       1.0  0.89980  0.58040  0.80980  1.0000 0.0807073101
C   C99       1.0  0.41960  0.10020  0.30980  1.0000 0.0807073101
C   C100      1.0  0.10020  0.41960  0.19020  1.0000 0.0807073101
C   C101      1.0  0.14480  0.58860  0.91340  1.0000 0.2537798289
C   C102      1.0  0.58860  0.14480  0.58660  1.0000 0.2537798289
C   C103      1.0  0.85520  0.41140  0.08660  1.0000 0.2537798289
C   C104      1.0  0.41140  0.85520  0.41340  1.0000 0.2537798289
S   S1        1.0  0.35230  0.56696  0.95146  1.0000 -0.562967695
S   S2        1.0  0.56696  0.35230  0.54854  1.0000 -0.562967695
S   S3        1.0  0.64770  0.43304  0.04854  1.0000 -0.562967695
S   S4        1.0  0.43304  0.64770  0.45146  1.0000 -0.562967695
S   S5        1.0  0.08746  0.34006  0.05145  1.0000 -0.562967695
S   S6        1.0  0.34006  0.08746  0.44855  1.0000 -0.562967695
S   S7        1.0  0.91254  0.65994  0.94855  1.0000 -0.562967695
S   S8        1.0  0.65994  0.91254  0.55145  1.0000 -0.562967695
S   S9        1.0  0.46342  0.64770  0.09939  1.0000 -0.5277984661
S   S10       1.0  0.64770  0.46342  0.40061  1.0000 -0.5277984661
S   S11       1.0  0.53658  0.35230  0.90061  1.0000 -0.5277984661
S   S12       1.0  0.35230  0.53658  0.59939  1.0000 -0.5277984661
S   S13       1.0  0.15909  0.68091  0.88875  1.0000 -0.4216364917
S   S14       1.0  0.68091  0.15909  0.61125  1.0000 -0.4216364917
S   S15       1.0  0.84091  0.31909  0.11125  1.0000 -0.4216364917
S   S16       1.0  0.31909  0.84091  0.38875  1.0000 -0.4216364917
N   N1        1.0  0.59137  0.89683  0.98790  1.0000 -0.191307199
N   N2        1.0  0.89683  0.59137  0.51210  1.0000 -0.191307199
N   N3        1.0  0.40863  0.10317  0.01210  1.0000 -0.191307199
N   N4        1.0  0.10317  0.40863  0.48790  1.0000 -0.191307199
N   N5        1.0  0.70508  0.34392  0.91700  1.0000 -0.1983214614
N   N6        1.0  0.34392  0.70508  0.58300  1.0000 -0.1983214614
N   N7        1.0  0.29492  0.65608  0.08300  1.0000 -0.1983214614
N   N8        1.0  0.65608  0.29492  0.41700  1.0000 -0.1983214614
N   N9        1.0  0.71110  0.85150  0.00150  1.0000 -0.1817982281
N   N10       1.0  0.85150  0.71110  0.49850  1.0000 -0.1817982281
N   N11       1.0  0.28890  0.14850  0.99850  1.0000 -0.1817982281
N   N12       1.0  0.14850  0.28890  0.50150  1.0000 -0.1817982281
N   N13       1.0  0.98691  0.26329  0.90880  1.0000 -0.191307199
N   N14       1.0  0.26329  0.98691  0.59120  1.0000 -0.191307199
N   N15       1.0  0.01309  0.73671  0.09120  1.0000 -0.191307199
N   N16       1.0  0.73671  0.01309  0.40880  1.0000 -0.191307199
N   N17       1.0  0.55025  0.81275  0.68500  1.0000 -0.1817982281
N   N18       1.0  0.81275  0.55025  0.81500  1.0000 -0.1817982281
N   N19       1.0  0.44975  0.18725  0.31500  1.0000 -0.1817982281
N   N20       1.0  0.18725  0.44975  0.18500  1.0000 -0.1817982281
N   N21       1.0  0.13131  0.52109  0.93050  1.0000 -0.4664307681
N   N22       1.0  0.52109  0.13131  0.56950  1.0000 -0.4664307681
N   N23       1.0  0.86869  0.47891  0.06950  1.0000 -0.4664307681
N   N24       1.0  0.47891  0.86869  0.43050  1.0000 -0.4664307681
