# DDEC6 charges by PACMAN v1.1 (https://github.com/mtap-research/PACMAN-charge/)
data_2012[Gd][nan]3[ASR]4
_chemical_formula_sum              "Gd8 H76 C144 N24 O48"
_cell_length_a       16.995
_cell_length_b       11.5213
_cell_length_c       27.0154
_cell_angle_alpha    90
_cell_angle_beta     98.137
_cell_angle_gamma    90

_symmetry_space_group_name_H-M    "P 1"
_symmetry_Int_Tables_number       1

loop_
  _symmetry_equiv_pos_as_xyz
  'x, y, z'

loop_
  _atom_site_type_symbol
  _atom_site_label
  _atom_site_symmetry_multiplicity
  _atom_site_fract_x
  _atom_site_fract_y
  _atom_site_fract_z
  _atom_site_occupancy
  _atom_site_charge
Gd  Gd1       1.0  0.69105  0.61987  0.75190  1.0000 2.0423036047
Gd  Gd2       1.0  0.80895  0.11987  0.24810  1.0000 2.0423036047
Gd  Gd3       1.0  0.30895  0.38013  0.24810  1.0000 2.0423036047
Gd  Gd4       1.0  0.19105  0.88013  0.75190  1.0000 2.0423036047
Gd  Gd5       1.0  0.53076  0.19120  0.24916  1.0000 2.0636625715
Gd  Gd6       1.0  0.96924  0.69120  0.75083  1.0000 2.0636625715
Gd  Gd7       1.0  0.46924  0.80880  0.75083  1.0000 2.0636625715
Gd  Gd8       1.0  0.03076  0.30880  0.24916  1.0000 2.0636625715
H   H1        1.0  0.62130  0.43220  0.89490  1.0000 0.1099659002
H   H2        1.0  0.87870  0.93220  0.10509  1.0000 0.1099659002
H   H3        1.0  0.37870  0.56780  0.10509  1.0000 0.1099659002
H   H4        1.0  0.12130  0.06780  0.89490  1.0000 0.1099659002
H   H5        1.0  0.44590  0.66910  0.87831  1.0000 0.11998029
H   H6        1.0  0.05410  0.16910  0.12169  1.0000 0.11998029
H   H7        1.0  0.55410  0.33090  0.12169  1.0000 0.11998029
H   H8        1.0  0.94590  0.83090  0.87831  1.0000 0.11998029
H   H9        1.0  0.42050  0.63080  0.95891  1.0000 0.11998029
H   H10       1.0  0.07950  0.13080  0.04109  1.0000 0.11998029
H   H11       1.0  0.57950  0.36920  0.04109  1.0000 0.11998029
H   H12       1.0  0.92050  0.86920  0.95891  1.0000 0.11998029
H   H13       1.0  0.39020  0.63280  0.60071  1.0000 0.1099659002
H   H14       1.0  0.10980  0.13280  0.39929  1.0000 0.1099659002
H   H15       1.0  0.60980  0.36720  0.39929  1.0000 0.1099659002
H   H16       1.0  0.89020  0.86720  0.60071  1.0000 0.1099659002
H   H17       1.0  0.61080  0.50180  0.63201  1.0000 0.11998029
H   H18       1.0  0.88920  0.00180  0.36800  1.0000 0.11998029
H   H19       1.0  0.38920  0.49820  0.36800  1.0000 0.11998029
H   H20       1.0  0.11080  0.99820  0.63201  1.0000 0.11998029
H   H21       1.0  0.60890  0.45460  0.54831  1.0000 0.11998029
H   H22       1.0  0.89110  0.95460  0.45170  1.0000 0.11998029
H   H23       1.0  0.39110  0.54540  0.45170  1.0000 0.11998029
H   H24       1.0  0.10890  0.04540  0.54831  1.0000 0.11998029
H   H25       1.0  0.55650  0.96570  0.85740  1.0000 0.1099659002
H   H26       1.0  0.94350  0.46570  0.14259  1.0000 0.1099659002
H   H27       1.0  0.44350  0.03430  0.14259  1.0000 0.1099659002
H   H28       1.0  0.05650  0.53430  0.85740  1.0000 0.1099659002
H   H29       1.0  0.77400  0.83120  0.89890  1.0000 0.11998029
H   H30       1.0  0.72600  0.33120  0.10110  1.0000 0.11998029
H   H31       1.0  0.22600  0.16880  0.10110  1.0000 0.11998029
H   H32       1.0  0.27400  0.66880  0.89890  1.0000 0.11998029
H   H33       1.0  0.77840  0.91660  0.97701  1.0000 0.126803232
H   H34       1.0  0.72160  0.41660  0.02300  1.0000 0.126803232
H   H35       1.0  0.22160  0.08340  0.02300  1.0000 0.126803232
H   H36       1.0  0.27840  0.58340  0.97701  1.0000 0.126803232
H   H37       1.0  0.76370  0.02510  0.12291  1.0000 0.1099659002
H   H38       1.0  0.73630  0.52510  0.87709  1.0000 0.1099659002
H   H39       1.0  0.23630  0.97490  0.87709  1.0000 0.1099659002
H   H40       1.0  0.26370  0.47490  0.12291  1.0000 0.1099659002
H   H41       1.0  0.53870  0.13190  0.08231  1.0000 0.1099659002
H   H42       1.0  0.96130  0.63190  0.91769  1.0000 0.1099659002
H   H43       1.0  0.46130  0.86810  0.91769  1.0000 0.1099659002
H   H44       1.0  0.03870  0.36810  0.08231  1.0000 0.1099659002
H   H45       1.0  0.54930  0.09090  0.99950  1.0000 0.11998029
H   H46       1.0  0.95070  0.59090  0.00049  1.0000 0.11998029
H   H47       1.0  0.45070  0.90910  0.00049  1.0000 0.11998029
H   H48       1.0  0.04930  0.40910  0.99950  1.0000 0.11998029
H   H49       1.0  0.78320  0.98100  0.40410  1.0000 0.0961462833
H   H50       1.0  0.71680  0.48100  0.59589  1.0000 0.0961462833
H   H51       1.0  0.21680  0.01900  0.59589  1.0000 0.0961462833
H   H52       1.0  0.28320  0.51900  0.40410  1.0000 0.0961462833
H   H53       1.0  0.56930  0.13610  0.38781  1.0000 0.11998029
H   H54       1.0  0.93070  0.63610  0.61220  1.0000 0.11998029
H   H55       1.0  0.43070  0.86390  0.61220  1.0000 0.11998029
H   H56       1.0  0.06930  0.36390  0.38781  1.0000 0.11998029
H   H57       1.0  0.55720  0.09250  0.47020  1.0000 0.11998029
H   H58       1.0  0.94280  0.59250  0.52980  1.0000 0.11998029
H   H59       1.0  0.44280  0.90750  0.52980  1.0000 0.11998029
H   H60       1.0  0.05720  0.40750  0.47020  1.0000 0.11998029
H   H61       1.0  0.75480  0.86250  0.54590  1.0000 0.1099659002
H   H62       1.0  0.74520  0.36250  0.45409  1.0000 0.1099659002
H   H63       1.0  0.24520  0.13750  0.45409  1.0000 0.1099659002
H   H64       1.0  0.25480  0.63750  0.54590  1.0000 0.1099659002
H   H65       1.0  0.73340  0.79600  0.62401  1.0000 0.11998029
H   H66       1.0  0.76660  0.29600  0.37600  1.0000 0.11998029
H   H67       1.0  0.26660  0.20400  0.37600  1.0000 0.11998029
H   H68       1.0  0.23340  0.70400  0.62401  1.0000 0.11998029
H   H69       1.0  0.54160  0.00220  0.61821  1.0000 0.1099659002
H   H70       1.0  0.95840  0.50220  0.38179  1.0000 0.1099659002
H   H71       1.0  0.45840  0.99780  0.38179  1.0000 0.1099659002
H   H72       1.0  0.04160  0.49780  0.61821  1.0000 0.1099659002
H   H73       1.0  0.38840  0.58570  0.51711  1.0000 0.2642338328
H   H74       1.0  0.11160  0.08570  0.48290  1.0000 0.2642338328
H   H75       1.0  0.61160  0.41430  0.48290  1.0000 0.2642338328
H   H76       1.0  0.88840  0.91430  0.51711  1.0000 0.2642338328
C   C1        1.0  0.50570  0.50860  0.97520  1.0000 0.1425027349
C   C2        1.0  0.99430  0.00860  0.02480  1.0000 0.1425027349
C   C3        1.0  0.49430  0.49140  0.02480  1.0000 0.1425027349
C   C4        1.0  0.00570  0.99140  0.97520  1.0000 0.1425027349
C   C5        1.0  0.58100  0.47200  0.90770  1.0000 0.0515136308
C   C6        1.0  0.91900  0.97200  0.09229  1.0000 0.0515136308
C   C7        1.0  0.41900  0.52800  0.09229  1.0000 0.0515136308
C   C8        1.0  0.08100  0.02800  0.90770  1.0000 0.0515136308
C   C9        1.0  0.53610  0.55440  0.87860  1.0000 -0.0776111058
C   C10       1.0  0.96390  0.05440  0.12140  1.0000 -0.0708983302
C   C11       1.0  0.46390  0.44560  0.12140  1.0000 -0.0708983302
C   C12       1.0  0.03610  0.94560  0.87860  1.0000 -0.0776111058
C   C13       1.0  0.47600  0.61390  0.89780  1.0000 -0.0708983302
C   C14       1.0  0.02400  0.11390  0.10219  1.0000 -0.0708983302
C   C15       1.0  0.52400  0.38610  0.10219  1.0000 -0.0708983302
C   C16       1.0  0.97600  0.88610  0.89780  1.0000 -0.0708983302
C   C17       1.0  0.46080  0.59100  0.94610  1.0000 -0.1504675023
C   C18       1.0  0.03920  0.09100  0.05389  1.0000 -0.1504675023
C   C19       1.0  0.53920  0.40900  0.05389  1.0000 -0.1504675023
C   C20       1.0  0.96080  0.90900  0.94610  1.0000 -0.1504675023
C   C21       1.0  0.55330  0.58370  0.82700  1.0000 0.6503435352
C   C22       1.0  0.94670  0.08370  0.17300  1.0000 0.6503435352
C   C23       1.0  0.44670  0.41630  0.17300  1.0000 0.6503435352
C   C24       1.0  0.05330  0.91630  0.82700  1.0000 0.6503435352
C   C25       1.0  0.49850  0.51550  0.52441  1.0000 0.126803232
C   C26       1.0  0.00150  0.01550  0.47559  1.0000 0.126803232
C   C27       1.0  0.50150  0.48450  0.47559  1.0000 0.126803232
C   C28       1.0  0.99850  0.98450  0.52441  1.0000 0.126803232
C   C29       1.0  0.43400  0.59710  0.59020  1.0000 0.0515136308
C   C30       1.0  0.06600  0.09710  0.40980  1.0000 0.0515136308
C   C31       1.0  0.56600  0.40290  0.40980  1.0000 0.0515136308
C   C32       1.0  0.93400  0.90290  0.59020  1.0000 0.0515136308
C   C33       1.0  0.50070  0.57200  0.62460  1.0000 -0.0871127797
C   C34       1.0  0.99930  0.07200  0.37539  1.0000 -0.0871127797
C   C35       1.0  0.49930  0.42800  0.37539  1.0000 -0.0871127797
C   C36       1.0  0.00070  0.92800  0.62460  1.0000 -0.0871127797
C   C37       1.0  0.56620  0.51860  0.60890  1.0000 -0.0618326448
C   C38       1.0  0.93380  0.01860  0.39110  1.0000 -0.0618326448
C   C39       1.0  0.43380  0.48140  0.39110  1.0000 -0.0618326448
C   C40       1.0  0.06620  0.98140  0.60890  1.0000 -0.0618326448
C   C41       1.0  0.56510  0.49040  0.55880  1.0000 -0.1975724756
C   C42       1.0  0.93490  0.99040  0.44120  1.0000 -0.1975724756
C   C43       1.0  0.43490  0.50960  0.44120  1.0000 -0.1975724756
C   C44       1.0  0.06510  0.00960  0.55880  1.0000 -0.1975724756
C   C45       1.0  0.50780  0.60900  0.67761  1.0000 0.6358789333
C   C46       1.0  0.99220  0.10900  0.32239  1.0000 0.6358789333
C   C47       1.0  0.49220  0.39100  0.32239  1.0000 0.6358789333
C   C48       1.0  0.00780  0.89100  0.67761  1.0000 0.6358789333
C   C49       1.0  0.67010  0.99230  0.96401  1.0000 0.1461112745
C   C50       1.0  0.82990  0.49230  0.03599  1.0000 0.1461112745
C   C51       1.0  0.32990  0.00770  0.03599  1.0000 0.1461112745
C   C52       1.0  0.17010  0.50770  0.96401  1.0000 0.1461112745
C   C53       1.0  0.60100  0.95590  0.88140  1.0000 0.0611217298
C   C54       1.0  0.89900  0.45590  0.11860  1.0000 0.0611217298
C   C55       1.0  0.39900  0.04410  0.11860  1.0000 0.0611217298
C   C56       1.0  0.10100  0.54410  0.88140  1.0000 0.0611217298
C   C57       1.0  0.66480  0.89000  0.87040  1.0000 -0.0871127797
C   C58       1.0  0.83520  0.39000  0.12959  1.0000 -0.0871127797
C   C59       1.0  0.33520  0.11000  0.12959  1.0000 -0.0871127797
C   C60       1.0  0.16480  0.61000  0.87040  1.0000 -0.0871127797
C   C61       1.0  0.73130  0.87530  0.90621  1.0000 -0.0618326448
C   C62       1.0  0.76870  0.37530  0.09380  1.0000 -0.0618326448
C   C63       1.0  0.26870  0.12470  0.09380  1.0000 -0.0618326448
C   C64       1.0  0.23130  0.62470  0.90621  1.0000 -0.0618326448
C   C65       1.0  0.73390  0.92640  0.95300  1.0000 -0.1504675023
C   C66       1.0  0.76610  0.42640  0.04700  1.0000 -0.1504675023
C   C67       1.0  0.26610  0.07360  0.04700  1.0000 -0.1504675023
C   C68       1.0  0.23390  0.57360  0.95300  1.0000 -0.1504675023
C   C69       1.0  0.66020  0.82660  0.82300  1.0000 0.6097741552
C   C70       1.0  0.83980  0.32660  0.17700  1.0000 0.6097741552
C   C71       1.0  0.33980  0.17340  0.17700  1.0000 0.6097741552
C   C72       1.0  0.16020  0.67340  0.82300  1.0000 0.6097741552
C   C73       1.0  0.66280  0.03340  0.01150  1.0000 0.1425027349
C   C74       1.0  0.83720  0.53340  0.98850  1.0000 0.1425027349
C   C75       1.0  0.33720  0.96660  0.98850  1.0000 0.1425027349
C   C76       1.0  0.16280  0.46660  0.01150  1.0000 0.1425027349
C   C77       1.0  0.72070  0.03830  0.09810  1.0000 0.0515136308
C   C78       1.0  0.77930  0.53830  0.90190  1.0000 0.0515136308
C   C79       1.0  0.27930  0.96170  0.90190  1.0000 0.0515136308
C   C80       1.0  0.22070  0.46170  0.09810  1.0000 0.0515136308
C   C81       1.0  0.65010  0.08260  0.11083  1.0000 -0.0871127797
C   C82       1.0  0.84990  0.58260  0.88918  1.0000 -0.0871127797
C   C83       1.0  0.34990  0.91740  0.88918  1.0000 -0.0871127797
C   C84       1.0  0.15010  0.41740  0.11083  1.0000 -0.0871127797
C   C85       1.0  0.58590  0.10230  0.07380  1.0000 -0.0708983302
C   C86       1.0  0.91410  0.60230  0.92619  1.0000 -0.0708983302
C   C87       1.0  0.41410  0.89770  0.92619  1.0000 -0.0708983302
C   C88       1.0  0.08590  0.39770  0.07380  1.0000 -0.0708983302
C   C89       1.0  0.59220  0.07770  0.02421  1.0000 -0.1554415136
C   C90       1.0  0.90780  0.57770  0.97579  1.0000 -0.1554415136
C   C91       1.0  0.40780  0.92230  0.97579  1.0000 -0.1554415136
C   C92       1.0  0.09220  0.42230  0.02421  1.0000 -0.1554415136
C   C93       1.0  0.63990  0.09810  0.16401  1.0000 0.6503435352
C   C94       1.0  0.86010  0.59810  0.83600  1.0000 0.6503435352
C   C95       1.0  0.36010  0.90190  0.83600  1.0000 0.6503435352
C   C96       1.0  0.13990  0.40190  0.16401  1.0000 0.6503435352
C   C97       1.0  0.66300  0.01060  0.48651  1.0000 0.1461112745
C   C98       1.0  0.83700  0.51060  0.51350  1.0000 0.1461112745
C   C99       1.0  0.33700  0.98940  0.51350  1.0000 0.1461112745
C   C100      1.0  0.16300  0.48940  0.48651  1.0000 0.1461112745
C   C101      1.0  0.73790  0.00330  0.41730  1.0000 0.0429960281
C   C102      1.0  0.76210  0.50330  0.58269  1.0000 0.0429960281
C   C103      1.0  0.26210  0.99670  0.58269  1.0000 0.0429960281
C   C104      1.0  0.23790  0.49670  0.41730  1.0000 0.0429960281
C   C105      1.0  0.67740  0.06280  0.38771  1.0000 -0.0776111058
C   C106      1.0  0.82260  0.56280  0.61230  1.0000 -0.0776111058
C   C107      1.0  0.32260  0.93720  0.61230  1.0000 -0.0776111058
C   C108      1.0  0.17740  0.43720  0.38771  1.0000 -0.0776111058
C   C109      1.0  0.60970  0.09620  0.40760  1.0000 -0.0776111058
C   C110      1.0  0.89030  0.59620  0.59240  1.0000 -0.0776111058
C   C111      1.0  0.39030  0.90380  0.59240  1.0000 -0.0776111058
C   C112      1.0  0.10970  0.40380  0.40760  1.0000 -0.0776111058
C   C113      1.0  0.60250  0.07010  0.45690  1.0000 -0.1504675023
C   C114      1.0  0.89750  0.57010  0.54309  1.0000 -0.1504675023
C   C115      1.0  0.39750  0.92990  0.54309  1.0000 -0.1504675023
C   C116      1.0  0.10250  0.42990  0.45690  1.0000 -0.1504675023
C   C117      1.0  0.68610  0.08420  0.33450  1.0000 0.6337405272
C   C118      1.0  0.81390  0.58420  0.66549  1.0000 0.6337405272
C   C119      1.0  0.31390  0.91580  0.66549  1.0000 0.6337405272
C   C120      1.0  0.18610  0.41580  0.33450  1.0000 0.6337405272
C   C121      1.0  0.66100  0.97210  0.53531  1.0000 0.1425027349
C   C122      1.0  0.83900  0.47210  0.46470  1.0000 0.1425027349
C   C123      1.0  0.33900  0.02790  0.46470  1.0000 0.1461112745
C   C124      1.0  0.16100  0.52790  0.53531  1.0000 0.1461112745
C   C125      1.0  0.71210  0.89050  0.56041  1.0000 -0.174058827
C   C126      1.0  0.78790  0.39050  0.43959  1.0000 -0.174058827
C   C127      1.0  0.28790  0.10950  0.43959  1.0000 -0.174058827
C   C128      1.0  0.21210  0.60950  0.56041  1.0000 -0.174058827
C   C129      1.0  0.69930  0.85060  0.60720  1.0000 -0.0708983302
C   C130      1.0  0.80070  0.35060  0.39280  1.0000 -0.0708983302
C   C131      1.0  0.30070  0.14940  0.39280  1.0000 -0.0708983302
C   C132      1.0  0.19930  0.64940  0.60720  1.0000 -0.0708983302
C   C133      1.0  0.63540  0.89250  0.62890  1.0000 -0.0962395988
C   C134      1.0  0.86460  0.39250  0.37110  1.0000 -0.0962395988
C   C135      1.0  0.36460  0.10750  0.37110  1.0000 -0.0962395988
C   C136      1.0  0.13540  0.60750  0.62890  1.0000 -0.0962395988
C   C137      1.0  0.58430  0.97420  0.60371  1.0000 0.0515136308
C   C138      1.0  0.91570  0.47420  0.39630  1.0000 0.0515136308
C   C139      1.0  0.41570  0.02580  0.39630  1.0000 0.0515136308
C   C140      1.0  0.08430  0.52580  0.60371  1.0000 0.0515136308
C   C141      1.0  0.62030  0.84590  0.67731  1.0000 0.6358789333
C   C142      1.0  0.87970  0.34590  0.32269  1.0000 0.6358789333
C   C143      1.0  0.37970  0.15410  0.32269  1.0000 0.6358789333
C   C144      1.0  0.12030  0.65410  0.67731  1.0000 0.6358789333
N   N1        1.0  0.56580  0.44920  0.95600  1.0000 -0.2956176869
N   N2        1.0  0.93420  0.94920  0.04399  1.0000 -0.2956176869
N   N3        1.0  0.43420  0.55080  0.04399  1.0000 -0.2956176869
N   N4        1.0  0.06580  0.05080  0.95600  1.0000 -0.2956176869
N   N5        1.0  0.43290  0.56890  0.54010  1.0000 -0.2693511344
N   N6        1.0  0.06710  0.06890  0.45989  1.0000 -0.2693511344
N   N7        1.0  0.56710  0.43110  0.45989  1.0000 -0.2693511344
N   N8        1.0  0.93290  0.93110  0.54010  1.0000 -0.2693511344
N   N9        1.0  0.60360  0.00700  0.92820  1.0000 -0.291285216
N   N10       1.0  0.89640  0.50700  0.07179  1.0000 -0.291285216
N   N11       1.0  0.39640  0.99300  0.07179  1.0000 -0.291285216
N   N12       1.0  0.10360  0.49300  0.92820  1.0000 -0.291285216
N   N13       1.0  0.72700  0.01370  0.04850  1.0000 -0.2840358289
N   N14       1.0  0.77300  0.51370  0.95149  1.0000 -0.2840358289
N   N15       1.0  0.27300  0.98630  0.95149  1.0000 -0.2840358289
N   N16       1.0  0.22700  0.48630  0.04850  1.0000 -0.291285216
N   N17       1.0  0.73070  0.97720  0.46670  1.0000 -0.3304735593
N   N18       1.0  0.76930  0.47720  0.53329  1.0000 -0.3304735593
N   N19       1.0  0.26930  0.02280  0.53329  1.0000 -0.3304735593
N   N20       1.0  0.23070  0.52280  0.46670  1.0000 -0.3304735593
N   N21       1.0  0.59710  0.01400  0.55700  1.0000 -0.3100630216
N   N22       1.0  0.90290  0.51400  0.44300  1.0000 -0.3100630216
N   N23       1.0  0.40290  0.98600  0.44300  1.0000 -0.3100630216
N   N24       1.0  0.09710  0.48600  0.55700  1.0000 -0.3100630216
O   O1        1.0  0.57230  0.58690  0.70381  1.0000 -0.6918862037
O   O2        1.0  0.92770  0.08690  0.29619  1.0000 -0.6918862037
O   O3        1.0  0.42770  0.41310  0.29619  1.0000 -0.6918862037
O   O4        1.0  0.07230  0.91310  0.70381  1.0000 -0.6918862037
O   O5        1.0  0.71790  0.77100  0.81430  1.0000 -0.5796237163
O   O6        1.0  0.78210  0.27100  0.18569  1.0000 -0.5796237163
O   O7        1.0  0.28210  0.22900  0.18569  1.0000 -0.5796237163
O   O8        1.0  0.21790  0.72900  0.81430  1.0000 -0.5796237163
O   O9        1.0  0.67430  0.78970  0.70230  1.0000 -0.638062971
O   O10       1.0  0.82570  0.28970  0.29769  1.0000 -0.638062971
O   O11       1.0  0.32570  0.21030  0.29769  1.0000 -0.638062971
O   O12       1.0  0.17430  0.71030  0.70230  1.0000 -0.638062971
O   O13       1.0  0.61730  0.55210  0.81520  1.0000 -0.6277195038
O   O14       1.0  0.88270  0.05210  0.18479  1.0000 -0.6277195038
O   O15       1.0  0.38270  0.44790  0.18479  1.0000 -0.6277195038
O   O16       1.0  0.11730  0.94790  0.81520  1.0000 -0.6277195038
O   O17       1.0  0.69730  0.06360  0.19661  1.0000 -0.7242453269
O   O18       1.0  0.80270  0.56360  0.80339  1.0000 -0.7242453269
O   O19       1.0  0.30270  0.93640  0.80339  1.0000 -0.7242453269
O   O20       1.0  0.19730  0.43640  0.19661  1.0000 -0.7242453269
O   O21       1.0  0.74960  0.07600  0.32000  1.0000 -0.5956496618
O   O22       1.0  0.75040  0.57600  0.67999  1.0000 -0.5956496618
O   O23       1.0  0.25040  0.92400  0.67999  1.0000 -0.5956496618
O   O24       1.0  0.24960  0.42400  0.32000  1.0000 -0.5956496618
O   O25       1.0  0.57890  0.14110  0.17430  1.0000 -0.6277195038
O   O26       1.0  0.92110  0.64110  0.82569  1.0000 -0.6277195038
O   O27       1.0  0.42110  0.85890  0.82569  1.0000 -0.6277195038
O   O28       1.0  0.07890  0.35890  0.17430  1.0000 -0.6277195038
O   O29       1.0  0.59760  0.83270  0.79561  1.0000 -0.6277195038
O   O30       1.0  0.90240  0.33270  0.20439  1.0000 -0.6277195038
O   O31       1.0  0.40240  0.16730  0.20439  1.0000 -0.6277195038
O   O32       1.0  0.09760  0.66730  0.79561  1.0000 -0.6277195038
O   O33       1.0  0.50140  0.64440  0.80060  1.0000 -0.6786969177
O   O34       1.0  0.99860  0.14440  0.19939  1.0000 -0.6786969177
O   O35       1.0  0.49860  0.35560  0.19939  1.0000 -0.6786969177
O   O36       1.0  0.00140  0.85560  0.80060  1.0000 -0.6786969177
O   O37       1.0  0.44990  0.66170  0.68910  1.0000 -0.614152687
O   O38       1.0  0.05010  0.16170  0.31089  1.0000 -0.614152687
O   O39       1.0  0.55010  0.33830  0.31089  1.0000 -0.614152687
O   O40       1.0  0.94990  0.83830  0.68910  1.0000 -0.614152687
O   O41       1.0  0.55150  0.86820  0.68841  1.0000 -0.6786969177
O   O42       1.0  0.94850  0.36820  0.31160  1.0000 -0.6786969177
O   O43       1.0  0.44850  0.13180  0.31160  1.0000 -0.6786969177
O   O44       1.0  0.05150  0.63180  0.68841  1.0000 -0.6786969177
O   O45       1.0  0.62440  0.10600  0.30711  1.0000 -0.6485014133
O   O46       1.0  0.87560  0.60600  0.69289  1.0000 -0.6485014133
O   O47       1.0  0.37560  0.89400  0.69289  1.0000 -0.6485014133
O   O48       1.0  0.12440  0.39400  0.30711  1.0000 -0.6485014133
