# DDEC6 charges by PACMAN v1.1 (https://github.com/mtap-research/PACMAN-charge/)
data_2012[CuRh][zim]3[ASR]1
_chemical_formula_sum              "Cu10 H80 Rh4 C120 N20 Cl8 O44"
_cell_length_a       16.0791
_cell_length_b       16.0791
_cell_length_c       15.653
_cell_angle_alpha    89.1882
_cell_angle_beta     90.8118
_cell_angle_gamma    67.6771

_symmetry_space_group_name_H-M    "P 1"
_symmetry_Int_Tables_number       1

loop_
  _symmetry_equiv_pos_as_xyz
  'x, y, z'

loop_
  _atom_site_type_symbol
  _atom_site_label
  _atom_site_symmetry_multiplicity
  _atom_site_fract_x
  _atom_site_fract_y
  _atom_site_fract_z
  _atom_site_occupancy
  _atom_site_charge
Cu  Cu1       1.0  0.71796  0.79510  0.06538  1.0000 0.8524799916
Cu  Cu2       1.0  0.79510  0.71796  0.43462  1.0000 0.8524799916
Cu  Cu3       1.0  0.28204  0.20490  0.93462  1.0000 0.8524799916
Cu  Cu4       1.0  0.20490  0.28204  0.56538  1.0000 0.8524799916
Cu  Cu5       1.0  0.34094  0.18746  0.43136  1.0000 0.9811284217
Cu  Cu6       1.0  0.18746  0.34094  0.06864  1.0000 0.9811284217
Cu  Cu7       1.0  0.65906  0.81254  0.56864  1.0000 0.9811284217
Cu  Cu8       1.0  0.81254  0.65906  0.93136  1.0000 0.9811284217
Cu  Cu9       1.0  0.22869  0.22869  0.25000  1.0000 1.1687440398
Cu  Cu10      1.0  0.77131  0.77131  0.75000  1.0000 1.1687440398
H   H1        1.0  0.09220  0.84400  0.15860  1.0000 0.1095065552
H   H2        1.0  0.84400  0.09220  0.34140  1.0000 0.1095065552
H   H3        1.0  0.90780  0.15600  0.84140  1.0000 0.1095065552
H   H4        1.0  0.15600  0.90780  0.65860  1.0000 0.1095065552
H   H5        1.0  0.95710  0.84250  0.10420  1.0000 0.1490654869
H   H6        1.0  0.84250  0.95710  0.39580  1.0000 0.1490654869
H   H7        1.0  0.04290  0.15750  0.89580  1.0000 0.1490654869
H   H8        1.0  0.15750  0.04290  0.60420  1.0000 0.1490654869
H   H9        1.0  0.08550  0.57850  0.05630  1.0000 0.155701277
H   H10       1.0  0.57850  0.08550  0.44370  1.0000 0.155701277
H   H11       1.0  0.91450  0.42150  0.94370  1.0000 0.155701277
H   H12       1.0  0.42150  0.91450  0.55630  1.0000 0.155701277
H   H13       1.0  0.21490  0.58310  0.12170  1.0000 0.1095065552
H   H14       1.0  0.58310  0.21490  0.37830  1.0000 0.1095065552
H   H15       1.0  0.78510  0.41690  0.87830  1.0000 0.1095065552
H   H16       1.0  0.41690  0.78510  0.62170  1.0000 0.1095065552
H   H17       1.0  0.71070  0.10310  0.77360  1.0000 0.1095065552
H   H18       1.0  0.10310  0.71070  0.72640  1.0000 0.1095065552
H   H19       1.0  0.28930  0.89690  0.22640  1.0000 0.1095065552
H   H20       1.0  0.89690  0.28930  0.27360  1.0000 0.1095065552
H   H21       1.0  0.71650  0.98070  0.85720  1.0000 0.1490654869
H   H22       1.0  0.98070  0.71650  0.64280  1.0000 0.1490654869
H   H23       1.0  0.28350  0.01930  0.14280  1.0000 0.1490654869
H   H24       1.0  0.01930  0.28350  0.35720  1.0000 0.1490654869
H   H25       1.0  0.75780  0.10980  0.06440  1.0000 0.1339106086
H   H26       1.0  0.10980  0.75780  0.43560  1.0000 0.1339106086
H   H27       1.0  0.24220  0.89020  0.93560  1.0000 0.1339106086
H   H28       1.0  0.89020  0.24220  0.56440  1.0000 0.1339106086
H   H29       1.0  0.75080  0.22820  0.97580  1.0000 0.1095065552
H   H30       1.0  0.22820  0.75080  0.52420  1.0000 0.1095065552
H   H31       1.0  0.24920  0.77180  0.02420  1.0000 0.1095065552
H   H32       1.0  0.77180  0.24920  0.47580  1.0000 0.1095065552
H   H33       1.0  0.45950  0.59070  0.77840  1.0000 0.0999252471
H   H34       1.0  0.59070  0.45950  0.72160  1.0000 0.0999252471
H   H35       1.0  0.54050  0.40930  0.22160  1.0000 0.0999252471
H   H36       1.0  0.40930  0.54050  0.27840  1.0000 0.0999252471
H   H37       1.0  0.58840  0.58700  0.85070  1.0000 0.140436438
H   H38       1.0  0.58700  0.58840  0.64930  1.0000 0.140436438
H   H39       1.0  0.41160  0.41300  0.14930  1.0000 0.140436438
H   H40       1.0  0.41300  0.41160  0.35070  1.0000 0.140436438
H   H41       1.0  0.46410  0.85590  0.88750  1.0000 0.140436438
H   H42       1.0  0.85590  0.46410  0.61250  1.0000 0.140436438
H   H43       1.0  0.53590  0.14410  0.11250  1.0000 0.140436438
H   H44       1.0  0.14410  0.53590  0.38750  1.0000 0.140436438
H   H45       1.0  0.34000  0.85240  0.80830  1.0000 0.1095065552
H   H46       1.0  0.85240  0.34000  0.69170  1.0000 0.1095065552
H   H47       1.0  0.66000  0.14760  0.19170  1.0000 0.1095065552
H   H48       1.0  0.14760  0.66000  0.30830  1.0000 0.1095065552
H   H49       1.0  0.71830  0.45930  0.33160  1.0000 0.1095065552
H   H50       1.0  0.45930  0.71830  0.16840  1.0000 0.1095065552
H   H51       1.0  0.28170  0.54070  0.66840  1.0000 0.1095065552
H   H52       1.0  0.54070  0.28170  0.83160  1.0000 0.1095065552
H   H53       1.0  0.73290  0.58190  0.26290  1.0000 0.140436438
H   H54       1.0  0.58190  0.73290  0.23710  1.0000 0.140436438
H   H55       1.0  0.26710  0.41810  0.73710  1.0000 0.140436438
H   H56       1.0  0.41810  0.26710  0.76290  1.0000 0.140436438
H   H57       1.0  0.73020  0.46320  0.03640  1.0000 0.1490654869
H   H58       1.0  0.46320  0.73020  0.46360  1.0000 0.1490654869
H   H59       1.0  0.26980  0.53680  0.96360  1.0000 0.1490654869
H   H60       1.0  0.53680  0.26980  0.53640  1.0000 0.1490654869
H   H61       1.0  0.71140  0.34640  0.11120  1.0000 0.1095065552
H   H62       1.0  0.34640  0.71140  0.38880  1.0000 0.1095065552
H   H63       1.0  0.28860  0.65360  0.88880  1.0000 0.1095065552
H   H64       1.0  0.65360  0.28860  0.61120  1.0000 0.1095065552
H   H65       1.0  0.52900  0.92100  0.03770  1.0000 0.1095065552
H   H66       1.0  0.92100  0.52900  0.46230  1.0000 0.1095065552
H   H67       1.0  0.47100  0.07900  0.96230  1.0000 0.1095065552
H   H68       1.0  0.07900  0.47100  0.53770  1.0000 0.1095065552
H   H69       1.0  0.41930  0.03610  0.10600  1.0000 0.140436438
H   H70       1.0  0.03610  0.41930  0.39400  1.0000 0.140436438
H   H71       1.0  0.58070  0.96390  0.89400  1.0000 0.140436438
H   H72       1.0  0.96390  0.58070  0.60600  1.0000 0.140436438
H   H73       1.0  0.56810  0.96230  0.32410  1.0000 0.140436438
H   H74       1.0  0.96230  0.56810  0.17590  1.0000 0.140436438
H   H75       1.0  0.43190  0.03770  0.67590  1.0000 0.140436438
H   H76       1.0  0.03770  0.43190  0.82410  1.0000 0.140436438
H   H77       1.0  0.67650  0.84910  0.24960  1.0000 0.1178180251
H   H78       1.0  0.84910  0.67650  0.25040  1.0000 0.1178180251
H   H79       1.0  0.32350  0.15090  0.75040  1.0000 0.1178180251
H   H80       1.0  0.15090  0.32350  0.74960  1.0000 0.1178180251
Rh  Rh1       1.0  0.27735  0.71551  0.20934  1.0000 0.5081443313
Rh  Rh2       1.0  0.71551  0.27735  0.29066  1.0000 0.4996596399
Rh  Rh3       1.0  0.72265  0.28449  0.79066  1.0000 0.4996596399
Rh  Rh4       1.0  0.28449  0.72265  0.70934  1.0000 0.4996596399
C   C1        1.0  0.09000  0.78880  0.14040  1.0000 0.079216309
C   C2        1.0  0.78880  0.09000  0.35960  1.0000 0.079216309
C   C3        1.0  0.91000  0.21120  0.85960  1.0000 0.079216309
C   C4        1.0  0.21120  0.91000  0.64040  1.0000 0.079216309
C   C5        1.0  0.00930  0.78870  0.10690  1.0000 -0.134488073
C   C6        1.0  0.78870  0.00930  0.39310  1.0000 -0.134488073
C   C7        1.0  0.99070  0.21130  0.89310  1.0000 -0.134488073
C   C8        1.0  0.21130  0.99070  0.60690  1.0000 -0.134488073
C   C9        1.0  0.00640  0.70880  0.07750  1.0000 0.0248501144
C   C10       1.0  0.70880  0.00640  0.42250  1.0000 0.0248501144
C   C11       1.0  0.99360  0.29120  0.92250  1.0000 0.0248501144
C   C12       1.0  0.29120  0.99360  0.57750  1.0000 0.0248501144
C   C13       1.0  0.08460  0.63280  0.08000  1.0000 -0.134488073
C   C14       1.0  0.63280  0.08460  0.42000  1.0000 -0.134488073
C   C15       1.0  0.91540  0.36720  0.92000  1.0000 -0.134488073
C   C16       1.0  0.36720  0.91540  0.58000  1.0000 -0.134488073
C   C17       1.0  0.16210  0.63650  0.11740  1.0000 0.0589739446
C   C18       1.0  0.63650  0.16210  0.38260  1.0000 0.0589739446
C   C19       1.0  0.83790  0.36350  0.88260  1.0000 0.0589739446
C   C20       1.0  0.36350  0.83790  0.61740  1.0000 0.0589739446
C   C21       1.0  0.92020  0.70600  0.04510  1.0000 0.5707296404
C   C22       1.0  0.70600  0.92020  0.45490  1.0000 0.5707296404
C   C23       1.0  0.07980  0.29400  0.95490  1.0000 0.5707296404
C   C24       1.0  0.29400  0.07980  0.54510  1.0000 0.5707296404
C   C25       1.0  0.71950  0.10430  0.83370  1.0000 0.068804303
C   C26       1.0  0.10430  0.71950  0.66630  1.0000 0.068804303
C   C27       1.0  0.28050  0.89570  0.16630  1.0000 0.068804303
C   C28       1.0  0.89570  0.28050  0.33370  1.0000 0.068804303
C   C29       1.0  0.72280  0.03120  0.88290  1.0000 -0.1398627254
C   C30       1.0  0.03120  0.72280  0.61710  1.0000 -0.1398627254
C   C31       1.0  0.27720  0.96880  0.11710  1.0000 -0.1398627254
C   C32       1.0  0.96880  0.27720  0.38290  1.0000 -0.1398627254
C   C33       1.0  0.73530  0.03290  0.97100  1.0000 0.0526040458
C   C34       1.0  0.03290  0.73530  0.52900  1.0000 0.0526040458
C   C35       1.0  0.26470  0.96710  0.02900  1.0000 0.0526040458
C   C36       1.0  0.96710  0.26470  0.47100  1.0000 0.0526040458
C   C37       1.0  0.74700  0.10760  0.00480  1.0000 -0.1507233622
C   C38       1.0  0.10760  0.74700  0.49520  1.0000 -0.1507233622
C   C39       1.0  0.25300  0.89240  0.99520  1.0000 -0.1507233622
C   C40       1.0  0.89240  0.25300  0.50480  1.0000 -0.1507233622
C   C41       1.0  0.74300  0.17780  0.95180  1.0000 0.068804303
C   C42       1.0  0.17780  0.74300  0.54820  1.0000 0.068804303
C   C43       1.0  0.25700  0.82220  0.04820  1.0000 0.068804303
C   C44       1.0  0.82220  0.25700  0.45180  1.0000 0.068804303
C   C45       1.0  0.73530  0.95770  0.03120  1.0000 0.5346296552
C   C46       1.0  0.95770  0.73530  0.46880  1.0000 0.5346296552
C   C47       1.0  0.26470  0.04230  0.96880  1.0000 0.5346296552
C   C48       1.0  0.04230  0.26470  0.53120  1.0000 0.5346296552
C   C49       1.0  0.46170  0.64530  0.79900  1.0000 0.079216309
C   C50       1.0  0.64530  0.46170  0.70100  1.0000 0.079216309
C   C51       1.0  0.53830  0.35470  0.20100  1.0000 0.079216309
C   C52       1.0  0.35470  0.53830  0.29900  1.0000 0.079216309
C   C53       1.0  0.53870  0.64250  0.84190  1.0000 -0.1507233622
C   C54       1.0  0.64250  0.53870  0.65810  1.0000 -0.1507233622
C   C55       1.0  0.46130  0.35750  0.15810  1.0000 -0.1507233622
C   C56       1.0  0.35750  0.46130  0.34190  1.0000 -0.1507233622
C   C57       1.0  0.54210  0.72270  0.87210  1.0000 0.0589739446
C   C58       1.0  0.72270  0.54210  0.62790  1.0000 0.0589739446
C   C59       1.0  0.45790  0.27730  0.12790  1.0000 0.0589739446
C   C60       1.0  0.27730  0.45790  0.37210  1.0000 0.0589739446
C   C61       1.0  0.46590  0.80150  0.86320  1.0000 -0.1398627254
C   C62       1.0  0.80150  0.46590  0.63680  1.0000 -0.1398627254
C   C63       1.0  0.53410  0.19850  0.13680  1.0000 -0.1398627254
C   C64       1.0  0.19850  0.53410  0.36320  1.0000 -0.1398627254
C   C65       1.0  0.39140  0.79840  0.81720  1.0000 0.079216309
C   C66       1.0  0.79840  0.39140  0.68280  1.0000 0.079216309
C   C67       1.0  0.60860  0.20160  0.18280  1.0000 0.079216309
C   C68       1.0  0.20160  0.60860  0.31720  1.0000 0.079216309
C   C69       1.0  0.62830  0.72190  0.91190  1.0000 0.5707296404
C   C70       1.0  0.72190  0.62830  0.58810  1.0000 0.5707296404
C   C71       1.0  0.37170  0.27810  0.08810  1.0000 0.5707296404
C   C72       1.0  0.27810  0.37170  0.41190  1.0000 0.5707296404
C   C73       1.0  0.72150  0.45990  0.27110  1.0000 0.079216309
C   C74       1.0  0.45990  0.72150  0.22890  1.0000 0.079216309
C   C75       1.0  0.27850  0.54010  0.72890  1.0000 0.079216309
C   C76       1.0  0.54010  0.27850  0.77110  1.0000 0.079216309
C   C77       1.0  0.73010  0.53350  0.23050  1.0000 -0.1507233622
C   C78       1.0  0.53350  0.73010  0.26950  1.0000 -0.1507233622
C   C79       1.0  0.26990  0.46650  0.76950  1.0000 -0.1507233622
C   C80       1.0  0.46650  0.26990  0.73050  1.0000 -0.1507233622
C   C81       1.0  0.73460  0.53560  0.14310  1.0000 0.0388258296
C   C82       1.0  0.53560  0.73460  0.35690  1.0000 0.0388258296
C   C83       1.0  0.26540  0.46440  0.85690  1.0000 0.0388258296
C   C84       1.0  0.46440  0.26540  0.64310  1.0000 0.0388258296
C   C85       1.0  0.72790  0.46370  0.09710  1.0000 -0.1398627254
C   C86       1.0  0.46370  0.72790  0.40290  1.0000 -0.1398627254
C   C87       1.0  0.27210  0.53630  0.90290  1.0000 -0.1398627254
C   C88       1.0  0.53630  0.27210  0.59710  1.0000 -0.1398627254
C   C89       1.0  0.71800  0.39400  0.14210  1.0000 0.068804303
C   C90       1.0  0.39400  0.71800  0.35790  1.0000 0.068804303
C   C91       1.0  0.28200  0.60600  0.85790  1.0000 0.068804303
C   C92       1.0  0.60600  0.28200  0.64210  1.0000 0.068804303
C   C93       1.0  0.75060  0.60900  0.09360  1.0000 0.5707296404
C   C94       1.0  0.60900  0.75060  0.40640  1.0000 0.5707296404
C   C95       1.0  0.24940  0.39100  0.90640  1.0000 0.5707296404
C   C96       1.0  0.39100  0.24940  0.59360  1.0000 0.5707296404
C   C97       1.0  0.53760  0.93000  0.09650  1.0000 0.0589739446
C   C98       1.0  0.93000  0.53760  0.40350  1.0000 0.0589739446
C   C99       1.0  0.46240  0.07000  0.90350  1.0000 0.0589739446
C   C100      1.0  0.07000  0.46240  0.59650  1.0000 0.0589739446
C   C101      1.0  0.47180  0.99860  0.13690  1.0000 -0.1398627254
C   C102      1.0  0.99860  0.47180  0.36310  1.0000 -0.1398627254
C   C103      1.0  0.52820  0.00140  0.86310  1.0000 -0.1398627254
C   C104      1.0  0.00140  0.52820  0.63690  1.0000 -0.1398627254
C   C105      1.0  0.48210  0.01270  0.22120  1.0000 0.0309175673
C   C106      1.0  0.01270  0.48210  0.27880  1.0000 0.0309175673
C   C107      1.0  0.51790  0.98730  0.77880  1.0000 0.0309175673
C   C108      1.0  0.98730  0.51790  0.72120  1.0000 0.0309175673
C   C109      1.0  0.55950  0.95530  0.26490  1.0000 -0.1507233622
C   C110      1.0  0.95530  0.55950  0.23510  1.0000 -0.1507233622
C   C111      1.0  0.44050  0.04470  0.73510  1.0000 -0.1507233622
C   C112      1.0  0.04470  0.44050  0.76490  1.0000 -0.1507233622
C   C113      1.0  0.62380  0.88760  0.21980  1.0000 0.0999252471
C   C114      1.0  0.88760  0.62380  0.28020  1.0000 0.0999252471
C   C115      1.0  0.37620  0.11240  0.78020  1.0000 0.0999252471
C   C116      1.0  0.11240  0.37620  0.71980  1.0000 0.0999252471
C   C117      1.0  0.41340  0.08960  0.26850  1.0000 0.5777433637
C   C118      1.0  0.08960  0.41340  0.23150  1.0000 0.5777433637
C   C119      1.0  0.58660  0.91040  0.73150  1.0000 0.5777433637
C   C120      1.0  0.91040  0.58660  0.76850  1.0000 0.5777433637
N   N1        1.0  0.16460  0.71420  0.14790  1.0000 -0.1708497302
N   N2        1.0  0.71420  0.16460  0.35210  1.0000 -0.1708497302
N   N3        1.0  0.83540  0.28580  0.85210  1.0000 -0.1708497302
N   N4        1.0  0.28580  0.83540  0.64790  1.0000 -0.1708497302
N   N5        1.0  0.72840  0.17760  0.86710  1.0000 -0.1708497302
N   N6        1.0  0.17760  0.72840  0.63290  1.0000 -0.1708497302
N   N7        1.0  0.27160  0.82240  0.13290  1.0000 -0.1708497302
N   N8        1.0  0.82240  0.27160  0.36710  1.0000 -0.1708497302
N   N9        1.0  0.39060  0.72120  0.78540  1.0000 -0.1769130648
N   N10       1.0  0.72120  0.39060  0.71460  1.0000 -0.1769130648
N   N11       1.0  0.60940  0.27880  0.21460  1.0000 -0.1769130648
N   N12       1.0  0.27880  0.60940  0.28540  1.0000 -0.1769130648
N   N13       1.0  0.71750  0.39010  0.22870  1.0000 -0.1769130648
N   N14       1.0  0.39010  0.71750  0.27130  1.0000 -0.1769130648
N   N15       1.0  0.28250  0.60990  0.77130  1.0000 -0.1769130648
N   N16       1.0  0.60990  0.28250  0.72870  1.0000 -0.1769130648
N   N17       1.0  0.61520  0.87400  0.13740  1.0000 -0.2222016928
N   N18       1.0  0.87400  0.61520  0.36260  1.0000 -0.2222016928
N   N19       1.0  0.38480  0.12600  0.86260  1.0000 -0.2222016928
N   N20       1.0  0.12600  0.38480  0.63740  1.0000 -0.2222016928
Cl  Cl1       1.0  0.18893  0.81493  0.30879  1.0000 -0.4704294381
Cl  Cl2       1.0  0.81493  0.18893  0.19121  1.0000 -0.4704294381
Cl  Cl3       1.0  0.81107  0.18507  0.69121  1.0000 -0.4704294381
Cl  Cl4       1.0  0.18507  0.81107  0.80879  1.0000 -0.4704294381
Cl  Cl5       1.0  0.36833  0.61489  0.11059  1.0000 -0.4872688678
Cl  Cl6       1.0  0.61489  0.36833  0.38941  1.0000 -0.4872688678
Cl  Cl7       1.0  0.63167  0.38511  0.88941  1.0000 -0.4872688678
Cl  Cl8       1.0  0.38511  0.63167  0.61059  1.0000 -0.4872688678
O   O1        1.0  0.92470  0.65190  0.98630  1.0000 -0.4762234566
O   O2        1.0  0.65190  0.92470  0.51370  1.0000 -0.4762234566
O   O3        1.0  0.07530  0.34810  0.01370  1.0000 -0.4762234566
O   O4        1.0  0.34810  0.07530  0.48630  1.0000 -0.4762234566
O   O5        1.0  0.84970  0.75790  0.07980  1.0000 -0.5208140192
O   O6        1.0  0.75790  0.84970  0.42020  1.0000 -0.5208140192
O   O7        1.0  0.15030  0.24210  0.92020  1.0000 -0.5208140192
O   O8        1.0  0.24210  0.15030  0.57980  1.0000 -0.5208140192
O   O9        1.0  0.71420  0.89700  0.99540  1.0000 -0.4872688678
O   O10       1.0  0.89700  0.71420  0.50460  1.0000 -0.4872688678
O   O11       1.0  0.28580  0.10300  0.00460  1.0000 -0.4872688678
O   O12       1.0  0.10300  0.28580  0.49540  1.0000 -0.4872688678
O   O13       1.0  0.75050  0.96230  0.10690  1.0000 -0.5208140192
O   O14       1.0  0.96230  0.75050  0.39310  1.0000 -0.5208140192
O   O15       1.0  0.24950  0.03770  0.89310  1.0000 -0.5208140192
O   O16       1.0  0.03770  0.24950  0.60690  1.0000 -0.5208140192
O   O17       1.0  0.69870  0.66390  0.88280  1.0000 -0.5208140192
O   O18       1.0  0.66390  0.69870  0.61720  1.0000 -0.5208140192
O   O19       1.0  0.30130  0.33610  0.11720  1.0000 -0.5208140192
O   O20       1.0  0.33610  0.30130  0.38280  1.0000 -0.5208140192
O   O21       1.0  0.62350  0.77830  0.96860  1.0000 -0.572450864
O   O22       1.0  0.77830  0.62350  0.53140  1.0000 -0.572450864
O   O23       1.0  0.37650  0.22170  0.03140  1.0000 -0.572450864
O   O24       1.0  0.22170  0.37650  0.46860  1.0000 -0.572450864
O   O25       1.0  0.72020  0.68620  0.12520  1.0000 -0.5282370922
O   O26       1.0  0.68620  0.72020  0.37480  1.0000 -0.5282370922
O   O27       1.0  0.27980  0.31380  0.87480  1.0000 -0.5282370922
O   O28       1.0  0.31380  0.27980  0.62520  1.0000 -0.5282370922
O   O29       1.0  0.79310  0.58570  0.02620  1.0000 -0.5107657415
O   O30       1.0  0.58570  0.79310  0.47380  1.0000 -0.5107657415
O   O31       1.0  0.20690  0.41430  0.97380  1.0000 -0.5107657415
O   O32       1.0  0.41430  0.20690  0.52620  1.0000 -0.5107657415
O   O33       1.0  0.43520  0.10860  0.34020  1.0000 -0.5282370922
O   O34       1.0  0.10860  0.43520  0.15980  1.0000 -0.5282370922
O   O35       1.0  0.56480  0.89140  0.65980  1.0000 -0.5282370922
O   O36       1.0  0.89140  0.56480  0.84020  1.0000 -0.5282370922
O   O37       1.0  0.33950  0.12730  0.22680  1.0000 -0.5107657415
O   O38       1.0  0.12730  0.33950  0.27320  1.0000 -0.5107657415
O   O39       1.0  0.66050  0.87270  0.77320  1.0000 -0.5107657415
O   O40       1.0  0.87270  0.66050  0.72680  1.0000 -0.5107657415
O   O41       1.0  0.23210  0.19430  0.36620  1.0000 -0.7412952212
O   O42       1.0  0.19430  0.23210  0.13380  1.0000 -0.7412952212
O   O43       1.0  0.76790  0.80570  0.63380  1.0000 -0.7412952212
O   O44       1.0  0.80570  0.76790  0.86620  1.0000 -0.7412952212
