# DDEC6 charges by PACMAN v1.1 (https://github.com/mtap-research/PACMAN-charge/)
data_2012[Zn][nan]3[ASR]6
_chemical_formula_sum              "Zn10 H120 C150 N36 O24"
_cell_length_a       19.562
_cell_length_b       20.85
_cell_length_c       23.5986
_cell_angle_alpha    114.526
_cell_angle_beta     113.596
_cell_angle_gamma    92.849

_symmetry_space_group_name_H-M    "P 1"
_symmetry_Int_Tables_number       1

loop_
  _symmetry_equiv_pos_as_xyz
  'x, y, z'

loop_
  _atom_site_type_symbol
  _atom_site_label
  _atom_site_symmetry_multiplicity
  _atom_site_fract_x
  _atom_site_fract_y
  _atom_site_fract_z
  _atom_site_occupancy
  _atom_site_charge
Zn  Zn1       1.0  0.19900  0.83240  0.41820  1.0000 0.4417186578
Zn  Zn2       1.0  0.30460  0.79230  0.31970  1.0000 0.6512883057
Zn  Zn3       1.0  0.25190  0.02370  0.53320  1.0000 0.6615647277
Zn  Zn4       1.0  0.99770  0.77500  0.29860  1.0000 0.6663234582
Zn  Zn5       1.0  0.23810  0.73400  0.51970  1.0000 0.6615647277
Zn  Zn6       1.0  0.80100  0.16760  0.58180  1.0000 0.4417186578
Zn  Zn7       1.0  0.69540  0.20770  0.68030  1.0000 0.6512883057
Zn  Zn8       1.0  0.74810  0.97630  0.46680  1.0000 0.6615647277
Zn  Zn9       1.0  0.00230  0.22500  0.70140  1.0000 0.6663234582
Zn  Zn10      1.0  0.76190  0.26600  0.48030  1.0000 0.6615647277
H   H1        1.0  0.43840  0.70000  0.36470  1.0000 0.1401850763
H   H2        1.0  0.50870  0.63840  0.42010  1.0000 0.111032586
H   H3        1.0  0.38130  0.65880  0.52150  1.0000 0.147806897
H   H4        1.0  0.46750  0.58480  0.53020  1.0000 0.111032586
H   H5        1.0  0.46780  0.54130  0.45790  1.0000 0.111032586
H   H6        1.0  0.54030  0.60390  0.52180  1.0000 0.111032586
H   H7        1.0  0.20020  0.71840  0.14400  1.0000 0.1290084684
H   H8        1.0  0.09300  0.68150  0.03650  1.0000 0.1009099044
H   H9        1.0  0.95610  0.71050  0.12970  1.0000 0.1290084684
H   H10       1.0  0.07930  0.63040  0.49250  1.0000 0.1401850763
H   H11       1.0  0.95090  0.57190  0.44640  1.0000 0.1204188292
H   H12       1.0  0.88810  0.65920  0.31600  1.0000 0.1401850763
H   H13       1.0  0.81980  0.54620  0.37070  1.0000 0.1290084684
H   H14       1.0  0.79700  0.61240  0.35910  1.0000 0.1401850763
H   H15       1.0  0.80110  0.54450  0.29890  1.0000 0.1290084684
H   H16       1.0  0.10160  0.10700  0.51200  1.0000 0.147806897
H   H17       1.0  0.87480  0.01710  0.38060  1.0000 0.1204188292
H   H18       1.0  0.89950  0.90470  0.33130  1.0000 0.1401850763
H   H19       1.0  0.00720  0.18100  0.51800  1.0000 0.1401850763
H   H20       1.0  0.93680  0.15540  0.44410  1.0000 0.1401850763
H   H21       1.0  0.92760  0.13510  0.49810  1.0000 0.1290084684
H   H22       1.0  0.29680  0.83180  0.68260  1.0000 0.1290084684
H   H23       1.0  0.32170  0.92740  0.79040  1.0000 0.1204188292
H   H24       1.0  0.29650  0.06490  0.70870  1.0000 0.147806897
H   H25       1.0  0.76820  0.58480  0.09400  1.0000 0.1204188292
H   H26       1.0  0.63920  0.55360  0.01390  1.0000 0.1204188292
H   H27       1.0  0.64040  0.76010  0.08080  1.0000 0.1401850763
H   H28       1.0  0.77460  0.79470  0.16300  1.0000 0.1204188292
H   H29       1.0  0.53680  0.54680  0.91350  1.0000 0.1009099044
H   H30       1.0  0.51740  0.54670  0.97210  1.0000 0.1009099044
H   H31       1.0  0.23850  0.24720  0.71340  1.0000 0.1290084684
H   H32       1.0  0.28960  0.36680  0.79490  1.0000 0.1204188292
H   H33       1.0  0.44550  0.37490  0.72490  1.0000 0.1401850763
H   H34       1.0  0.39490  0.24680  0.64990  1.0000 0.1204188292
H   H35       1.0  0.40950  0.64240  0.20060  1.0000 0.111032586
H   H36       1.0  0.43040  0.57610  0.10490  1.0000 0.1290084684
H   H37       1.0  0.34880  0.70890  0.02480  1.0000 0.1204188292
H   H38       1.0  0.32790  0.77520  0.12050  1.0000 0.1204188292
H   H39       1.0  0.34430  0.61280  0.92520  1.0000 0.1009099044
H   H40       1.0  0.42520  0.66990  0.97580  1.0000 0.1009099044
H   H41       1.0  0.32660  0.49270  0.83270  1.0000 0.1009099044
H   H42       1.0  0.38230  0.47310  0.88950  1.0000 0.1009099044
H   H43       1.0  0.45130  0.57720  0.82500  1.0000 0.1009099044
H   H44       1.0  0.46540  0.65550  0.88550  1.0000 0.1009099044
H   H45       1.0  0.19390  0.65210  0.65960  1.0000 0.1204188292
H   H46       1.0  0.22860  0.61430  0.74460  1.0000 0.1290084684
H   H47       1.0  0.45030  0.66090  0.78510  1.0000 0.1204188292
H   H48       1.0  0.41550  0.69870  0.70010  1.0000 0.1290084684
H   H49       1.0  0.39830  0.12530  0.53410  1.0000 0.1401850763
H   H50       1.0  0.49350  0.15310  0.50670  1.0000 0.1204188292
H   H51       1.0  0.44360  0.94180  0.36740  1.0000 0.147806897
H   H52       1.0  0.54380  0.03090  0.38410  1.0000 0.1401850763
H   H53       1.0  0.52630  0.10750  0.40230  1.0000 0.1401850763
H   H54       1.0  0.58780  0.09490  0.46140  1.0000 0.1290084684
H   H55       1.0  0.33650  0.04700  0.86070  1.0000 0.111032586
H   H56       1.0  0.37570  0.10040  0.84480  1.0000 0.1290084684
H   H57       1.0  0.28740  0.08820  0.82360  1.0000 0.1204188292
H   H58       1.0  0.89960  0.67100  0.00950  1.0000 0.1009099044
H   H59       1.0  0.95140  0.70690  0.98870  1.0000 0.1204188292
H   H60       1.0  0.94180  0.62430  0.96950  1.0000 0.111032586
H   H61       1.0  0.56160  0.30000  0.63530  1.0000 0.1401850763
H   H62       1.0  0.49130  0.36160  0.57990  1.0000 0.111032586
H   H63       1.0  0.61870  0.34120  0.47850  1.0000 0.147806897
H   H64       1.0  0.53250  0.41520  0.46980  1.0000 0.111032586
H   H65       1.0  0.53220  0.45870  0.54210  1.0000 0.111032586
H   H66       1.0  0.45970  0.39610  0.47820  1.0000 0.111032586
H   H67       1.0  0.79980  0.28160  0.85600  1.0000 0.1290084684
H   H68       1.0  0.90700  0.31850  0.96350  1.0000 0.1009099044
H   H69       1.0  0.04390  0.28950  0.87030  1.0000 0.1290084684
H   H70       1.0  0.92070  0.36960  0.50750  1.0000 0.1401850763
H   H71       1.0  0.04910  0.42810  0.55360  1.0000 0.1204188292
H   H72       1.0  0.11190  0.34080  0.68400  1.0000 0.1401850763
H   H73       1.0  0.18020  0.45380  0.62930  1.0000 0.1290084684
H   H74       1.0  0.20300  0.38760  0.64090  1.0000 0.1401850763
H   H75       1.0  0.19890  0.45550  0.70110  1.0000 0.1290084684
H   H76       1.0  0.89840  0.89300  0.48800  1.0000 0.147806897
H   H77       1.0  0.12520  0.98290  0.61940  1.0000 0.1204188292
H   H78       1.0  0.10050  0.09530  0.66870  1.0000 0.1401850763
H   H79       1.0  0.99280  0.81900  0.48200  1.0000 0.1401850763
H   H80       1.0  0.06320  0.84460  0.55590  1.0000 0.1401850763
H   H81       1.0  0.07240  0.86490  0.50190  1.0000 0.1290084684
H   H82       1.0  0.70320  0.16820  0.31740  1.0000 0.1290084684
H   H83       1.0  0.67830  0.07260  0.20960  1.0000 0.1204188292
H   H84       1.0  0.70350  0.93510  0.29130  1.0000 0.1401850763
H   H85       1.0  0.23180  0.41520  0.90600  1.0000 0.1204188292
H   H86       1.0  0.36080  0.44640  0.98610  1.0000 0.1204188292
H   H87       1.0  0.35960  0.23990  0.91920  1.0000 0.1401850763
H   H88       1.0  0.22540  0.20530  0.83700  1.0000 0.1204188292
H   H89       1.0  0.46320  0.45320  0.08650  1.0000 0.0948997786
H   H90       1.0  0.48260  0.45330  0.02790  1.0000 0.1009099044
H   H91       1.0  0.76150  0.75280  0.28660  1.0000 0.1290084684
H   H92       1.0  0.71040  0.63320  0.20510  1.0000 0.1204188292
H   H93       1.0  0.55450  0.62510  0.27510  1.0000 0.1401850763
H   H94       1.0  0.60510  0.75320  0.35010  1.0000 0.1204188292
H   H95       1.0  0.59050  0.35760  0.79940  1.0000 0.111032586
H   H96       1.0  0.56960  0.42390  0.89510  1.0000 0.1290084684
H   H97       1.0  0.65120  0.29110  0.97520  1.0000 0.1204188292
H   H98       1.0  0.67210  0.22480  0.87950  1.0000 0.1204188292
H   H99       1.0  0.65570  0.38720  0.07480  1.0000 0.1009099044
H   H100      1.0  0.57480  0.33010  0.02420  1.0000 0.1009099044
H   H101      1.0  0.67340  0.50730  0.16730  1.0000 0.1009099044
H   H102      1.0  0.61770  0.52690  0.11050  1.0000 0.1009099044
H   H103      1.0  0.54870  0.42280  0.17500  1.0000 0.1009099044
H   H104      1.0  0.53460  0.34450  0.11450  1.0000 0.1009099044
H   H105      1.0  0.80610  0.34790  0.34040  1.0000 0.1204188292
H   H106      1.0  0.77140  0.38570  0.25540  1.0000 0.1290084684
H   H107      1.0  0.54970  0.33910  0.21490  1.0000 0.1204188292
H   H108      1.0  0.58450  0.30130  0.29990  1.0000 0.1290084684
H   H109      1.0  0.60170  0.87470  0.46590  1.0000 0.1401850763
H   H110      1.0  0.50650  0.84690  0.49330  1.0000 0.1204188292
H   H111      1.0  0.55640  0.05820  0.63260  1.0000 0.147806897
H   H112      1.0  0.45620  0.96910  0.61590  1.0000 0.1401850763
H   H113      1.0  0.47370  0.89250  0.59770  1.0000 0.1401850763
H   H114      1.0  0.41220  0.90510  0.53860  1.0000 0.1290084684
H   H115      1.0  0.66350  0.95300  0.13930  1.0000 0.111032586
H   H116      1.0  0.62430  0.89960  0.15520  1.0000 0.1290084684
H   H117      1.0  0.71260  0.91180  0.17640  1.0000 0.1204188292
H   H118      1.0  0.10040  0.32900  0.99050  1.0000 0.1009099044
H   H119      1.0  0.04860  0.29310  0.01130  1.0000 0.1204188292
H   H120      1.0  0.05820  0.37570  0.03050  1.0000 0.111032586
C   C1        1.0  0.35060  0.70380  0.45680  1.0000 0.147806897
C   C2        1.0  0.36790  0.71640  0.40990  1.0000 0.1009099044
C   C3        1.0  0.42700  0.69200  0.39600  1.0000 -0.1800934529
C   C4        1.0  0.46880  0.65500  0.42900  1.0000 -0.1515964413
C   C5        1.0  0.45200  0.64220  0.47600  1.0000 0.1606566211
C   C6        1.0  0.39310  0.66710  0.49010  1.0000 -0.2289430941
C   C7        1.0  0.48500  0.58900  0.49900  1.0000 -0.4307549098
C   C8        1.0  0.06900  0.73400  0.19700  1.0000 0.111032586
C   C9        1.0  0.14200  0.73600  0.20100  1.0000 0.147806897
C   C10       1.0  0.15100  0.71700  0.14100  1.0000 -0.1875615032
C   C11       1.0  0.08700  0.69500  0.07700  1.0000 -0.1285540039
C   C12       1.0  0.01300  0.69200  0.07200  1.0000 0.1290084684
C   C13       1.0  0.00500  0.71300  0.13300  1.0000 -0.219507156
C   C14       1.0  0.00300  0.68900  0.37900  1.0000 0.1401850763
C   C15       1.0  0.06100  0.68000  0.43200  1.0000 0.1204188292
C   C16       1.0  0.04100  0.63600  0.45700  1.0000 -0.1602318777
C   C17       1.0  0.96500  0.60200  0.43000  1.0000 -0.171358481
C   C18       1.0  0.90700  0.61000  0.37700  1.0000 0.1782151213
C   C19       1.0  0.92600  0.65300  0.35100  1.0000 -0.2389812066
C   C20       1.0  0.82400  0.57500  0.34900  1.0000 -0.4596436967
C   C21       1.0  0.01500  0.93840  0.39200  1.0000 0.111032586
C   C22       1.0  0.07590  0.99900  0.44620  1.0000 0.147806897
C   C23       1.0  0.06080  0.06680  0.47580  1.0000 -0.2389812066
C   C24       1.0  0.98600  0.07300  0.45100  1.0000 0.1899191341
C   C25       1.0  0.92500  0.01300  0.39700  1.0000 -0.1515964413
C   C26       1.0  0.93950  0.94550  0.36750  1.0000 -0.1602318777
C   C27       1.0  0.96300  0.14300  0.48100  1.0000 -0.4596436967
C   C28       1.0  0.28210  0.89110  0.63110  1.0000 0.1009099044
C   C29       1.0  0.29700  0.87900  0.68800  1.0000 -0.1602318777
C   C30       1.0  0.31100  0.93500  0.75200  1.0000 -0.1515964413
C   C31       1.0  0.31120  0.00520  0.76020  1.0000 0.1606566211
C   C32       1.0  0.29650  0.01850  0.70350  1.0000 -0.219507156
C   C33       1.0  0.28190  0.96090  0.63890  1.0000 0.111032586
C   C34       1.0  0.85500  0.71500  0.19600  1.0000 0.5190216651
C   C35       1.0  0.78000  0.69200  0.14000  1.0000 -0.076802435
C   C36       1.0  0.74200  0.62100  0.09300  1.0000 -0.051447384
C   C37       1.0  0.66700  0.60200  0.04400  1.0000 -0.2289430941
C   C38       1.0  0.63300  0.65500  0.04000  1.0000 0.2241985997
C   C39       1.0  0.66700  0.72500  0.08300  1.0000 -0.2289430941
C   C40       1.0  0.74700  0.74600  0.13500  1.0000 -0.0576390276
C   C41       1.0  0.51600  0.57200  0.94500  1.0000 -0.0685113048
C   C42       1.0  0.28200  0.15500  0.62300  1.0000 0.5190216651
C   C43       1.0  0.31000  0.23500  0.67400  1.0000 -0.0294728071
C   C44       1.0  0.28200  0.27200  0.71700  1.0000 -0.076802435
C   C45       1.0  0.31100  0.34300  0.76500  1.0000 -0.208597512
C   C46       1.0  0.37400  0.37900  0.76800  1.0000 0.230322962
C   C47       1.0  0.40600  0.34900  0.72500  1.0000 -0.219507156
C   C48       1.0  0.37300  0.27200  0.67800  1.0000 -0.0973793417
C   C49       1.0  0.36660  0.71530  0.17000  1.0000 -0.0294728071
C   C50       1.0  0.39720  0.65570  0.16530  1.0000 -0.0887498689
C   C51       1.0  0.40980  0.61600  0.10800  1.0000 -0.219507156
C   C52       1.0  0.39160  0.63590  0.05530  1.0000 0.2414281754
C   C53       1.0  0.36090  0.69550  0.06000  1.0000 -0.2389812066
C   C54       1.0  0.34840  0.73530  0.11740  1.0000 -0.076802435
C   C55       1.0  0.39900  0.61800  0.95200  1.0000 -0.076802435
C   C56       1.0  0.43100  0.57300  0.90300  1.0000 0.075768744
C   C57       1.0  0.38000  0.49400  0.85900  1.0000 -0.0887498689
C   C58       1.0  0.43200  0.60600  0.85700  1.0000 -0.0887498689
C   C59       1.0  0.27900  0.70200  0.61500  1.0000 0.5190216651
C   C60       1.0  0.30140  0.67910  0.67140  1.0000 -0.0406654636
C   C61       1.0  0.24570  0.65370  0.68470  1.0000 -0.0887498689
C   C62       1.0  0.26640  0.63200  0.73600  1.0000 -0.219507156
C   C63       1.0  0.34330  0.63380  0.77330  1.0000 0.2414281754
C   C64       1.0  0.39900  0.65900  0.76000  1.0000 -0.2389812066
C   C65       1.0  0.37800  0.68200  0.70900  1.0000 -0.076802435
C   C66       1.0  0.37720  0.96190  0.41720  1.0000 0.1204188292
C   C67       1.0  0.36380  0.01670  0.46700  1.0000 0.1290084684
C   C68       1.0  0.40770  0.08870  0.50070  1.0000 -0.171358481
C   C69       1.0  0.46400  0.10490  0.48400  1.0000 -0.1602318777
C   C70       1.0  0.47800  0.04990  0.43400  1.0000 0.1899191341
C   C71       1.0  0.43450  0.97880  0.40080  1.0000 -0.2289430941
C   C72       1.0  0.53900  0.07300  0.41900  1.0000 -0.4596436967
C   C73       1.0  0.34700  0.74800  0.23100  1.0000 0.5030322423
C   C74       1.0  0.32900  0.06500  0.82800  1.0000 -0.4307549098
C   C75       1.0  0.94600  0.67200  0.00400  1.0000 -0.4027197758
C   C76       1.0  0.64940  0.29620  0.54320  1.0000 0.147806897
C   C77       1.0  0.63210  0.28360  0.59010  1.0000 0.1009099044
C   C78       1.0  0.57300  0.30800  0.60400  1.0000 -0.1800934529
C   C79       1.0  0.53120  0.34500  0.57100  1.0000 -0.1515964413
C   C80       1.0  0.54800  0.35780  0.52400  1.0000 0.1606566211
C   C81       1.0  0.60690  0.33290  0.50990  1.0000 -0.2289430941
C   C82       1.0  0.51500  0.41100  0.50100  1.0000 -0.4307549098
C   C83       1.0  0.93100  0.26600  0.80300  1.0000 0.111032586
C   C84       1.0  0.85800  0.26400  0.79900  1.0000 0.147806897
C   C85       1.0  0.84900  0.28300  0.85900  1.0000 -0.1875615032
C   C86       1.0  0.91300  0.30500  0.92300  1.0000 -0.1285540039
C   C87       1.0  0.98700  0.30800  0.92800  1.0000 0.1290084684
C   C88       1.0  0.99500  0.28700  0.86700  1.0000 -0.219507156
C   C89       1.0  0.99700  0.31100  0.62100  1.0000 0.1401850763
C   C90       1.0  0.93900  0.32000  0.56800  1.0000 0.1204188292
C   C91       1.0  0.95900  0.36400  0.54300  1.0000 -0.1602318777
C   C92       1.0  0.03500  0.39800  0.57000  1.0000 -0.171358481
C   C93       1.0  0.09300  0.39000  0.62300  1.0000 0.1782151213
C   C94       1.0  0.07400  0.34700  0.64900  1.0000 -0.2389812066
C   C95       1.0  0.17600  0.42500  0.65100  1.0000 -0.4596436967
C   C96       1.0  0.98500  0.06160  0.60800  1.0000 0.111032586
C   C97       1.0  0.92410  0.00100  0.55380  1.0000 0.147806897
C   C98       1.0  0.93920  0.93320  0.52420  1.0000 -0.2389812066
C   C99       1.0  0.01400  0.92700  0.54900  1.0000 0.1899191341
C   C100      1.0  0.07500  0.98700  0.60300  1.0000 -0.1515964413
C   C101      1.0  0.06050  0.05450  0.63250  1.0000 -0.1602318777
C   C102      1.0  0.03700  0.85700  0.51900  1.0000 -0.4596436967
C   C103      1.0  0.71790  0.10890  0.36890  1.0000 0.1009099044
C   C104      1.0  0.70300  0.12100  0.31200  1.0000 -0.1602318777
C   C105      1.0  0.68900  0.06500  0.24800  1.0000 -0.1515964413
C   C106      1.0  0.68880  0.99480  0.23980  1.0000 0.1606566211
C   C107      1.0  0.70350  0.98150  0.29650  1.0000 -0.219507156
C   C108      1.0  0.71810  0.03910  0.36110  1.0000 0.111032586
C   C109      1.0  0.14500  0.28500  0.80400  1.0000 0.5190216651
C   C110      1.0  0.22000  0.30800  0.86000  1.0000 -0.076802435
C   C111      1.0  0.25800  0.37900  0.90700  1.0000 -0.051447384
C   C112      1.0  0.33300  0.39800  0.95600  1.0000 -0.2289430941
C   C113      1.0  0.36700  0.34500  0.96000  1.0000 0.2241985997
C   C114      1.0  0.33300  0.27500  0.91700  1.0000 -0.2289430941
C   C115      1.0  0.25300  0.25400  0.86500  1.0000 -0.0576390276
C   C116      1.0  0.48400  0.42800  0.05500  1.0000 -0.0685113048
C   C117      1.0  0.71800  0.84500  0.37700  1.0000 0.5190216651
C   C118      1.0  0.69000  0.76500  0.32600  1.0000 -0.0294728071
C   C119      1.0  0.71800  0.72800  0.28300  1.0000 -0.076802435
C   C120      1.0  0.68900  0.65700  0.23500  1.0000 -0.208597512
C   C121      1.0  0.62600  0.62100  0.23200  1.0000 0.230322962
C   C122      1.0  0.59400  0.65100  0.27500  1.0000 -0.219507156
C   C123      1.0  0.62700  0.72800  0.32200  1.0000 -0.0973793417
C   C124      1.0  0.63340  0.28470  0.83000  1.0000 -0.0294728071
C   C125      1.0  0.60280  0.34430  0.83470  1.0000 -0.0973793417
C   C126      1.0  0.59020  0.38400  0.89200  1.0000 -0.219507156
C   C127      1.0  0.60840  0.36410  0.94470  1.0000 0.2414281754
C   C128      1.0  0.63910  0.30450  0.94000  1.0000 -0.2389812066
C   C129      1.0  0.65160  0.26470  0.88260  1.0000 -0.076802435
C   C130      1.0  0.60100  0.38200  0.04800  1.0000 -0.076802435
C   C131      1.0  0.56900  0.42700  0.09700  1.0000 0.075768744
C   C132      1.0  0.62000  0.50600  0.14100  1.0000 -0.0887498689
C   C133      1.0  0.56800  0.39400  0.14300  1.0000 -0.0887498689
C   C134      1.0  0.72100  0.29800  0.38500  1.0000 0.5190216651
C   C135      1.0  0.69860  0.32090  0.32860  1.0000 -0.0406654636
C   C136      1.0  0.75430  0.34630  0.31530  1.0000 -0.0887498689
C   C137      1.0  0.73360  0.36800  0.26400  1.0000 -0.219507156
C   C138      1.0  0.65670  0.36620  0.22670  1.0000 0.2414281754
C   C139      1.0  0.60100  0.34100  0.24000  1.0000 -0.2389812066
C   C140      1.0  0.62200  0.31800  0.29100  1.0000 -0.0685113048
C   C141      1.0  0.62280  0.03810  0.58280  1.0000 0.1204188292
C   C142      1.0  0.63620  0.98330  0.53300  1.0000 0.1290084684
C   C143      1.0  0.59230  0.91130  0.49930  1.0000 -0.171358481
C   C144      1.0  0.53600  0.89510  0.51600  1.0000 -0.1602318777
C   C145      1.0  0.52200  0.95010  0.56600  1.0000 0.1899191341
C   C146      1.0  0.56550  0.02120  0.59920  1.0000 -0.2289430941
C   C147      1.0  0.46100  0.92700  0.58100  1.0000 -0.4596436967
C   C148      1.0  0.65300  0.25200  0.76900  1.0000 0.5030322423
C   C149      1.0  0.67100  0.93500  0.17200  1.0000 -0.4307549098
C   C150      1.0  0.05400  0.32800  0.99600  1.0000 -0.4027197758
N   N1        1.0  0.29900  0.73600  0.46600  1.0000 -0.208597512
N   N2        1.0  0.27660  0.76360  0.42060  1.0000 -0.0191958812
N   N3        1.0  0.31600  0.75050  0.38700  1.0000 -0.1515964413
N   N4        1.0  0.19100  0.76600  0.26600  1.0000 -0.219507156
N   N5        1.0  0.14900  0.77900  0.30200  1.0000 -0.0191958812
N   N6        1.0  0.07700  0.76400  0.26200  1.0000 -0.1515964413
N   N7        1.0  0.03700  0.73200  0.36500  1.0000 -0.2025541571
N   N8        1.0  0.11300  0.75200  0.40900  1.0000 -0.0191958812
N   N9        1.0  0.12800  0.71900  0.44800  1.0000 -0.1875615032
N   N10       1.0  0.14170  0.97640  0.46080  1.0000 -0.2588814149
N   N11       1.0  0.11960  0.90270  0.41300  1.0000 -0.0406654636
N   N12       1.0  0.04300  0.87900  0.37100  1.0000 -0.219507156
N   N13       1.0  0.30760  0.98360  0.46960  1.0000 -0.1800934529
N   N14       1.0  0.28520  0.91240  0.42890  1.0000 -0.0406654636
N   N15       1.0  0.32810  0.89910  0.39510  1.0000 -0.2025541571
N   N16       1.0  0.26400  0.95300  0.57300  1.0000 -0.2025541571
N   N17       1.0  0.24920  0.88360  0.53460  1.0000 0.0417642234
N   N18       1.0  0.25400  0.83700  0.55900  1.0000 -0.2289430941
N   N19       1.0  0.70100  0.26400  0.53400  1.0000 -0.208597512
N   N20       1.0  0.72340  0.23640  0.57940  1.0000 -0.0191958812
N   N21       1.0  0.68400  0.24950  0.61300  1.0000 -0.1515964413
N   N22       1.0  0.80900  0.23400  0.73400  1.0000 -0.219507156
N   N23       1.0  0.85100  0.22100  0.69800  1.0000 -0.0191958812
N   N24       1.0  0.92300  0.23600  0.73800  1.0000 -0.1515964413
N   N25       1.0  0.96300  0.26800  0.63500  1.0000 -0.2025541571
N   N26       1.0  0.88700  0.24800  0.59100  1.0000 -0.0191958812
N   N27       1.0  0.87200  0.28100  0.55200  1.0000 -0.1875615032
N   N28       1.0  0.85830  0.02360  0.53920  1.0000 -0.2588814149
N   N29       1.0  0.88040  0.09730  0.58700  1.0000 -0.0406654636
N   N30       1.0  0.95700  0.12100  0.62900  1.0000 -0.219507156
N   N31       1.0  0.69240  0.01640  0.53040  1.0000 -0.1800934529
N   N32       1.0  0.71480  0.08760  0.57110  1.0000 -0.051447384
N   N33       1.0  0.67190  0.10090  0.60490  1.0000 -0.2025541571
N   N34       1.0  0.73600  0.04700  0.42700  1.0000 -0.2025541571
N   N35       1.0  0.75080  0.11640  0.46540  1.0000 0.0417642234
N   N36       1.0  0.74600  0.16300  0.44100  1.0000 -0.2289430941
O   O1        1.0  0.31200  0.12500  0.58600  1.0000 -0.4724430839
O   O2        1.0  0.22900  0.12000  0.62000  1.0000 -0.4780095318
O   O3        1.0  0.41000  0.45400  0.81230  1.0000 -0.208597512
O   O4        1.0  0.32730  0.80830  0.23630  1.0000 -0.5188059757
O   O5        1.0  0.35900  0.73100  0.27200  1.0000 -0.4206801305
O   O6        1.0  0.41000  0.59510  0.00210  1.0000 -0.1800934529
O   O7        1.0  0.32930  0.71890  0.60030  1.0000 -0.5188059757
O   O8        1.0  0.21360  0.70660  0.58760  1.0000 -0.4975531647
O   O9        1.0  0.35600  0.60660  0.81920  1.0000 -0.171358481
O   O10       1.0  0.55970  0.64450  0.99060  1.0000 -0.1800934529
O   O11       1.0  0.89300  0.66700  0.20500  1.0000 -0.5423833976
O   O12       1.0  0.89500  0.78000  0.23900  1.0000 -0.488094742
O   O13       1.0  0.68800  0.87500  0.41400  1.0000 -0.4724430839
O   O14       1.0  0.77100  0.88000  0.38000  1.0000 -0.4780095318
O   O15       1.0  0.59000  0.54600  0.18770  1.0000 -0.2025541571
O   O16       1.0  0.67270  0.19170  0.76370  1.0000 -0.5188059757
O   O17       1.0  0.64100  0.26900  0.72800  1.0000 -0.4206801305
O   O18       1.0  0.59000  0.40490  0.99790  1.0000 -0.1800934529
O   O19       1.0  0.67070  0.28110  0.39970  1.0000 -0.5188059757
O   O20       1.0  0.78640  0.29340  0.41240  1.0000 -0.4975531647
O   O21       1.0  0.64400  0.39340  0.18080  1.0000 -0.171358481
O   O22       1.0  0.44030  0.35550  0.00940  1.0000 -0.1800934529
O   O23       1.0  0.10700  0.33300  0.79500  1.0000 -0.5423833976
O   O24       1.0  0.10500  0.22000  0.76100  1.0000 -0.488094742
