# DDEC6 charges by PACMAN v1.1 (https://github.com/mtap-research/PACMAN-charge/)
data_2012[Zn][raa]3[ASR]6
_chemical_formula_sum              "Zn8 H64 C56 N48"
_cell_length_a       10.8291
_cell_length_b       12.529
_cell_length_c       19.2189
_cell_angle_alpha    90
_cell_angle_beta     119.154
_cell_angle_gamma    90

_symmetry_space_group_name_H-M    "P 1"
_symmetry_Int_Tables_number       1

loop_
  _symmetry_equiv_pos_as_xyz
  'x, y, z'

loop_
  _atom_site_type_symbol
  _atom_site_label
  _atom_site_symmetry_multiplicity
  _atom_site_fract_x
  _atom_site_fract_y
  _atom_site_fract_z
  _atom_site_occupancy
  _atom_site_charge
Zn  Zn1       1.0  0.87098  0.73215  0.59558  1.0000 0.6768712629
Zn  Zn2       1.0  0.12902  0.23215  0.90442  1.0000 0.6768712629
Zn  Zn3       1.0  0.12902  0.26785  0.40442  1.0000 0.6768712629
Zn  Zn4       1.0  0.87098  0.76785  0.09558  1.0000 0.6768712629
Zn  Zn5       1.0  0.25094  0.74327  0.45673  1.0000 0.6742582634
Zn  Zn6       1.0  0.74906  0.24327  0.04327  1.0000 0.6768712629
Zn  Zn7       1.0  0.74906  0.25673  0.54327  1.0000 0.6768712629
Zn  Zn8       1.0  0.25094  0.75673  0.95673  1.0000 0.6768712629
H   H1        1.0  0.14290  0.64400  0.20780  1.0000 0.1602750816
H   H2        1.0  0.85710  0.14400  0.29220  1.0000 0.1602750816
H   H3        1.0  0.85710  0.35600  0.79220  1.0000 0.1602750816
H   H4        1.0  0.14290  0.85600  0.70780  1.0000 0.1602750816
H   H5        1.0  0.27690  0.68330  0.28850  1.0000 0.1602750816
H   H6        1.0  0.72310  0.18330  0.21150  1.0000 0.1602750816
H   H7        1.0  0.72310  0.31670  0.71150  1.0000 0.1602750816
H   H8        1.0  0.27690  0.81670  0.78850  1.0000 0.1602750816
H   H9        1.0  0.17430  0.59360  0.29140  1.0000 0.1681314722
H   H10       1.0  0.82570  0.09360  0.20860  1.0000 0.1681314722
H   H11       1.0  0.82570  0.40640  0.70860  1.0000 0.1681314722
H   H12       1.0  0.17430  0.90640  0.79140  1.0000 0.1681314722
H   H13       1.0  0.88640  0.94830  0.35520  1.0000 0.1602750816
H   H14       1.0  0.11360  0.44830  0.14480  1.0000 0.1602750816
H   H15       1.0  0.11360  0.05170  0.64480  1.0000 0.1602750816
H   H16       1.0  0.88640  0.55170  0.85520  1.0000 0.1602750816
H   H17       1.0  0.05010  0.98020  0.39890  1.0000 0.1602750816
H   H18       1.0  0.94990  0.48020  0.10110  1.0000 0.1602750816
H   H19       1.0  0.94990  0.01980  0.60110  1.0000 0.1602750816
H   H20       1.0  0.05010  0.51980  0.89890  1.0000 0.1602750816
H   H21       1.0  0.17780  0.67000  0.65760  1.0000 0.1519465526
H   H22       1.0  0.82220  0.17000  0.84240  1.0000 0.1519465526
H   H23       1.0  0.82220  0.33000  0.34240  1.0000 0.1519465526
H   H24       1.0  0.17780  0.83000  0.15760  1.0000 0.1519465526
H   H25       1.0  0.23540  0.62950  0.59970  1.0000 0.1602750816
H   H26       1.0  0.76460  0.12950  0.90030  1.0000 0.1602750816
H   H27       1.0  0.76460  0.37050  0.40030  1.0000 0.1602750816
H   H28       1.0  0.23540  0.87050  0.09970  1.0000 0.1602750816
H   H29       1.0  0.30280  0.73320  0.65380  1.0000 0.1681314722
H   H30       1.0  0.69720  0.23320  0.84620  1.0000 0.1681314722
H   H31       1.0  0.69720  0.26680  0.34620  1.0000 0.1681314722
H   H32       1.0  0.30280  0.76680  0.15380  1.0000 0.1681314722
H   H33       1.0  0.68250  0.97180  0.68300  1.0000 0.1681314722
H   H34       1.0  0.31750  0.47180  0.81700  1.0000 0.1681314722
H   H35       1.0  0.31750  0.02820  0.31700  1.0000 0.1681314722
H   H36       1.0  0.68250  0.52820  0.18300  1.0000 0.1681314722
H   H37       1.0  0.81760  0.91750  0.68450  1.0000 0.1519465526
H   H38       1.0  0.18240  0.41750  0.81550  1.0000 0.1519465526
H   H39       1.0  0.18240  0.08250  0.31550  1.0000 0.1519465526
H   H40       1.0  0.81760  0.58250  0.18450  1.0000 0.1519465526
H   H41       1.0  0.73850  0.01430  0.62480  1.0000 0.1519465526
H   H42       1.0  0.26150  0.51430  0.87520  1.0000 0.1519465526
H   H43       1.0  0.26150  0.98570  0.37520  1.0000 0.1602750816
H   H44       1.0  0.73850  0.48570  0.12480  1.0000 0.1602750816
H   H45       1.0  0.57750  0.68730  0.41080  1.0000 0.1602750816
H   H46       1.0  0.42250  0.18730  0.08920  1.0000 0.1602750816
H   H47       1.0  0.42250  0.31270  0.58920  1.0000 0.1602750816
H   H48       1.0  0.57750  0.81270  0.91080  1.0000 0.1602750816
H   H49       1.0  0.46090  0.62690  0.42440  1.0000 0.1519465526
H   H50       1.0  0.53910  0.12690  0.07560  1.0000 0.1519465526
H   H51       1.0  0.53910  0.37310  0.57560  1.0000 0.1519465526
H   H52       1.0  0.46090  0.87310  0.92440  1.0000 0.1519465526
H   H53       1.0  0.01090  0.38690  0.64160  1.0000 0.1602750816
H   H54       1.0  0.98910  0.88690  0.85840  1.0000 0.1602750816
H   H55       1.0  0.98910  0.61310  0.35840  1.0000 0.1602750816
H   H56       1.0  0.01090  0.11310  0.14160  1.0000 0.1602750816
H   H57       1.0  0.06030  0.47690  0.60130  1.0000 0.1681314722
H   H58       1.0  0.93970  0.97690  0.89870  1.0000 0.1602750816
H   H59       1.0  0.93970  0.52310  0.39870  1.0000 0.1602750816
H   H60       1.0  0.06030  0.02310  0.10130  1.0000 0.1681314722
H   H61       1.0  0.03490  0.50690  0.67430  1.0000 0.1602750816
H   H62       1.0  0.96510  0.00690  0.82570  1.0000 0.1602750816
H   H63       1.0  0.96510  0.49310  0.32570  1.0000 0.1602750816
H   H64       1.0  0.03490  0.99310  0.17430  1.0000 0.1602750816
C   C1        1.0  0.17870  0.65880  0.26450  1.0000 -0.5343576953
C   C2        1.0  0.82130  0.15880  0.23550  1.0000 -0.5343576953
C   C3        1.0  0.82130  0.34120  0.73550  1.0000 -0.5343576953
C   C4        1.0  0.17870  0.84120  0.76450  1.0000 -0.5343576953
C   C5        1.0  0.09020  0.74350  0.27350  1.0000 0.3946973399
C   C6        1.0  0.90980  0.24350  0.22650  1.0000 0.3946973399
C   C7        1.0  0.90980  0.25650  0.72650  1.0000 0.3946973399
C   C8        1.0  0.09020  0.75650  0.77350  1.0000 0.4000857918
C   C9        1.0  0.00400  0.85350  0.32250  1.0000 0.3522039667
C   C10       1.0  0.99600  0.35350  0.17750  1.0000 0.3522039667
C   C11       1.0  0.99600  0.14650  0.67750  1.0000 0.3522039667
C   C12       1.0  0.00400  0.64650  0.82250  1.0000 0.3522039667
C   C13       1.0  0.98370  0.91910  0.38180  1.0000 -0.3720232829
C   C14       1.0  0.01630  0.41910  0.11820  1.0000 -0.3720232829
C   C15       1.0  0.01630  0.08090  0.61820  1.0000 -0.3720232829
C   C16       1.0  0.98370  0.58090  0.88180  1.0000 -0.3720232829
C   C17       1.0  0.00690  0.85750  0.45390  1.0000 0.3590054415
C   C18       1.0  0.99310  0.35750  0.04610  1.0000 0.3590054415
C   C19       1.0  0.99310  0.14250  0.54610  1.0000 0.3590054415
C   C20       1.0  0.00690  0.64250  0.95390  1.0000 0.3590054415
C   C21       1.0  0.10950  0.76090  0.55780  1.0000 0.407743597
C   C22       1.0  0.89050  0.26090  0.94220  1.0000 0.407743597
C   C23       1.0  0.89050  0.23910  0.44220  1.0000 0.407743597
C   C24       1.0  0.10950  0.73910  0.05780  1.0000 0.407743597
C   C25       1.0  0.21550  0.69260  0.62280  1.0000 -0.5343576953
C   C26       1.0  0.78450  0.19260  0.87720  1.0000 -0.5343576953
C   C27       1.0  0.78450  0.30740  0.37720  1.0000 -0.5343576953
C   C28       1.0  0.21550  0.80740  0.12280  1.0000 -0.5343576953
C   C29       1.0  0.72550  0.95090  0.65040  1.0000 -0.516687183
C   C30       1.0  0.27450  0.45090  0.84960  1.0000 -0.516687183
C   C31       1.0  0.27450  0.04910  0.34960  1.0000 -0.516687183
C   C32       1.0  0.72550  0.54910  0.15040  1.0000 -0.516687183
C   C33       1.0  0.63190  0.87400  0.58850  1.0000 0.4000857918
C   C34       1.0  0.36810  0.37400  0.91150  1.0000 0.4000857918
C   C35       1.0  0.36810  0.12600  0.41150  1.0000 0.4000857918
C   C36       1.0  0.63190  0.62600  0.08850  1.0000 0.4000857918
C   C37       1.0  0.56130  0.74610  0.50540  1.0000 0.3673820213
C   C38       1.0  0.43870  0.24610  0.99460  1.0000 0.3673820213
C   C39       1.0  0.43870  0.25390  0.49460  1.0000 0.3673820213
C   C40       1.0  0.56130  0.75390  0.00540  1.0000 0.3673820213
C   C41       1.0  0.55750  0.65740  0.45200  1.0000 -0.3799686715
C   C42       1.0  0.44250  0.15740  0.04800  1.0000 -0.3799686715
C   C43       1.0  0.44250  0.34260  0.54800  1.0000 -0.3799686715
C   C44       1.0  0.55750  0.84260  0.95200  1.0000 -0.3799686715
C   C45       1.0  0.66080  0.56950  0.49490  1.0000 0.3590054415
C   C46       1.0  0.33920  0.06950  0.00510  1.0000 0.3590054415
C   C47       1.0  0.33920  0.43050  0.50510  1.0000 0.3590054415
C   C48       1.0  0.66080  0.93050  0.99490  1.0000 0.3590054415
C   C49       1.0  0.85170  0.48750  0.56970  1.0000 0.4000857918
C   C50       1.0  0.14830  0.98750  0.93030  1.0000 0.4000857918
C   C51       1.0  0.14830  0.51250  0.43030  1.0000 0.4000857918
C   C52       1.0  0.85170  0.01250  0.06970  1.0000 0.4000857918
C   C53       1.0  0.00230  0.46240  0.62660  1.0000 -0.5406282976
C   C54       1.0  0.99770  0.96240  0.87340  1.0000 -0.5406282976
C   C55       1.0  0.99770  0.53760  0.37340  1.0000 -0.5406282976
C   C56       1.0  0.00230  0.03760  0.12660  1.0000 -0.5406282976
N   N1        1.0  0.68010  0.79540  0.55840  1.0000 -0.4383644322
N   N2        1.0  0.31990  0.29540  0.94160  1.0000 -0.4383644322
N   N3        1.0  0.31990  0.20460  0.44160  1.0000 -0.4383644322
N   N4        1.0  0.68010  0.70460  0.05840  1.0000 -0.4383644322
N   N5        1.0  0.49410  0.87390  0.55730  1.0000 -0.2960606649
N   N6        1.0  0.50590  0.37390  0.94270  1.0000 -0.2960606649
N   N7        1.0  0.50590  0.12610  0.44270  1.0000 -0.2960606649
N   N8        1.0  0.49410  0.62610  0.05730  1.0000 -0.2960606649
N   N9        1.0  0.44800  0.79040  0.50290  1.0000 -0.2808624913
N   N10       1.0  0.55200  0.29040  0.99710  1.0000 -0.2808624913
N   N11       1.0  0.55200  0.20960  0.49710  1.0000 -0.2808624913
N   N12       1.0  0.44800  0.70960  0.00290  1.0000 -0.2808624913
N   N13       1.0  0.79946  0.58720  0.54786  1.0000 -0.4383644322
N   N14       1.0  0.20054  0.08720  0.95214  1.0000 -0.4383644322
N   N15       1.0  0.20054  0.41280  0.45214  1.0000 -0.4383644322
N   N16       1.0  0.79946  0.91280  0.04786  1.0000 -0.4383644322
N   N17       1.0  0.62640  0.46780  0.48270  1.0000 -0.2914852783
N   N18       1.0  0.37360  0.96780  0.01730  1.0000 -0.2914852783
N   N19       1.0  0.37360  0.53220  0.51730  1.0000 -0.2914852783
N   N20       1.0  0.62640  0.03220  0.98270  1.0000 -0.2914852783
N   N21       1.0  0.75190  0.41500  0.53280  1.0000 -0.2808624913
N   N22       1.0  0.24810  0.91500  0.96720  1.0000 -0.2808624913
N   N23       1.0  0.24810  0.58500  0.46720  1.0000 -0.2808624913
N   N24       1.0  0.75190  0.08500  0.03280  1.0000 -0.2808624913
N   N25       1.0  0.98610  0.79220  0.55060  1.0000 -0.2960606649
N   N26       1.0  0.01390  0.29220  0.94940  1.0000 -0.2960606649
N   N27       1.0  0.01390  0.20780  0.44940  1.0000 -0.2960606649
N   N28       1.0  0.98610  0.70780  0.05060  1.0000 -0.2960606649
N   N29       1.0  0.91910  0.85530  0.48250  1.0000 -0.2914852783
N   N30       1.0  0.08090  0.35530  0.01750  1.0000 -0.2914852783
N   N31       1.0  0.08090  0.14470  0.51750  1.0000 -0.2914852783
N   N32       1.0  0.91910  0.64470  0.98250  1.0000 -0.2914852783
N   N33       1.0  0.12730  0.79990  0.49840  1.0000 -0.4383644322
N   N34       1.0  0.87270  0.29990  0.00160  1.0000 -0.4383644322
N   N35       1.0  0.87270  0.20010  0.50160  1.0000 -0.4383644322
N   N36       1.0  0.12730  0.70010  0.99840  1.0000 -0.4383644322
N   N37       1.0  0.11470  0.78430  0.34350  1.0000 -0.4547684177
N   N38       1.0  0.88530  0.28430  0.15650  1.0000 -0.4552289828
N   N39       1.0  0.88530  0.21570  0.65650  1.0000 -0.4552289828
N   N40       1.0  0.11470  0.71570  0.84350  1.0000 -0.4552289828
N   N41       1.0  0.91900  0.85750  0.24560  1.0000 -0.2914852783
N   N42       1.0  0.08100  0.35750  0.25440  1.0000 -0.2914852783
N   N43       1.0  0.08100  0.14250  0.75440  1.0000 -0.2914852783
N   N44       1.0  0.91900  0.64250  0.74560  1.0000 -0.2914852783
N   N45       1.0  0.97580  0.78520  0.21410  1.0000 -0.2808624913
N   N46       1.0  0.02420  0.28520  0.28590  1.0000 -0.2808624913
N   N47       1.0  0.02420  0.21480  0.78590  1.0000 -0.2808624913
N   N48       1.0  0.97580  0.71480  0.71410  1.0000 -0.2808624913
