# DDEC6 charges by PACMAN v1.1 (https://github.com/mtap-research/PACMAN-charge/)
data_2012[Dy][nan]3[ASR]2
_chemical_formula_sum              "Dy4 H18 C40 O30"
_cell_length_a       7.3494
_cell_length_b       11.475
_cell_length_c       16.1852
_cell_angle_alpha    78.799
_cell_angle_beta     82.483
_cell_angle_gamma    79.955

_symmetry_space_group_name_H-M    "P 1"
_symmetry_Int_Tables_number       1

loop_
  _symmetry_equiv_pos_as_xyz
  'x, y, z'

loop_
  _atom_site_type_symbol
  _atom_site_label
  _atom_site_symmetry_multiplicity
  _atom_site_fract_x
  _atom_site_fract_y
  _atom_site_fract_z
  _atom_site_occupancy
  _atom_site_charge
Dy  Dy1       1.0  0.94154  0.06598  0.77363  1.0000 2.0105618653
Dy  Dy2       1.0  0.05846  0.93402  0.22637  1.0000 2.0105618653
Dy  Dy3       1.0  0.44429  0.26456  0.76397  1.0000 2.0782330451
Dy  Dy4       1.0  0.55571  0.73544  0.23603  1.0000 2.0782330451
H   H1        1.0  0.99470  0.20710  0.96700  1.0000 0.3533437915
H   H2        1.0  0.00530  0.79290  0.03300  1.0000 0.3533437915
H   H3        1.0  0.57100  0.73060  0.97990  1.0000 0.3533437915
H   H4        1.0  0.42900  0.26940  0.02010  1.0000 0.3533437915
H   H5        1.0  0.84630  0.25560  0.55940  1.0000 0.3426188347
H   H6        1.0  0.15370  0.74440  0.44060  1.0000 0.3426188347
H   H7        1.0  0.84880  0.87660  0.59680  1.0000 0.3533437915
H   H8        1.0  0.15120  0.12340  0.40320  1.0000 0.3533437915
H   H9        1.0  0.87460  0.38530  0.10680  1.0000 0.1482410746
H   H10       1.0  0.12540  0.61470  0.89320  1.0000 0.1482410746
H   H11       1.0  0.65020  0.54120  0.84670  1.0000 0.1482410746
H   H12       1.0  0.34980  0.45880  0.15330  1.0000 0.1482410746
H   H13       1.0  0.21870  0.50540  0.58930  1.0000 0.1482410746
H   H14       1.0  0.78130  0.49460  0.41070  1.0000 0.1482410746
H   H15       1.0  0.38510  0.17930  0.54700  1.0000 0.1386596007
H   H16       1.0  0.61490  0.82070  0.45300  1.0000 0.1386596007
H   H17       1.0  0.20270  0.95410  0.02970  1.0000 0.1386596007
H   H18       1.0  0.79730  0.04590  0.97030  1.0000 0.1386596007
C   C1        1.0  0.79400  0.39260  0.91270  1.0000 -0.1455367687
C   C2        1.0  0.20600  0.60740  0.08730  1.0000 -0.1455367687
C   C3        1.0  0.87030  0.34890  0.99000  1.0000 0.259548035
C   C4        1.0  0.12970  0.65110  0.01000  1.0000 0.259548035
C   C5        1.0  0.83470  0.41740  0.05370  1.0000 -0.1874607923
C   C6        1.0  0.16530  0.58260  0.94630  1.0000 -0.1847418728
C   C7        1.0  0.73960  0.53380  0.03830  1.0000 -0.1290252986
C   C8        1.0  0.26040  0.46620  0.96170  1.0000 -0.1290252986
C   C9        1.0  0.67690  0.58150  0.95950  1.0000 0.2525286493
C   C10       1.0  0.32310  0.41850  0.04050  1.0000 0.2525286493
C   C11       1.0  0.69890  0.51060  0.89810  1.0000 -0.1874607923
C   C12       1.0  0.30110  0.48940  0.10190  1.0000 -0.1847418728
C   C13       1.0  0.80790  0.31420  0.84800  1.0000 0.6475014505
C   C14       1.0  0.19210  0.68580  0.15200  1.0000 0.6475014505
C   C15       1.0  0.70140  0.60480  0.10790  1.0000 0.5743167815
C   C16       1.0  0.29860  0.39520  0.89210  1.0000 0.5743167815
C   C17       1.0  0.90130  0.40410  0.51420  1.0000 0.265490931
C   C18       1.0  0.09870  0.59590  0.48580  1.0000 0.265490931
C   C19       1.0  0.03290  0.40620  0.56900  1.0000 -0.1403531241
C   C20       1.0  0.96710  0.59380  0.43100  1.0000 -0.1403531241
C   C21       1.0  0.13060  0.50300  0.55360  1.0000 -0.1874607923
C   C22       1.0  0.86940  0.49700  0.44640  1.0000 -0.1874607923
C   C23       1.0  0.07150  0.30840  0.64300  1.0000 0.6670314488
C   C24       1.0  0.92850  0.69160  0.35700  1.0000 0.6670314488
C   C25       1.0  0.64980  0.92410  0.53600  1.0000 0.259548035
C   C26       1.0  0.35020  0.07590  0.46400  1.0000 0.259548035
C   C27       1.0  0.43150  0.10730  0.52800  1.0000 -0.1874607923
C   C28       1.0  0.56850  0.89270  0.47200  1.0000 -0.1847418728
C   C29       1.0  0.58210  0.03190  0.56390  1.0000 -0.1403531241
C   C30       1.0  0.41790  0.96810  0.43610  1.0000 -0.1403531241
C   C31       1.0  0.66260  0.06940  0.63370  1.0000 0.6647022781
C   C32       1.0  0.33740  0.93060  0.36630  1.0000 0.6647022781
C   C33       1.0  0.32310  0.97210  0.01840  1.0000 -0.2099387231
C   C34       1.0  0.67690  0.02790  0.98160  1.0000 -0.2099387231
C   C35       1.0  0.56710  0.04720  0.91460  1.0000 0.3277399806
C   C36       1.0  0.43290  0.95280  0.08540  1.0000 0.3277399806
C   C37       1.0  0.38680  0.01710  0.93530  1.0000 -0.1290252986
C   C38       1.0  0.61320  0.98290  0.06470  1.0000 -0.1290252986
C   C39       1.0  0.25210  0.03490  0.87150  1.0000 0.6438233075
C   C40       1.0  0.74790  0.96510  0.12850  1.0000 0.6438233075
O   O1        1.0  0.92580  0.21970  0.85450  1.0000 -0.6425812426
O   O2        1.0  0.07420  0.78030  0.14550  1.0000 -0.6425812426
O   O3        1.0  0.69790  0.34370  0.79062  1.0000 -0.6928103152
O   O4        1.0  0.30210  0.65630  0.20938  1.0000 -0.6928103152
O   O5        1.0  0.73290  0.55750  0.18250  1.0000 -0.6064763847
O   O6        1.0  0.26710  0.44250  0.81750  1.0000 -0.6064763847
O   O7        1.0  0.62770  0.71440  0.09140  1.0000 -0.6425812426
O   O8        1.0  0.37230  0.28560  0.90860  1.0000 -0.6425812426
O   O9        1.0  0.98190  0.24180  0.00760  1.0000 -0.4081820729
O   O10       1.0  0.01810  0.75820  0.99240  1.0000 -0.4081820729
O   O11       1.0  0.58120  0.69620  0.93920  1.0000 -0.4329870177
O   O12       1.0  0.41880  0.30380  0.06080  1.0000 -0.4329870177
O   O13       1.0  0.97870  0.22130  0.65659  1.0000 -0.6705066743
O   O14       1.0  0.02130  0.77870  0.34341  1.0000 -0.6705066743
O   O15       1.0  0.19110  0.31750  0.68740  1.0000 -0.6490896675
O   O16       1.0  0.80890  0.68250  0.31260  1.0000 -0.6490896675
O   O17       1.0  0.79770  0.31320  0.52690  1.0000 -0.4329870177
O   O18       1.0  0.20230  0.68680  0.47310  1.0000 -0.4329870177
O   O19       1.0  0.58900  0.16640  0.65790  1.0000 -0.6928103152
O   O20       1.0  0.41100  0.83360  0.34210  1.0000 -0.6928103152
O   O21       1.0  0.80290  0.00420  0.66400  1.0000 -0.6490896675
O   O22       1.0  0.19710  0.99580  0.33600  1.0000 -0.6490896675
O   O23       1.0  0.79690  0.84470  0.56730  1.0000 -0.4329870177
O   O24       1.0  0.20310  0.15530  0.43270  1.0000 -0.4329870177
O   O25       1.0  0.27120  0.10650  0.80107  1.0000 -0.7204194846
O   O26       1.0  0.72880  0.89350  0.19893  1.0000 -0.7204194846
O   O27       1.0  0.11320  0.98120  0.88824  1.0000 -0.6280726674
O   O28       1.0  0.88680  0.01880  0.11176  1.0000 -0.6280726674
O   O29       1.0  0.63350  0.09390  0.83485  1.0000 -0.8341405275
O   O30       1.0  0.36650  0.90610  0.16515  1.0000 -0.8341405275
