# DDEC6 charges by PACMAN v1.1 (https://github.com/mtap-research/PACMAN-charge/)
data_2012[Cd][dia]3[ASR]1
_chemical_formula_sum              "Cd4 H28 C48 Br8 N8 O18"
_cell_length_a       11.6114
_cell_length_b       11.6114
_cell_length_c       15.0538
_cell_angle_alpha    70.3701
_cell_angle_beta     109.63
_cell_angle_gamma    83.0865

_symmetry_space_group_name_H-M    "P 1"
_symmetry_Int_Tables_number       1

loop_
  _symmetry_equiv_pos_as_xyz
  'x, y, z'

loop_
  _atom_site_type_symbol
  _atom_site_label
  _atom_site_symmetry_multiplicity
  _atom_site_fract_x
  _atom_site_fract_y
  _atom_site_fract_z
  _atom_site_occupancy
  _atom_site_charge
Cd  Cd1       1.0  0.26645  0.99867  0.28577  1.0000 0.9097117379
Cd  Cd2       1.0  0.99867  0.26645  0.21423  1.0000 0.9097117379
Cd  Cd3       1.0  0.73355  0.00133  0.71423  1.0000 0.9097117379
Cd  Cd4       1.0  0.00133  0.73355  0.78577  1.0000 0.9097117379
H   H1        1.0  0.00680  0.05220  0.19350  1.0000 0.3789029613
H   H2        1.0  0.05220  0.00680  0.30650  1.0000 0.3789029613
H   H3        1.0  0.99320  0.94780  0.80650  1.0000 0.3789029613
H   H4        1.0  0.94780  0.99320  0.69350  1.0000 0.3789029613
H   H5        1.0  0.98020  0.51740  0.69490  1.0000 0.1191195276
H   H6        1.0  0.51740  0.98020  0.80510  1.0000 0.1191195276
H   H7        1.0  0.01980  0.48260  0.30510  1.0000 0.1191195276
H   H8        1.0  0.48260  0.01980  0.19490  1.0000 0.1191195276
H   H9        1.0  0.11140  0.16840  0.91890  1.0000 0.1478650503
H   H10       1.0  0.16840  0.11140  0.58110  1.0000 0.1478650503
H   H11       1.0  0.88860  0.83160  0.08110  1.0000 0.1478650503
H   H12       1.0  0.83160  0.88860  0.41890  1.0000 0.1478650503
H   H13       1.0  0.10420  0.47740  0.98150  1.0000 0.1191195276
H   H14       1.0  0.47740  0.10420  0.51850  1.0000 0.1191195276
H   H15       1.0  0.89580  0.52260  0.01850  1.0000 0.1191195276
H   H16       1.0  0.52260  0.89580  0.48150  1.0000 0.1191195276
H   H17       1.0  0.31440  0.65400  0.87300  1.0000 0.1191195276
H   H18       1.0  0.65400  0.31440  0.62700  1.0000 0.1191195276
H   H19       1.0  0.68560  0.34600  0.12700  1.0000 0.1191195276
H   H20       1.0  0.34600  0.68560  0.37300  1.0000 0.1191195276
H   H21       1.0  0.43450  0.75510  0.64520  1.0000 0.1376914874
H   H22       1.0  0.75510  0.43450  0.85480  1.0000 0.1376914874
H   H23       1.0  0.56550  0.24490  0.35480  1.0000 0.1376914874
H   H24       1.0  0.24490  0.56550  0.14520  1.0000 0.1376914874
H   H25       1.0  0.06530  0.81970  0.58840  1.0000 0.1191195276
H   H26       1.0  0.81970  0.06530  0.91160  1.0000 0.1191195276
H   H27       1.0  0.93470  0.18030  0.41160  1.0000 0.1191195276
H   H28       1.0  0.18030  0.93470  0.08840  1.0000 0.1191195276
C   C1        1.0  0.01560  0.46520  0.76480  1.0000 0.0079670486
C   C2        1.0  0.46520  0.01560  0.73520  1.0000 0.0079670486
C   C3        1.0  0.98440  0.53480  0.23520  1.0000 0.0079670486
C   C4        1.0  0.53480  0.98440  0.26480  1.0000 0.0079670486
C   C5        1.0  0.04010  0.33630  0.79460  1.0000 0.0490734647
C   C6        1.0  0.33630  0.04010  0.70540  1.0000 0.0490734647
C   C7        1.0  0.95990  0.66370  0.20540  1.0000 0.0490734647
C   C8        1.0  0.66370  0.95990  0.29460  1.0000 0.0490734647
C   C9        1.0  0.09260  0.25600  0.89780  1.0000 -0.1094923692
C   C10       1.0  0.25600  0.09260  0.60220  1.0000 -0.1094923692
C   C11       1.0  0.90740  0.74400  0.10220  1.0000 -0.1094923692
C   C12       1.0  0.74400  0.90740  0.39780  1.0000 -0.1094923692
C   C13       1.0  0.11620  0.31080  0.96900  1.0000 -0.0407478988
C   C14       1.0  0.31080  0.11620  0.53100  1.0000 -0.0407478988
C   C15       1.0  0.88380  0.68920  0.03100  1.0000 -0.0407478988
C   C16       1.0  0.68920  0.88380  0.46900  1.0000 -0.0407478988
C   C17       1.0  0.08880  0.44120  0.93360  1.0000 0.0416995741
C   C18       1.0  0.44120  0.08880  0.56640  1.0000 0.0416995741
C   C19       1.0  0.91120  0.55880  0.06640  1.0000 0.0416995741
C   C20       1.0  0.55880  0.91120  0.43360  1.0000 0.0416995741
C   C21       1.0  0.16290  0.23310  0.08290  1.0000 0.5744042441
C   C22       1.0  0.23310  0.16290  0.41710  1.0000 0.5744042441
C   C23       1.0  0.83710  0.76690  0.91710  1.0000 0.5744042441
C   C24       1.0  0.76690  0.83710  0.58290  1.0000 0.5744042441
C   C25       1.0  0.29540  0.69100  0.80280  1.0000 0.0079670486
C   C26       1.0  0.69100  0.29540  0.69720  1.0000 0.0079670486
C   C27       1.0  0.70460  0.30900  0.19720  1.0000 0.0079670486
C   C28       1.0  0.30900  0.70460  0.30280  1.0000 0.0079670486
C   C29       1.0  0.39260  0.69780  0.77050  1.0000 0.0490734647
C   C30       1.0  0.69780  0.39260  0.72950  1.0000 0.0490734647
C   C31       1.0  0.60740  0.30220  0.22950  1.0000 0.0490734647
C   C32       1.0  0.30220  0.60740  0.27050  1.0000 0.0490734647
C   C33       1.0  0.36880  0.75020  0.66720  1.0000 -0.1094923692
C   C34       1.0  0.75020  0.36880  0.83280  1.0000 -0.1094923692
C   C35       1.0  0.63120  0.24980  0.33280  1.0000 -0.1094923692
C   C36       1.0  0.24980  0.63120  0.16720  1.0000 -0.1094923692
C   C37       1.0  0.24350  0.79510  0.59750  1.0000 -0.0407478988
C   C38       1.0  0.79510  0.24350  0.90250  1.0000 -0.0407478988
C   C39       1.0  0.75650  0.20490  0.40250  1.0000 -0.0407478988
C   C40       1.0  0.20490  0.75650  0.09750  1.0000 -0.0407478988
C   C41       1.0  0.14950  0.78750  0.63530  1.0000 0.0490734647
C   C42       1.0  0.78750  0.14950  0.86470  1.0000 0.0490734647
C   C43       1.0  0.85050  0.21250  0.36470  1.0000 0.0490734647
C   C44       1.0  0.21250  0.85050  0.13530  1.0000 0.0490734647
C   C45       1.0  0.20510  0.85650  0.48220  1.0000 0.5629262373
C   C46       1.0  0.85650  0.20510  0.01780  1.0000 0.5629262373
C   C47       1.0  0.79490  0.14350  0.51780  1.0000 0.5629262373
C   C48       1.0  0.14350  0.79490  0.98220  1.0000 0.5629262373
Br  Br1       1.0  0.99484  0.27074  0.69199  1.0000 -0.0407478988
Br  Br2       1.0  0.27074  0.99484  0.80801  1.0000 -0.0407478988
Br  Br3       1.0  0.00516  0.72926  0.30801  1.0000 -0.0407478988
Br  Br4       1.0  0.72926  0.00516  0.19199  1.0000 -0.0407478988
Br  Br5       1.0  0.56209  0.63573  0.87044  1.0000 -0.0407478988
Br  Br6       1.0  0.63573  0.56209  0.62956  1.0000 -0.0407478988
Br  Br7       1.0  0.43791  0.36427  0.12956  1.0000 -0.0407478988
Br  Br8       1.0  0.36427  0.43791  0.37044  1.0000 -0.0407478988
N   N1        1.0  0.04120  0.51820  0.83320  1.0000 -0.2100219011
N   N2        1.0  0.51820  0.04120  0.66680  1.0000 -0.2100219011
N   N3        1.0  0.95880  0.48180  0.16680  1.0000 -0.2100219011
N   N4        1.0  0.48180  0.95880  0.33320  1.0000 -0.2100219011
N   N5        1.0  0.17390  0.73630  0.73590  1.0000 -0.233253698
N   N6        1.0  0.73630  0.17390  0.76410  1.0000 -0.233253698
N   N7        1.0  0.82610  0.26370  0.26410  1.0000 -0.233253698
N   N8        1.0  0.26370  0.82610  0.23590  1.0000 -0.233253698
O   O1        1.0  0.22156  0.11916  0.11750  1.0000 -0.545400019
O   O2        1.0  0.11916  0.22156  0.38250  1.0000 -0.545400019
O   O3        1.0  0.77844  0.88084  0.88250  1.0000 -0.545400019
O   O4        1.0  0.88084  0.77844  0.61750  1.0000 -0.545400019
O   O5        1.0  0.13770  0.28990  0.13460  1.0000 -0.5634484097
O   O6        1.0  0.28990  0.13770  0.36540  1.0000 -0.5634484097
O   O7        1.0  0.86230  0.71010  0.86540  1.0000 -0.5634484097
O   O8        1.0  0.71010  0.86230  0.63460  1.0000 -0.5634484097
O   O9        1.0  0.08830  0.89710  0.42890  1.0000 -0.5435892299
O   O10       1.0  0.89710  0.08830  0.07110  1.0000 -0.5435892299
O   O11       1.0  0.91170  0.10290  0.57110  1.0000 -0.5435892299
O   O12       1.0  0.10290  0.91170  0.92890  1.0000 -0.5435892299
O   O13       1.0  0.29180  0.86080  0.45030  1.0000 -0.5634484097
O   O14       1.0  0.86080  0.29180  0.04970  1.0000 -0.5634484097
O   O15       1.0  0.70820  0.13920  0.54970  1.0000 -0.5634484097
O   O16       1.0  0.13920  0.70820  0.95030  1.0000 -0.5634484097
O   O17       1.0  0.05370  0.05370  0.25000  1.0000 -0.7033917859
O   O18       1.0  0.94630  0.94630  0.75000  1.0000 -0.7033917859
