# DDEC6 charges by PACMAN v1.1 (https://github.com/mtap-research/PACMAN-charge/)
data_2012[Ag][dia]3[ASR]1
_chemical_formula_sum              "Ag4 H48 C50 N8 O8"
_cell_length_a       10.0372
_cell_length_b       10.0372
_cell_length_c       17.607
_cell_angle_alpha    90
_cell_angle_beta     90
_cell_angle_gamma    90

_symmetry_space_group_name_H-M    "P 1"
_symmetry_Int_Tables_number       1

loop_
  _symmetry_equiv_pos_as_xyz
  'x, y, z'

loop_
  _atom_site_type_symbol
  _atom_site_label
  _atom_site_symmetry_multiplicity
  _atom_site_fract_x
  _atom_site_fract_y
  _atom_site_fract_z
  _atom_site_occupancy
  _atom_site_charge
Ag  Ag1       1.0  0.29786  0.00000  0.75000  1.0000 0.1479244942
Ag  Ag2       1.0  0.70214  0.00000  0.75000  1.0000 0.1479244942
Ag  Ag3       1.0  0.00000  0.29786  0.25000  1.0000 0.1479244942
Ag  Ag4       1.0  0.00000  0.70214  0.25000  1.0000 0.1479244942
H   H1        1.0  0.34580  0.08310  0.07690  1.0000 0.1389759856
H   H2        1.0  0.65420  0.91690  0.07690  1.0000 0.1389759856
H   H3        1.0  0.34580  0.91690  0.42310  1.0000 0.1389759856
H   H4        1.0  0.65420  0.08310  0.42310  1.0000 0.1389759856
H   H5        1.0  0.08310  0.34580  0.57690  1.0000 0.1389759856
H   H6        1.0  0.91690  0.65420  0.57690  1.0000 0.1389759856
H   H7        1.0  0.91690  0.34580  0.92310  1.0000 0.1389759856
H   H8        1.0  0.08310  0.65420  0.92310  1.0000 0.1389759856
H   H9        1.0  0.38980  0.39980  0.91910  1.0000 0.0945288131
H   H10       1.0  0.61020  0.60020  0.91910  1.0000 0.0945288131
H   H11       1.0  0.38980  0.60020  0.58090  1.0000 0.0945288131
H   H12       1.0  0.61020  0.39980  0.58090  1.0000 0.0945288131
H   H13       1.0  0.39980  0.38980  0.41910  1.0000 0.0945288131
H   H14       1.0  0.60020  0.61020  0.41910  1.0000 0.0945288131
H   H15       1.0  0.60020  0.38980  0.08090  1.0000 0.0945288131
H   H16       1.0  0.39980  0.61020  0.08090  1.0000 0.0945288131
H   H17       1.0  0.54110  0.35780  0.91850  1.0000 0.0945288131
H   H18       1.0  0.45890  0.64220  0.91850  1.0000 0.0945288131
H   H19       1.0  0.54110  0.64220  0.58150  1.0000 0.0945288131
H   H20       1.0  0.45890  0.35780  0.58150  1.0000 0.0945288131
H   H21       1.0  0.35780  0.54110  0.41850  1.0000 0.0945288131
H   H22       1.0  0.64220  0.45890  0.41850  1.0000 0.0945288131
H   H23       1.0  0.64220  0.54110  0.08150  1.0000 0.0945288131
H   H24       1.0  0.35780  0.45890  0.08150  1.0000 0.0945288131
H   H25       1.0  0.25570  0.88590  0.02850  1.0000 0.1240017789
H   H26       1.0  0.74430  0.11410  0.02850  1.0000 0.1240017789
H   H27       1.0  0.25570  0.11410  0.47150  1.0000 0.1240017789
H   H28       1.0  0.74430  0.88590  0.47150  1.0000 0.1240017789
H   H29       1.0  0.88590  0.25570  0.52850  1.0000 0.1240017789
H   H30       1.0  0.11410  0.74430  0.52850  1.0000 0.1240017789
H   H31       1.0  0.11410  0.25570  0.97150  1.0000 0.1240017789
H   H32       1.0  0.88590  0.74430  0.97150  1.0000 0.1240017789
H   H33       1.0  0.40160  0.19860  0.86230  1.0000 0.1084717738
H   H34       1.0  0.59840  0.80140  0.86230  1.0000 0.1084717738
H   H35       1.0  0.40160  0.80140  0.63770  1.0000 0.1084717738
H   H36       1.0  0.59840  0.19860  0.63770  1.0000 0.1084717738
H   H37       1.0  0.19860  0.40160  0.36230  1.0000 0.1084717738
H   H38       1.0  0.80140  0.59840  0.36230  1.0000 0.1084717738
H   H39       1.0  0.80140  0.40160  0.13770  1.0000 0.1084717738
H   H40       1.0  0.19860  0.59840  0.13770  1.0000 0.1084717738
H   H41       1.0  0.24020  0.85530  0.90130  1.0000 0.1020885671
H   H42       1.0  0.75980  0.14470  0.90130  1.0000 0.1020885671
H   H43       1.0  0.24020  0.14470  0.59870  1.0000 0.1020885671
H   H44       1.0  0.75980  0.85530  0.59870  1.0000 0.1020885671
H   H45       1.0  0.85530  0.24020  0.40130  1.0000 0.1020885671
H   H46       1.0  0.14470  0.75980  0.40130  1.0000 0.1020885671
H   H47       1.0  0.14470  0.24020  0.09870  1.0000 0.1020885671
H   H48       1.0  0.85530  0.75980  0.09870  1.0000 0.1020885671
C   C1        1.0  0.50000  0.50000  0.00000  1.0000 0.0737961011
C   C2        1.0  0.50000  0.50000  0.50000  1.0000 0.0737961011
C   C3        1.0  0.38500  0.15930  0.97240  1.0000 0.1870028155
C   C4        1.0  0.61500  0.84070  0.97240  1.0000 0.1870028155
C   C5        1.0  0.38500  0.84070  0.52760  1.0000 0.1870028155
C   C6        1.0  0.61500  0.15930  0.52760  1.0000 0.1870028155
C   C7        1.0  0.15930  0.38500  0.47240  1.0000 0.1870028155
C   C8        1.0  0.84070  0.61500  0.47240  1.0000 0.1870028155
C   C9        1.0  0.84070  0.38500  0.02760  1.0000 0.1870028155
C   C10       1.0  0.15930  0.61500  0.02760  1.0000 0.1870028155
C   C11       1.0  0.33990  0.06790  0.02490  1.0000 -0.190994609
C   C12       1.0  0.66010  0.93210  0.02490  1.0000 -0.190994609
C   C13       1.0  0.33990  0.93210  0.47510  1.0000 -0.190994609
C   C14       1.0  0.66010  0.06790  0.47510  1.0000 -0.190994609
C   C15       1.0  0.06790  0.33990  0.52490  1.0000 -0.190994609
C   C16       1.0  0.93210  0.66010  0.52490  1.0000 -0.190994609
C   C17       1.0  0.93210  0.33990  0.97510  1.0000 -0.190994609
C   C18       1.0  0.06790  0.66010  0.97510  1.0000 -0.190994609
C   C19       1.0  0.46640  0.38070  0.95090  1.0000 -0.1052287889
C   C20       1.0  0.53360  0.61930  0.95090  1.0000 -0.1052287889
C   C21       1.0  0.46640  0.61930  0.54910  1.0000 -0.1052287889
C   C22       1.0  0.53360  0.38070  0.54910  1.0000 -0.1052287889
C   C23       1.0  0.38070  0.46640  0.45090  1.0000 -0.1052287889
C   C24       1.0  0.61930  0.53360  0.45090  1.0000 -0.1052287889
C   C25       1.0  0.61930  0.46640  0.04910  1.0000 -0.1052287889
C   C26       1.0  0.38070  0.53360  0.04910  1.0000 -0.1052287889
C   C27       1.0  0.28560  0.95220  0.99570  1.0000 -0.1583279902
C   C28       1.0  0.71440  0.04780  0.99570  1.0000 -0.1583279902
C   C29       1.0  0.28560  0.04780  0.50430  1.0000 -0.1583279902
C   C30       1.0  0.71440  0.95220  0.50430  1.0000 -0.1583279902
C   C31       1.0  0.95220  0.28560  0.49570  1.0000 -0.1544001622
C   C32       1.0  0.04780  0.71440  0.49570  1.0000 -0.1583279902
C   C33       1.0  0.04780  0.28560  0.00430  1.0000 -0.1544001622
C   C34       1.0  0.95220  0.71440  0.00430  1.0000 -0.1544001622
C   C35       1.0  0.37050  0.13550  0.89670  1.0000 -0.1252258194
C   C36       1.0  0.62950  0.86450  0.89670  1.0000 -0.1244997231
C   C37       1.0  0.37050  0.86450  0.60330  1.0000 -0.1244997231
C   C38       1.0  0.62950  0.13550  0.60330  1.0000 -0.1244997231
C   C39       1.0  0.13550  0.37050  0.39670  1.0000 -0.1252258194
C   C40       1.0  0.86450  0.62950  0.39670  1.0000 -0.1244997231
C   C41       1.0  0.86450  0.37050  0.10330  1.0000 -0.1244997231
C   C42       1.0  0.13550  0.62950  0.10330  1.0000 -0.1244997231
C   C43       1.0  0.27550  0.93500  0.91920  1.0000 -0.0057070582
C   C44       1.0  0.72450  0.06500  0.91920  1.0000 -0.0057070582
C   C45       1.0  0.27550  0.06500  0.58080  1.0000 -0.0057070582
C   C46       1.0  0.72450  0.93500  0.58080  1.0000 -0.0057070582
C   C47       1.0  0.93500  0.27550  0.41920  1.0000 -0.0057070582
C   C48       1.0  0.06500  0.72450  0.41920  1.0000 -0.0057070582
C   C49       1.0  0.06500  0.27550  0.08080  1.0000 -0.0057070582
C   C50       1.0  0.93500  0.72450  0.08080  1.0000 -0.0057070582
N   N1        1.0  0.31280  0.02400  0.86970  1.0000 -0.1583279902
N   N2        1.0  0.68720  0.97600  0.86970  1.0000 -0.1583279902
N   N3        1.0  0.31280  0.97600  0.63030  1.0000 -0.1583279902
N   N4        1.0  0.68720  0.02400  0.63030  1.0000 -0.1583279902
N   N5        1.0  0.02400  0.31280  0.36970  1.0000 -0.1583279902
N   N6        1.0  0.97600  0.68720  0.36970  1.0000 -0.1583279902
N   N7        1.0  0.97600  0.31280  0.13030  1.0000 -0.1583279902
N   N8        1.0  0.02400  0.68720  0.13030  1.0000 -0.1583279902
O   O1        1.0  0.43750  0.27460  0.00180  1.0000 -0.2002150712
O   O2        1.0  0.56250  0.72540  0.00180  1.0000 -0.2002150712
O   O3        1.0  0.43750  0.72540  0.49820  1.0000 -0.2002150712
O   O4        1.0  0.56250  0.27460  0.49820  1.0000 -0.2002150712
O   O5        1.0  0.27460  0.43750  0.50180  1.0000 -0.2002150712
O   O6        1.0  0.72540  0.56250  0.50180  1.0000 -0.2002150712
O   O7        1.0  0.72540  0.43750  0.99820  1.0000 -0.2002150712
O   O8        1.0  0.27460  0.56250  0.99820  1.0000 -0.2002150712
