# DDEC6 charges by PACMAN v1.1 (https://github.com/mtap-research/PACMAN-charge/)
data_2012[Gd][nan]3[ASR]2
_chemical_formula_sum              "Gd12 P16 H32 C32 O96"
_cell_length_a       11.0757
_cell_length_b       13.0433
_cell_length_c       25.7014
_cell_angle_alpha    90
_cell_angle_beta     90
_cell_angle_gamma    90

_symmetry_space_group_name_H-M    "P 1"
_symmetry_Int_Tables_number       1

loop_
  _symmetry_equiv_pos_as_xyz
  'x, y, z'

loop_
  _atom_site_type_symbol
  _atom_site_label
  _atom_site_symmetry_multiplicity
  _atom_site_fract_x
  _atom_site_fract_y
  _atom_site_fract_z
  _atom_site_occupancy
  _atom_site_charge
Gd  Gd1       1.0  0.02059  0.34297  0.21878  1.0000 2.0543853073
Gd  Gd2       1.0  0.52059  0.15703  0.28122  1.0000 2.0543853073
Gd  Gd3       1.0  0.47941  0.34297  0.78122  1.0000 2.0543853073
Gd  Gd4       1.0  0.97941  0.15703  0.71878  1.0000 2.0543853073
Gd  Gd5       1.0  0.97941  0.65703  0.78122  1.0000 2.0543853073
Gd  Gd6       1.0  0.47941  0.84297  0.71878  1.0000 2.0543853073
Gd  Gd7       1.0  0.52059  0.65703  0.21878  1.0000 2.0543853073
Gd  Gd8       1.0  0.02059  0.84297  0.28122  1.0000 2.0543853073
Gd  Gd9       1.0  0.75000  0.50787  0.00000  1.0000 2.1091471939
Gd  Gd10      1.0  0.25000  0.99213  0.50000  1.0000 2.1091471939
Gd  Gd11      1.0  0.25000  0.49213  0.00000  1.0000 2.1091471939
Gd  Gd12      1.0  0.75000  0.00787  0.50000  1.0000 2.1091471939
P   P1        1.0  0.84725  0.18856  0.30396  1.0000 1.3551664381
P   P2        1.0  0.34725  0.31144  0.19604  1.0000 1.3551664381
P   P3        1.0  0.65275  0.18856  0.69604  1.0000 1.3542244761
P   P4        1.0  0.15275  0.31144  0.80396  1.0000 1.3542244761
P   P5        1.0  0.15275  0.81144  0.69604  1.0000 1.3542244761
P   P6        1.0  0.65275  0.68856  0.80396  1.0000 1.3542244761
P   P7        1.0  0.34725  0.81144  0.30396  1.0000 1.3551664381
P   P8        1.0  0.84725  0.68856  0.19604  1.0000 1.3551664381
P   P9        1.0  0.68901  0.29826  0.08165  1.0000 1.3072140096
P   P10       1.0  0.18901  0.20174  0.41835  1.0000 1.3072140096
P   P11       1.0  0.81099  0.29826  0.91835  1.0000 1.3072140096
P   P12       1.0  0.31099  0.20174  0.58165  1.0000 1.3072140096
P   P13       1.0  0.31099  0.70174  0.91835  1.0000 1.3072140096
P   P14       1.0  0.81099  0.79826  0.58165  1.0000 1.3072140096
P   P15       1.0  0.18901  0.70174  0.08165  1.0000 1.3072140096
P   P16       1.0  0.68901  0.79826  0.41835  1.0000 1.3072140096
H   H1        1.0  0.89940  0.10940  0.22460  1.0000 0.151983398
H   H2        1.0  0.39940  0.39060  0.27540  1.0000 0.151983398
H   H3        1.0  0.60060  0.10940  0.77540  1.0000 0.151983398
H   H4        1.0  0.10060  0.39060  0.72460  1.0000 0.151983398
H   H5        1.0  0.10060  0.89060  0.77540  1.0000 0.151983398
H   H6        1.0  0.60060  0.60940  0.72460  1.0000 0.151983398
H   H7        1.0  0.39940  0.89060  0.22460  1.0000 0.151983398
H   H8        1.0  0.89940  0.60940  0.27540  1.0000 0.151983398
H   H9        1.0  0.80480  0.99160  0.27490  1.0000 0.3718864183
H   H10       1.0  0.30480  0.50840  0.22510  1.0000 0.3718864183
H   H11       1.0  0.69520  0.99160  0.72510  1.0000 0.3718864183
H   H12       1.0  0.19520  0.50840  0.77490  1.0000 0.3718864183
H   H13       1.0  0.19520  0.00840  0.72510  1.0000 0.3718864183
H   H14       1.0  0.69520  0.49160  0.77490  1.0000 0.3718864183
H   H15       1.0  0.30480  0.00840  0.27490  1.0000 0.3718864183
H   H16       1.0  0.80480  0.49160  0.22510  1.0000 0.3718864183
H   H17       1.0  0.73740  0.42630  0.14150  1.0000 0.1554820864
H   H18       1.0  0.23740  0.07370  0.35850  1.0000 0.1554820864
H   H19       1.0  0.76260  0.42630  0.85850  1.0000 0.1554820864
H   H20       1.0  0.26260  0.07370  0.64150  1.0000 0.1554820864
H   H21       1.0  0.26260  0.57370  0.85850  1.0000 0.1554820864
H   H22       1.0  0.76260  0.92630  0.64150  1.0000 0.1554820864
H   H23       1.0  0.23740  0.57370  0.14150  1.0000 0.1554820864
H   H24       1.0  0.73740  0.92630  0.35850  1.0000 0.1554820864
H   H25       1.0  0.75200  0.31410  0.19230  1.0000 0.3718864183
H   H26       1.0  0.25200  0.18590  0.30770  1.0000 0.3718864183
H   H27       1.0  0.74800  0.31410  0.80770  1.0000 0.3718864183
H   H28       1.0  0.24800  0.18590  0.69230  1.0000 0.3718864183
H   H29       1.0  0.24800  0.68590  0.80770  1.0000 0.3718864183
H   H30       1.0  0.74800  0.81410  0.69230  1.0000 0.3718864183
H   H31       1.0  0.25200  0.68590  0.19230  1.0000 0.3718864183
H   H32       1.0  0.75200  0.81410  0.30770  1.0000 0.3718864183
C   C1        1.0  0.91820  0.09270  0.26170  1.0000 -0.2428352618
C   C2        1.0  0.41820  0.40730  0.23830  1.0000 -0.2454234035
C   C3        1.0  0.58180  0.09270  0.73830  1.0000 -0.2428352618
C   C4        1.0  0.08180  0.40730  0.76170  1.0000 -0.2428352618
C   C5        1.0  0.08180  0.90730  0.73830  1.0000 -0.2428352618
C   C6        1.0  0.58180  0.59270  0.76170  1.0000 -0.2428352618
C   C7        1.0  0.41820  0.90730  0.26170  1.0000 -0.2428352618
C   C8        1.0  0.91820  0.59270  0.23830  1.0000 -0.2428352618
C   C9        1.0  0.05490  0.09830  0.26989  1.0000 0.6562557249
C   C10       1.0  0.55490  0.40170  0.23011  1.0000 0.6562557249
C   C11       1.0  0.44510  0.09830  0.73011  1.0000 0.6562557249
C   C12       1.0  0.94510  0.40170  0.76989  1.0000 0.6562557249
C   C13       1.0  0.94510  0.90170  0.73011  1.0000 0.6562557249
C   C14       1.0  0.44510  0.59830  0.76989  1.0000 0.6562557249
C   C15       1.0  0.55490  0.90170  0.26989  1.0000 0.6562557249
C   C16       1.0  0.05490  0.59830  0.23011  1.0000 0.6562557249
C   C17       1.0  0.78420  0.36520  0.12945  1.0000 -0.2348055215
C   C18       1.0  0.28420  0.13480  0.37055  1.0000 -0.2348055215
C   C19       1.0  0.71580  0.36520  0.87055  1.0000 -0.2348055215
C   C20       1.0  0.21580  0.13480  0.62945  1.0000 -0.2428352618
C   C21       1.0  0.21580  0.63480  0.87055  1.0000 -0.2348055215
C   C22       1.0  0.71580  0.86520  0.62945  1.0000 -0.2348055215
C   C23       1.0  0.28420  0.63480  0.12945  1.0000 -0.2348055215
C   C24       1.0  0.78420  0.86520  0.37055  1.0000 -0.2348055215
C   C25       1.0  0.90110  0.40590  0.10480  1.0000 0.6956272302
C   C26       1.0  0.40110  0.09410  0.39520  1.0000 0.6956272302
C   C27       1.0  0.59890  0.40590  0.89520  1.0000 0.6956272302
C   C28       1.0  0.09890  0.09410  0.60480  1.0000 0.6956272302
C   C29       1.0  0.09890  0.59410  0.89520  1.0000 0.6956272302
C   C30       1.0  0.59890  0.90590  0.60480  1.0000 0.6956272302
C   C31       1.0  0.40110  0.59410  0.10480  1.0000 0.6956272302
C   C32       1.0  0.90110  0.90590  0.39520  1.0000 0.6956272302
O   O1        1.0  0.87850  0.29110  0.28085  1.0000 -0.8700509937
O   O2        1.0  0.37850  0.20890  0.21915  1.0000 -0.8700509937
O   O3        1.0  0.62150  0.29110  0.71915  1.0000 -0.8700509937
O   O4        1.0  0.12150  0.20890  0.78085  1.0000 -0.8700509937
O   O5        1.0  0.12150  0.70890  0.71915  1.0000 -0.8700509937
O   O6        1.0  0.62150  0.79110  0.78085  1.0000 -0.8700509937
O   O7        1.0  0.37850  0.70890  0.28085  1.0000 -0.8700509937
O   O8        1.0  0.87850  0.79110  0.21915  1.0000 -0.8700509937
O   O9        1.0  0.90130  0.17240  0.35946  1.0000 -0.6077147753
O   O10       1.0  0.40130  0.32760  0.14054  1.0000 -0.6077147753
O   O11       1.0  0.59870  0.17240  0.64054  1.0000 -0.6077147753
O   O12       1.0  0.09870  0.32760  0.85946  1.0000 -0.6077147753
O   O13       1.0  0.09870  0.82760  0.64054  1.0000 -0.6077147753
O   O14       1.0  0.59870  0.67240  0.85946  1.0000 -0.6077147753
O   O15       1.0  0.40130  0.82760  0.35946  1.0000 -0.6077147753
O   O16       1.0  0.90130  0.67240  0.14054  1.0000 -0.6077147753
O   O17       1.0  0.71670  0.16220  0.30722  1.0000 -0.8418848635
O   O18       1.0  0.21670  0.33780  0.19278  1.0000 -0.8418848635
O   O19       1.0  0.78330  0.16220  0.69278  1.0000 -0.8418848635
O   O20       1.0  0.28330  0.33780  0.80722  1.0000 -0.8418848635
O   O21       1.0  0.28330  0.83780  0.69278  1.0000 -0.8418848635
O   O22       1.0  0.78330  0.66220  0.80722  1.0000 -0.8418848635
O   O23       1.0  0.21670  0.83780  0.30722  1.0000 -0.8418848635
O   O24       1.0  0.71670  0.66220  0.19278  1.0000 -0.8418848635
O   O25       1.0  0.87790  0.99140  0.27274  1.0000 -0.4663441749
O   O26       1.0  0.37790  0.50860  0.22726  1.0000 -0.4663441749
O   O27       1.0  0.62210  0.99140  0.72726  1.0000 -0.4663441749
O   O28       1.0  0.12210  0.50860  0.77274  1.0000 -0.4663441749
O   O29       1.0  0.12210  0.00860  0.72726  1.0000 -0.4663441749
O   O30       1.0  0.62210  0.49140  0.77274  1.0000 -0.4663441749
O   O31       1.0  0.37790  0.00860  0.27274  1.0000 -0.4663441749
O   O32       1.0  0.87790  0.49140  0.22726  1.0000 -0.4663441749
O   O33       1.0  0.10270  0.18530  0.26448  1.0000 -0.6077147753
O   O34       1.0  0.60270  0.31470  0.23552  1.0000 -0.6077147753
O   O35       1.0  0.39730  0.18530  0.73552  1.0000 -0.5997810484
O   O36       1.0  0.89730  0.31470  0.76448  1.0000 -0.5997810484
O   O37       1.0  0.89730  0.81470  0.73552  1.0000 -0.5997810484
O   O38       1.0  0.39730  0.68530  0.76448  1.0000 -0.5997810484
O   O39       1.0  0.60270  0.81470  0.26448  1.0000 -0.6077147753
O   O40       1.0  0.10270  0.68530  0.23552  1.0000 -0.6077147753
O   O41       1.0  0.11070  0.01730  0.28109  1.0000 -0.5997810484
O   O42       1.0  0.61070  0.48270  0.21891  1.0000 -0.5892415018
O   O43       1.0  0.38930  0.01730  0.71891  1.0000 -0.5892415018
O   O44       1.0  0.88930  0.48270  0.78109  1.0000 -0.5997810484
O   O45       1.0  0.88930  0.98270  0.71891  1.0000 -0.5892415018
O   O46       1.0  0.38930  0.51730  0.78109  1.0000 -0.5997810484
O   O47       1.0  0.61070  0.98270  0.28109  1.0000 -0.5997810484
O   O48       1.0  0.11070  0.51730  0.21891  1.0000 -0.5892415018
O   O49       1.0  0.64190  0.38220  0.04621  1.0000 -0.8243351891
O   O50       1.0  0.14190  0.11780  0.45379  1.0000 -0.8243351891
O   O51       1.0  0.85810  0.38220  0.95379  1.0000 -0.8243351891
O   O52       1.0  0.35810  0.11780  0.54621  1.0000 -0.8243351891
O   O53       1.0  0.35810  0.61780  0.95379  1.0000 -0.8243351891
O   O54       1.0  0.85810  0.88220  0.54621  1.0000 -0.8243351891
O   O55       1.0  0.14190  0.61780  0.04621  1.0000 -0.8243351891
O   O56       1.0  0.64190  0.88220  0.45379  1.0000 -0.8255211086
O   O57       1.0  0.76560  0.22050  0.05048  1.0000 -0.5849735112
O   O58       1.0  0.26560  0.27950  0.44952  1.0000 -0.5892415018
O   O59       1.0  0.73440  0.22050  0.94952  1.0000 -0.5892415018
O   O60       1.0  0.23440  0.27950  0.55048  1.0000 -0.5892415018
O   O61       1.0  0.23440  0.77950  0.94952  1.0000 -0.5892415018
O   O62       1.0  0.73440  0.72050  0.55048  1.0000 -0.5892415018
O   O63       1.0  0.26560  0.77950  0.05048  1.0000 -0.5892415018
O   O64       1.0  0.76560  0.72050  0.44952  1.0000 -0.5892415018
O   O65       1.0  0.59200  0.24220  0.11241  1.0000 -0.6077147753
O   O66       1.0  0.09200  0.25780  0.38759  1.0000 -0.6077147753
O   O67       1.0  0.90800  0.24220  0.88759  1.0000 -0.6077147753
O   O68       1.0  0.40800  0.25780  0.61241  1.0000 -0.6077147753
O   O69       1.0  0.40800  0.75780  0.88759  1.0000 -0.6077147753
O   O70       1.0  0.90800  0.74220  0.61241  1.0000 -0.6077147753
O   O71       1.0  0.09200  0.75780  0.11241  1.0000 -0.6077147753
O   O72       1.0  0.59200  0.74220  0.38759  1.0000 -0.6077147753
O   O73       1.0  0.81450  0.30730  0.17512  1.0000 -0.45938968
O   O74       1.0  0.31450  0.19270  0.32488  1.0000 -0.45938968
O   O75       1.0  0.68550  0.30730  0.82488  1.0000 -0.45938968
O   O76       1.0  0.18550  0.19270  0.67512  1.0000 -0.45938968
O   O77       1.0  0.18550  0.69270  0.82488  1.0000 -0.45938968
O   O78       1.0  0.68550  0.80730  0.67512  1.0000 -0.45938968
O   O79       1.0  0.31450  0.69270  0.17512  1.0000 -0.45938968
O   O80       1.0  0.81450  0.80730  0.32488  1.0000 -0.45938968
O   O81       1.0  0.89560  0.44230  0.06039  1.0000 -0.5997810484
O   O82       1.0  0.39560  0.05770  0.43961  1.0000 -0.5997810484
O   O83       1.0  0.60440  0.44230  0.93961  1.0000 -0.5997810484
O   O84       1.0  0.10440  0.05770  0.56039  1.0000 -0.5997810484
O   O85       1.0  0.10440  0.55770  0.93961  1.0000 -0.5997810484
O   O86       1.0  0.60440  0.94230  0.56039  1.0000 -0.5997810484
O   O87       1.0  0.39560  0.55770  0.06039  1.0000 -0.5997810484
O   O88       1.0  0.89560  0.94230  0.43961  1.0000 -0.5997810484
O   O89       1.0  0.99650  0.39890  0.13156  1.0000 -0.6306906985
O   O90       1.0  0.49650  0.10110  0.36844  1.0000 -0.6306906985
O   O91       1.0  0.50350  0.39890  0.86844  1.0000 -0.6306906985
O   O92       1.0  0.00350  0.10110  0.63156  1.0000 -0.6306906985
O   O93       1.0  0.00350  0.60110  0.86844  1.0000 -0.6306906985
O   O94       1.0  0.50350  0.89890  0.63156  1.0000 -0.6306906985
O   O95       1.0  0.49650  0.60110  0.13156  1.0000 -0.6306906985
O   O96       1.0  0.99650  0.89890  0.36844  1.0000 -0.6306906985
