# DDEC6 charges by PACMAN v1.1 (https://github.com/mtap-research/PACMAN-charge/)
data_2012[Cu][pcu]3[ASR]5
_chemical_formula_sum              "Cu4 H64 C78 N8 O20"
_cell_length_a       12.8829
_cell_length_b       14.1565
_cell_length_c       18.6819
_cell_angle_alpha    104.822
_cell_angle_beta     98.409
_cell_angle_gamma    113.367

_symmetry_space_group_name_H-M    "P 1"
_symmetry_Int_Tables_number       1

loop_
  _symmetry_equiv_pos_as_xyz
  'x, y, z'

loop_
  _atom_site_type_symbol
  _atom_site_label
  _atom_site_symmetry_multiplicity
  _atom_site_fract_x
  _atom_site_fract_y
  _atom_site_fract_z
  _atom_site_occupancy
  _atom_site_charge
Cu  Cu1       1.0  0.05740  0.11010  0.03205  1.0000 0.7898034912
Cu  Cu2       1.0  0.94260  0.88990  0.96795  1.0000 0.7898034912
Cu  Cu3       1.0  0.57013  0.47693  0.54555  1.0000 0.7898034912
Cu  Cu4       1.0  0.42987  0.52307  0.45445  1.0000 0.7898034912
H   H1        1.0  0.23510  0.31120  0.99480  1.0000 0.2818727356
H   H2        1.0  0.76490  0.68880  0.00520  1.0000 0.2818727356
H   H3        1.0  0.23540  0.61060  0.42710  1.0000 0.2818727356
H   H4        1.0  0.76460  0.38940  0.57290  1.0000 0.2818727356
H   H5        1.0  0.29120  0.63650  0.17430  1.0000 0.1069990744
H   H6        1.0  0.70880  0.36350  0.82570  1.0000 0.1069990744
H   H7        1.0  0.15460  0.58410  0.17060  1.0000 0.1069990744
H   H8        1.0  0.84540  0.41590  0.82940  1.0000 0.1069990744
H   H9        1.0  0.02900  0.24980  0.16640  1.0000 0.1488615271
H   H10       1.0  0.97100  0.75020  0.83360  1.0000 0.1488615271
H   H11       1.0  0.01680  0.36110  0.18570  1.0000 0.139100061
H   H12       1.0  0.98320  0.63890  0.81430  1.0000 0.139100061
H   H13       1.0  0.12590  0.35710  0.23580  1.0000 0.139100061
H   H14       1.0  0.87410  0.64290  0.76420  1.0000 0.139100061
H   H15       1.0  0.40180  0.51540  0.02870  1.0000 0.1318805646
H   H16       1.0  0.59820  0.48460  0.97130  1.0000 0.1318805646
H   H17       1.0  0.36180  0.60500  0.06770  1.0000 0.139100061
H   H18       1.0  0.63820  0.39500  0.93230  1.0000 0.139100061
H   H19       1.0  0.28940  0.51910  0.98250  1.0000 0.1488615271
H   H20       1.0  0.71060  0.48090  0.01750  1.0000 0.1488615271
H   H21       1.0  0.49610  0.54710  0.30890  1.0000 0.1488615271
H   H22       1.0  0.50390  0.45290  0.69110  1.0000 0.1488615271
H   H23       1.0  0.45540  0.57170  0.23350  1.0000 0.1318805646
H   H24       1.0  0.54460  0.42830  0.76650  1.0000 0.1318805646
H   H25       1.0  0.38940  0.45160  0.23770  1.0000 0.139100061
H   H26       1.0  0.61060  0.54840  0.76230  1.0000 0.139100061
H   H27       1.0  0.06240  0.61840  0.35150  1.0000 0.139100061
H   H28       1.0  0.93760  0.38160  0.64850  1.0000 0.139100061
H   H29       1.0  0.06100  0.61910  0.26590  1.0000 0.1488615271
H   H30       1.0  0.93900  0.38090  0.73410  1.0000 0.1488615271
H   H31       1.0  0.14670  0.72730  0.33840  1.0000 0.1488615271
H   H32       1.0  0.85330  0.27270  0.66160  1.0000 0.1488615271
H   H33       1.0  0.56970  0.20170  0.37710  1.0000 0.1222106053
H   H34       1.0  0.43030  0.79830  0.62290  1.0000 0.1222106053
H   H35       1.0  0.30210  0.23390  0.59590  1.0000 0.1318805646
H   H36       1.0  0.69790  0.76610  0.40410  1.0000 0.1318805646
H   H37       1.0  0.55040  0.06080  0.26980  1.0000 0.139100061
H   H38       1.0  0.44960  0.93920  0.73020  1.0000 0.139100061
H   H39       1.0  0.14300  0.10240  0.61650  1.0000 0.139100061
H   H40       1.0  0.85700  0.89760  0.38350  1.0000 0.139100061
H   H41       1.0  0.32200  0.12130  0.13740  1.0000 0.139100061
H   H42       1.0  0.67800  0.87870  0.86260  1.0000 0.139100061
H   H43       1.0  0.92480  0.19210  0.50610  1.0000 0.1318805646
H   H44       1.0  0.07520  0.80790  0.49390  1.0000 0.1318805646
H   H45       1.0  0.33980  0.25960  0.24530  1.0000 0.1318805646
H   H46       1.0  0.66020  0.74040  0.75470  1.0000 0.1318805646
H   H47       1.0  0.08420  0.32130  0.48250  1.0000 0.1222106053
H   H48       1.0  0.91580  0.67870  0.51750  1.0000 0.1222106053
H   H49       1.0  0.78390  0.16430  0.11170  1.0000 0.1318805646
H   H50       1.0  0.21610  0.83570  0.88830  1.0000 0.1318805646
H   H51       1.0  0.85450  0.85710  0.72320  1.0000 0.1318805646
H   H52       1.0  0.14550  0.14290  0.27680  1.0000 0.1318805646
H   H53       1.0  0.62610  0.16520  0.15710  1.0000 0.1318805646
H   H54       1.0  0.37390  0.83480  0.84290  1.0000 0.1318805646
H   H55       1.0  0.84810  0.87980  0.60310  1.0000 0.1318805646
H   H56       1.0  0.15190  0.12020  0.39690  1.0000 0.1318805646
H   H57       1.0  0.43810  0.83770  0.04220  1.0000 0.139100061
H   H58       1.0  0.56190  0.16230  0.95780  1.0000 0.139100061
H   H59       1.0  0.01330  0.20980  0.70930  1.0000 0.1318805646
H   H60       1.0  0.98670  0.79020  0.29070  1.0000 0.1318805646
H   H61       1.0  0.59610  0.83720  0.99580  1.0000 0.1222106053
H   H62       1.0  0.40390  0.16280  0.00420  1.0000 0.1222106053
H   H63       1.0  0.02110  0.18640  0.82820  1.0000 0.1222106053
H   H64       1.0  0.97890  0.81360  0.17180  1.0000 0.1222106053
C   C1        1.0  0.14220  0.36320  0.12960  1.0000 0.1992754724
C   C2        1.0  0.85780  0.63680  0.87040  1.0000 0.1992754724
C   C3        1.0  0.20850  0.46760  0.12680  1.0000 -0.1028957076
C   C4        1.0  0.79150  0.53240  0.87320  1.0000 -0.1028957076
C   C5        1.0  0.25620  0.45130  0.06630  1.0000 0.1701722306
C   C6        1.0  0.74380  0.54870  0.93370  1.0000 0.1701722306
C   C7        1.0  0.34380  0.56140  0.30150  1.0000 0.207125121
C   C8        1.0  0.65620  0.43860  0.69850  1.0000 0.207125121
C   C9        1.0  0.25850  0.58560  0.26540  1.0000 -0.1028957076
C   C10       1.0  0.74150  0.41440  0.73460  1.0000 -0.1028957076
C   C11       1.0  0.20500  0.61090  0.32020  1.0000 0.1701722306
C   C12       1.0  0.79500  0.38910  0.67980  1.0000 0.1701722306
C   C13       1.0  0.22730  0.57590  0.18240  1.0000 -0.2197082583
C   C14       1.0  0.77270  0.42410  0.81760  1.0000 -0.2197082583
C   C15       1.0  0.07250  0.32990  0.18410  1.0000 -0.4877088803
C   C16       1.0  0.92750  0.67010  0.81590  1.0000 -0.4877088803
C   C17       1.0  0.33410  0.52950  0.03340  1.0000 -0.4683431624
C   C18       1.0  0.66590  0.47050  0.96660  1.0000 -0.4683431624
C   C19       1.0  0.42840  0.53030  0.26750  1.0000 -0.480789854
C   C20       1.0  0.57160  0.46970  0.73250  1.0000 -0.480789854
C   C21       1.0  0.11070  0.64700  0.31890  1.0000 -0.4683431624
C   C22       1.0  0.88930  0.35300  0.68110  1.0000 -0.480789854
C   C23       1.0  0.45780  0.24500  0.32100  1.0000 -0.0375614844
C   C24       1.0  0.54220  0.75500  0.67900  1.0000 -0.0375614844
C   C25       1.0  0.21000  0.29250  0.53820  1.0000 -0.0375614844
C   C26       1.0  0.79000  0.70750  0.46180  1.0000 -0.0375614844
C   C27       1.0  0.51950  0.18530  0.32830  1.0000 -0.0785821184
C   C28       1.0  0.48050  0.81470  0.67170  1.0000 -0.0785821184
C   C29       1.0  0.22520  0.22570  0.57740  1.0000 -0.0785821184
C   C30       1.0  0.77480  0.77430  0.42260  1.0000 -0.0785821184
C   C31       1.0  0.50830  0.10180  0.26470  1.0000 -0.2197082583
C   C32       1.0  0.49170  0.89820  0.73530  1.0000 -0.2197082583
C   C33       1.0  0.13140  0.14790  0.58990  1.0000 -0.2016687754
C   C34       1.0  0.86860  0.85210  0.41010  1.0000 -0.2016687754
C   C35       1.0  0.43560  0.07890  0.19430  1.0000 0.2463980403
C   C36       1.0  0.56440  0.92110  0.80570  1.0000 0.2463980403
C   C37       1.0  0.02040  0.13690  0.56350  1.0000 0.232132816
C   C38       1.0  0.97960  0.86310  0.43650  1.0000 0.232132816
C   C39       1.0  0.37220  0.13760  0.18620  1.0000 -0.1883113075
C   C40       1.0  0.62780  0.86240  0.81380  1.0000 -0.1883113075
C   C41       1.0  0.00200  0.20070  0.52410  1.0000 -0.2092003488
C   C42       1.0  0.99800  0.79930  0.47590  1.0000 -0.2092003488
C   C43       1.0  0.38340  0.21990  0.25010  1.0000 -0.0785821184
C   C44       1.0  0.61660  0.78010  0.74990  1.0000 -0.0785821184
C   C45       1.0  0.09690  0.27790  0.51070  1.0000 -0.0870349396
C   C46       1.0  0.90310  0.72210  0.48930  1.0000 -0.0870349396
C   C47       1.0  0.70810  0.00060  0.05050  1.0000 -0.0375614844
C   C48       1.0  0.29190  0.99940  0.94950  1.0000 -0.0375614844
C   C49       1.0  0.94030  0.02000  0.78800  1.0000 -0.0335086722
C   C50       1.0  0.05970  0.98000  0.21200  1.0000 -0.0335086722
C   C51       1.0  0.71390  0.09760  0.09790  1.0000 -0.0746741135
C   C52       1.0  0.28610  0.90240  0.90210  1.0000 -0.0785821184
C   C53       1.0  0.88770  0.92870  0.72040  1.0000 -0.0785821184
C   C54       1.0  0.11230  0.07130  0.27960  1.0000 -0.0785821184
C   C55       1.0  0.62060  0.09850  0.12500  1.0000 -0.2197082583
C   C56       1.0  0.37940  0.90150  0.87500  1.0000 -0.2197082583
C   C57       1.0  0.88350  0.94200  0.64920  1.0000 -0.2016687754
C   C58       1.0  0.11650  0.05800  0.35080  1.0000 -0.2016687754
C   C59       1.0  0.51860  0.00150  0.10530  1.0000 0.259150849
C   C60       1.0  0.48140  0.99850  0.89470  1.0000 0.259150849
C   C61       1.0  0.93160  0.04660  0.64620  1.0000 0.2463980403
C   C62       1.0  0.06840  0.95340  0.35380  1.0000 0.2463980403
C   C63       1.0  0.50890  0.90380  0.05650  1.0000 -0.2092003488
C   C64       1.0  0.49110  0.09620  0.94350  1.0000 -0.2092003488
C   C65       1.0  0.98210  0.13830  0.71230  1.0000 -0.2197082583
C   C66       1.0  0.01790  0.86170  0.28770  1.0000 -0.2197082583
C   C67       1.0  0.60280  0.90360  0.02930  1.0000 -0.0870349396
C   C68       1.0  0.39720  0.09640  0.97070  1.0000 -0.0870349396
C   C69       1.0  0.98610  0.12390  0.78240  1.0000 -0.0785821184
C   C70       1.0  0.01390  0.87610  0.21760  1.0000 -0.0785821184
C   C71       1.0  0.47520  0.33830  0.38910  1.0000 0.5661811691
C   C72       1.0  0.52480  0.66170  0.61090  1.0000 0.5661811691
C   C73       1.0  0.31320  0.37480  0.52290  1.0000 0.56056212
C   C74       1.0  0.68680  0.62520  0.47710  1.0000 0.56056212
C   C75       1.0  0.95260  0.00800  0.86560  1.0000 0.5661811691
C   C76       1.0  0.04740  0.99200  0.13440  1.0000 0.5661811691
C   C77       1.0  0.81250  0.99940  0.02600  1.0000 0.56056212
C   C78       1.0  0.18750  0.00060  0.97400  1.0000 0.56056212
N   N1        1.0  0.14820  0.28690  0.07330  1.0000 -0.251920155
N   N2        1.0  0.85180  0.71310  0.92670  1.0000 -0.251920155
N   N3        1.0  0.21760  0.34260  0.03520  1.0000 -0.1461458493
N   N4        1.0  0.78240  0.65740  0.96480  1.0000 -0.1443362225
N   N5        1.0  0.34160  0.56920  0.37370  1.0000 -0.251920155
N   N6        1.0  0.65840  0.43080  0.62630  1.0000 -0.251920155
N   N7        1.0  0.25570  0.59950  0.38390  1.0000 -0.1320225212
N   N8        1.0  0.74430  0.40050  0.61610  1.0000 -0.1320225212
O   O1        1.0  0.54290  0.35780  0.45245  1.0000 -0.5098096369
O   O2        1.0  0.45710  0.64220  0.54755  1.0000 -0.5098096369
O   O3        1.0  0.41290  0.38540  0.55404  1.0000 -0.5283330618
O   O4        1.0  0.58710  0.61460  0.44596  1.0000 -0.5283330618
O   O5        1.0  0.29360  0.42490  0.47987  1.0000 -0.5098096369
O   O6        1.0  0.70640  0.57510  0.52013  1.0000 -0.5098096369
O   O7        1.0  0.41960  0.39240  0.37783  1.0000 -0.5211911637
O   O8        1.0  0.58040  0.60760  0.62217  1.0000 -0.5211911637
O   O9        1.0  0.90160  0.09050  0.04404  1.0000 -0.5098096369
O   O10       1.0  0.09840  0.90950  0.95596  1.0000 -0.5098096369
O   O11       1.0  0.00730  0.09640  0.92341  1.0000 -0.5283330618
O   O12       1.0  0.99270  0.90360  0.07659  1.0000 -0.5283330618
O   O13       1.0  0.80440  0.90670  0.98934  1.0000 -0.5283330618
O   O14       1.0  0.19560  0.09330  0.01066  1.0000 -0.5283330618
O   O15       1.0  0.91040  0.91210  0.86838  1.0000 -0.5040023763
O   O16       1.0  0.08960  0.08790  0.13162  1.0000 -0.5040023763
O   O17       1.0  0.42080  0.99490  0.12923  1.0000 -0.2092003488
O   O18       1.0  0.57920  0.00510  0.87077  1.0000 -0.2092003488
O   O19       1.0  0.92170  0.05710  0.57323  1.0000 -0.2197082583
O   O20       1.0  0.07830  0.94290  0.42677  1.0000 -0.2197082583
