# DDEC6 charges by PACMAN v1.1 (https://github.com/mtap-research/PACMAN-charge/)
data_2012[CeSi][flu]3[ASR]1
_chemical_formula_sum              "Ce4 Si4 H68 C112 O32"
_cell_length_a       14.5345
_cell_length_b       14.5345
_cell_length_c       21.9356
_cell_angle_alpha    82.2636
_cell_angle_beta     97.7364
_cell_angle_gamma    113.352

_symmetry_space_group_name_H-M    "P 1"
_symmetry_Int_Tables_number       1

loop_
  _symmetry_equiv_pos_as_xyz
  'x, y, z'

loop_
  _atom_site_type_symbol
  _atom_site_label
  _atom_site_symmetry_multiplicity
  _atom_site_fract_x
  _atom_site_fract_y
  _atom_site_fract_z
  _atom_site_occupancy
  _atom_site_charge
Ce  Ce1       1.0  0.95185  0.46793  0.40427  1.0000 1.9712338387
Ce  Ce2       1.0  0.46793  0.95185  0.09573  1.0000 1.9712338387
Ce  Ce3       1.0  0.04815  0.53207  0.59573  1.0000 1.9712338387
Ce  Ce4       1.0  0.53207  0.04815  0.90427  1.0000 1.9712338387
Si  Si1       1.0  0.34932  0.11070  0.49391  1.0000 0.6306378334
Si  Si2       1.0  0.11070  0.34932  0.00609  1.0000 0.6306378334
Si  Si3       1.0  0.65068  0.88930  0.50609  1.0000 0.6306378334
Si  Si4       1.0  0.88930  0.65068  0.99391  1.0000 0.6306378334
H   H1        1.0  0.70620  0.25700  0.46150  1.0000 0.1192397881
H   H2        1.0  0.25700  0.70620  0.03850  1.0000 0.1192397881
H   H3        1.0  0.29380  0.74300  0.53850  1.0000 0.1192397881
H   H4        1.0  0.74300  0.29380  0.96150  1.0000 0.1192397881
H   H5        1.0  0.56890  0.18070  0.51830  1.0000 0.1106581838
H   H6        1.0  0.18070  0.56890  0.98170  1.0000 0.1106581838
H   H7        1.0  0.43110  0.81930  0.48170  1.0000 0.1106581838
H   H8        1.0  0.81930  0.43110  0.01830  1.0000 0.1106581838
H   H9        1.0  0.38690  0.17430  0.36500  1.0000 0.1192397881
H   H10       1.0  0.17430  0.38690  0.13500  1.0000 0.1192397881
H   H11       1.0  0.61310  0.82570  0.63500  1.0000 0.1106581838
H   H12       1.0  0.82570  0.61310  0.86500  1.0000 0.1106581838
H   H13       1.0  0.52240  0.24600  0.30860  1.0000 0.1192397881
H   H14       1.0  0.24600  0.52240  0.19140  1.0000 0.1192397881
H   H15       1.0  0.47760  0.75400  0.69140  1.0000 0.1192397881
H   H16       1.0  0.75400  0.47760  0.80860  1.0000 0.1192397881
H   H17       1.0  0.37670  0.31970  0.49510  1.0000 0.1106581838
H   H18       1.0  0.31970  0.37670  0.00490  1.0000 0.1106581838
H   H19       1.0  0.62330  0.68030  0.50490  1.0000 0.1106581838
H   H20       1.0  0.68030  0.62330  0.99510  1.0000 0.1106581838
H   H21       1.0  0.28220  0.41560  0.46790  1.0000 0.1275830717
H   H22       1.0  0.41560  0.28220  0.03210  1.0000 0.1275830717
H   H23       1.0  0.71780  0.58440  0.53210  1.0000 0.1275830717
H   H24       1.0  0.58440  0.71780  0.96790  1.0000 0.1275830717
H   H25       1.0  0.04750  0.17330  0.41230  1.0000 0.1192397881
H   H26       1.0  0.17330  0.04750  0.08770  1.0000 0.1192397881
H   H27       1.0  0.95250  0.82670  0.58770  1.0000 0.1192397881
H   H28       1.0  0.82670  0.95250  0.91230  1.0000 0.1192397881
H   H29       1.0  0.14220  0.07620  0.44220  1.0000 0.1106581838
H   H30       1.0  0.07620  0.14220  0.05780  1.0000 0.1106581838
H   H31       1.0  0.85780  0.92380  0.55780  1.0000 0.1106581838
H   H32       1.0  0.92380  0.85780  0.94220  1.0000 0.1106581838
H   H33       1.0  0.49180  0.98460  0.68250  1.0000 0.1106581838
H   H34       1.0  0.98460  0.49180  0.81750  1.0000 0.1106581838
H   H35       1.0  0.50820  0.01540  0.31750  1.0000 0.1106581838
H   H36       1.0  0.01540  0.50820  0.18250  1.0000 0.1106581838
H   H37       1.0  0.44260  0.99680  0.57870  1.0000 0.1106581838
H   H38       1.0  0.99680  0.44260  0.92130  1.0000 0.1106581838
H   H39       1.0  0.55740  0.00320  0.42130  1.0000 0.1036582677
H   H40       1.0  0.00320  0.55740  0.07870  1.0000 0.1106581838
H   H41       1.0  0.34300  0.20840  0.60380  1.0000 0.1036582677
H   H42       1.0  0.20840  0.34300  0.89620  1.0000 0.1036582677
H   H43       1.0  0.65700  0.79160  0.39620  1.0000 0.1036582677
H   H44       1.0  0.79160  0.65700  0.10380  1.0000 0.1036582677
H   H45       1.0  0.38810  0.19190  0.70840  1.0000 0.1192397881
H   H46       1.0  0.19190  0.38810  0.79160  1.0000 0.1192397881
H   H47       1.0  0.61190  0.80810  0.29160  1.0000 0.1192397881
H   H48       1.0  0.80810  0.61190  0.20840  1.0000 0.1192397881
H   H49       1.0  0.34000  0.97260  0.40160  1.0000 0.1036582677
H   H50       1.0  0.97260  0.34000  0.09840  1.0000 0.1036582677
H   H51       1.0  0.66000  0.02740  0.59840  1.0000 0.1036582677
H   H52       1.0  0.02740  0.66000  0.90160  1.0000 0.1036582677
H   H53       1.0  0.24000  0.80940  0.38190  1.0000 0.1275830717
H   H54       1.0  0.80940  0.24000  0.11810  1.0000 0.1275830717
H   H55       1.0  0.76000  0.19060  0.61810  1.0000 0.1275830717
H   H56       1.0  0.19060  0.76000  0.88190  1.0000 0.1275830717
H   H57       1.0  0.08880  0.78120  0.52810  1.0000 0.1275830717
H   H58       1.0  0.78120  0.08880  0.97190  1.0000 0.1275830717
H   H59       1.0  0.91120  0.21880  0.47190  1.0000 0.1275830717
H   H60       1.0  0.21880  0.91120  0.02810  1.0000 0.1275830717
H   H61       1.0  0.18450  0.94530  0.54470  1.0000 0.1106581838
H   H62       1.0  0.94530  0.18450  0.95530  1.0000 0.1106581838
H   H63       1.0  0.81550  0.05470  0.45530  1.0000 0.1106581838
H   H64       1.0  0.05470  0.81550  0.04470  1.0000 0.1192397881
H   H65       1.0  0.64480  0.29540  0.27450  1.0000 0.3348012208
H   H66       1.0  0.29540  0.64480  0.22550  1.0000 0.3348012208
H   H67       1.0  0.35520  0.70460  0.72550  1.0000 0.3348012208
H   H68       1.0  0.70460  0.35520  0.77450  1.0000 0.3348012208
C   C1        1.0  0.71763  0.30677  0.34136  1.0000 0.5733100711
C   C2        1.0  0.30677  0.71763  0.15864  1.0000 0.5733100711
C   C3        1.0  0.28237  0.69323  0.65864  1.0000 0.5733100711
C   C4        1.0  0.69323  0.28237  0.84136  1.0000 0.5733100711
C   C5        1.0  0.62859  0.26121  0.37897  1.0000 -0.0524648861
C   C6        1.0  0.26121  0.62859  0.12103  1.0000 -0.0524648861
C   C7        1.0  0.37141  0.73879  0.62103  1.0000 -0.0524648861
C   C8        1.0  0.73879  0.37141  0.87897  1.0000 -0.0524648861
C   C9        1.0  0.64158  0.24042  0.44177  1.0000 -0.0901428933
C   C10       1.0  0.24042  0.64158  0.05823  1.0000 -0.0901428933
C   C11       1.0  0.35842  0.75958  0.55823  1.0000 -0.0901428933
C   C12       1.0  0.75958  0.35842  0.94177  1.0000 -0.0901428933
C   C13       1.0  0.55875  0.19485  0.47594  1.0000 -0.0815162868
C   C14       1.0  0.19485  0.55875  0.02406  1.0000 -0.0815162868
C   C15       1.0  0.44125  0.80515  0.52406  1.0000 -0.0815162868
C   C16       1.0  0.80515  0.44125  0.97594  1.0000 -0.0815162868
C   C17       1.0  0.46191  0.16989  0.44882  1.0000 -0.1908344464
C   C18       1.0  0.16989  0.46191  0.05118  1.0000 -0.1908344464
C   C19       1.0  0.53809  0.83011  0.55118  1.0000 -0.1908344464
C   C20       1.0  0.83011  0.53809  0.94882  1.0000 -0.1908344464
C   C21       1.0  0.45120  0.19060  0.38512  1.0000 -0.0815162868
C   C22       1.0  0.19060  0.45120  0.11488  1.0000 -0.0815162868
C   C23       1.0  0.54880  0.80940  0.61488  1.0000 -0.0815162868
C   C24       1.0  0.80940  0.54880  0.88512  1.0000 -0.0815162868
C   C25       1.0  0.53250  0.23430  0.35123  1.0000 -0.1339279027
C   C26       1.0  0.23430  0.53250  0.14877  1.0000 -0.1339279027
C   C27       1.0  0.46750  0.76570  0.64877  1.0000 -0.1339279027
C   C28       1.0  0.76570  0.46750  0.85123  1.0000 -0.1339279027
C   C29       1.0  0.26931  0.18609  0.47246  1.0000 -0.2194818878
C   C30       1.0  0.18609  0.26931  0.02754  1.0000 -0.2194818878
C   C31       1.0  0.73069  0.81391  0.52754  1.0000 -0.2194818878
C   C32       1.0  0.81391  0.73069  0.97246  1.0000 -0.2194818878
C   C33       1.0  0.31015  0.28945  0.47908  1.0000 -0.0987817099
C   C34       1.0  0.28945  0.31015  0.02092  1.0000 -0.0987817099
C   C35       1.0  0.68985  0.71055  0.52092  1.0000 -0.0987817099
C   C36       1.0  0.71055  0.68985  0.97908  1.0000 -0.0987817099
C   C37       1.0  0.25392  0.34728  0.46238  1.0000 -0.0987817099
C   C38       1.0  0.34728  0.25392  0.03762  1.0000 -0.0987817099
C   C39       1.0  0.74608  0.65272  0.53762  1.0000 -0.0987817099
C   C40       1.0  0.65272  0.74608  0.96238  1.0000 -0.0987817099
C   C41       1.0  0.15502  0.30418  0.43726  1.0000 -0.0084026024
C   C42       1.0  0.30418  0.15502  0.06274  1.0000 -0.0084026024
C   C43       1.0  0.84498  0.69582  0.56274  1.0000 -0.0084026024
C   C44       1.0  0.69582  0.84498  0.93726  1.0000 -0.0084026024
C   C45       1.0  0.09244  0.36596  0.41971  1.0000 0.5594985797
C   C46       1.0  0.36596  0.09244  0.08029  1.0000 0.5594985797
C   C47       1.0  0.90756  0.63404  0.58029  1.0000 0.5594985797
C   C48       1.0  0.63404  0.90756  0.91971  1.0000 0.5594985797
C   C49       1.0  0.11357  0.20283  0.42943  1.0000 -0.0987817099
C   C50       1.0  0.20283  0.11357  0.07057  1.0000 -0.0987817099
C   C51       1.0  0.88643  0.79717  0.57057  1.0000 -0.0987817099
C   C52       1.0  0.79717  0.88643  0.92943  1.0000 -0.0987817099
C   C53       1.0  0.17091  0.14469  0.44730  1.0000 -0.0901428933
C   C54       1.0  0.14469  0.17091  0.05270  1.0000 -0.0901428933
C   C55       1.0  0.82909  0.85531  0.55270  1.0000 -0.0901428933
C   C56       1.0  0.85531  0.82909  0.94730  1.0000 -0.0901428933
C   C57       1.0  0.09135  0.67125  0.44087  1.0000 0.5899950801
C   C58       1.0  0.67125  0.09135  0.05913  1.0000 0.5899950801
C   C59       1.0  0.90865  0.32875  0.55913  1.0000 0.5899950801
C   C60       1.0  0.32875  0.90865  0.94087  1.0000 0.5899950801
C   C61       1.0  0.47079  0.07261  0.77444  1.0000 0.5594985797
C   C62       1.0  0.07261  0.47079  0.72556  1.0000 0.5594985797
C   C63       1.0  0.52921  0.92739  0.22556  1.0000 0.5594985797
C   C64       1.0  0.92739  0.52921  0.27444  1.0000 0.5594985797
C   C65       1.0  0.44288  0.08572  0.70673  1.0000 -0.0084026024
C   C66       1.0  0.08572  0.44288  0.79327  1.0000 -0.0084026024
C   C67       1.0  0.55712  0.91428  0.29327  1.0000 -0.0084026024
C   C68       1.0  0.91428  0.55712  0.20673  1.0000 -0.0084026024
C   C69       1.0  0.46060  0.02880  0.66685  1.0000 -0.0987817099
C   C70       1.0  0.02880  0.46060  0.83315  1.0000 -0.0987817099
C   C71       1.0  0.53940  0.97120  0.33315  1.0000 -0.0987817099
C   C72       1.0  0.97120  0.53940  0.16685  1.0000 -0.0987817099
C   C73       1.0  0.43236  0.03724  0.60440  1.0000 -0.0987817099
C   C74       1.0  0.03724  0.43236  0.89560  1.0000 -0.0987817099
C   C75       1.0  0.56764  0.96276  0.39560  1.0000 -0.0987817099
C   C76       1.0  0.96276  0.56764  0.10440  1.0000 -0.0987817099
C   C77       1.0  0.38868  0.10552  0.57900  1.0000 -0.2085889415
C   C78       1.0  0.10552  0.38868  0.92100  1.0000 -0.2085889415
C   C79       1.0  0.61132  0.89448  0.42100  1.0000 -0.2085889415
C   C80       1.0  0.89448  0.61132  0.07900  1.0000 -0.2085889415
C   C81       1.0  0.37243  0.16277  0.61932  1.0000 -0.0901428933
C   C82       1.0  0.16277  0.37243  0.88068  1.0000 -0.0901428933
C   C83       1.0  0.62757  0.83723  0.38068  1.0000 -0.0901428933
C   C84       1.0  0.83723  0.62757  0.11932  1.0000 -0.0901428933
C   C85       1.0  0.39944  0.15276  0.68238  1.0000 -0.0901428933
C   C86       1.0  0.15276  0.39944  0.81762  1.0000 -0.0901428933
C   C87       1.0  0.60056  0.84724  0.31762  1.0000 -0.0901428933
C   C88       1.0  0.84724  0.60056  0.18238  1.0000 -0.0901428933
C   C89       1.0  0.27364  0.97776  0.47571  1.0000 -0.2085889415
C   C90       1.0  0.97776  0.27364  0.02429  1.0000 -0.2085889415
C   C91       1.0  0.72636  0.02224  0.52429  1.0000 -0.2085889415
C   C92       1.0  0.02224  0.72636  0.97571  1.0000 -0.2085889415
C   C93       1.0  0.28898  0.93462  0.42684  1.0000 -0.0987817099
C   C94       1.0  0.93462  0.28898  0.07316  1.0000 -0.0987817099
C   C95       1.0  0.71102  0.06538  0.57316  1.0000 -0.0987817099
C   C96       1.0  0.06538  0.71102  0.92684  1.0000 -0.0987817099
C   C97       1.0  0.22967  0.83633  0.41528  1.0000 -0.0987817099
C   C98       1.0  0.83633  0.22967  0.08472  1.0000 -0.0987817099
C   C99       1.0  0.77033  0.16367  0.58472  1.0000 -0.0987817099
C   C100      1.0  0.16367  0.77033  0.91528  1.0000 -0.0987817099
C   C101      1.0  0.15459  0.77761  0.45336  1.0000 -0.0190798102
C   C102      1.0  0.77761  0.15459  0.04664  1.0000 -0.0190798102
C   C103      1.0  0.84541  0.22239  0.54664  1.0000 -0.0190798102
C   C104      1.0  0.22239  0.84541  0.95336  1.0000 -0.0190798102
C   C105      1.0  0.13874  0.81966  0.50227  1.0000 -0.0901428933
C   C106      1.0  0.81966  0.13874  0.99773  1.0000 -0.0901428933
C   C107      1.0  0.86126  0.18034  0.49773  1.0000 -0.0901428933
C   C108      1.0  0.18034  0.86126  0.00227  1.0000 -0.0987817099
C   C109      1.0  0.19689  0.91791  0.51234  1.0000 -0.0901428933
C   C110      1.0  0.91791  0.19689  0.98766  1.0000 -0.0901428933
C   C111      1.0  0.80311  0.08209  0.48766  1.0000 -0.0901428933
C   C112      1.0  0.08209  0.80311  0.01234  1.0000 -0.0901428933
O   O1        1.0  0.70510  0.31670  0.28542  1.0000 -0.3671565713
O   O2        1.0  0.31670  0.70510  0.21458  1.0000 -0.3671565713
O   O3        1.0  0.29490  0.68330  0.71458  1.0000 -0.3646919192
O   O4        1.0  0.68330  0.29490  0.78542  1.0000 -0.3671565713
O   O5        1.0  0.80434  0.32974  0.37038  1.0000 -0.5998323322
O   O6        1.0  0.32974  0.80434  0.12962  1.0000 -0.5998323322
O   O7        1.0  0.19566  0.67026  0.62962  1.0000 -0.5998323322
O   O8        1.0  0.67026  0.19566  0.87038  1.0000 -0.5998323322
O   O9        1.0  0.00629  0.32623  0.39200  1.0000 -0.5904869796
O   O10       1.0  0.32623  0.00629  0.10800  1.0000 -0.5904869796
O   O11       1.0  0.99371  0.67377  0.60800  1.0000 -0.5904869796
O   O12       1.0  0.67377  0.99371  0.89200  1.0000 -0.5904869796
O   O13       1.0  0.12557  0.45583  0.43420  1.0000 -0.5998323322
O   O14       1.0  0.45583  0.12557  0.06580  1.0000 -0.5998323322
O   O15       1.0  0.87443  0.54417  0.56580  1.0000 -0.5998323322
O   O16       1.0  0.54417  0.87443  0.93420  1.0000 -0.5998323322
O   O17       1.0  0.07926  0.64646  0.38723  1.0000 -0.5496771098
O   O18       1.0  0.64646  0.07926  0.11277  1.0000 -0.5496771098
O   O19       1.0  0.92074  0.35354  0.61277  1.0000 -0.5496771098
O   O20       1.0  0.35354  0.92074  0.88723  1.0000 -0.5496771098
O   O21       1.0  0.44903  0.12009  0.81085  1.0000 -0.6147767366
O   O22       1.0  0.12009  0.44903  0.68915  1.0000 -0.6155421
O   O23       1.0  0.55097  0.87991  0.18915  1.0000 -0.6155421
O   O24       1.0  0.87991  0.55097  0.31085  1.0000 -0.6155421
O   O25       1.0  0.51498  0.01380  0.79458  1.0000 -0.5904869796
O   O26       1.0  0.01380  0.51498  0.70542  1.0000 -0.5904869796
O   O27       1.0  0.48502  0.98620  0.20542  1.0000 -0.5904869796
O   O28       1.0  0.98620  0.48502  0.29458  1.0000 -0.5904869796
O   O29       1.0  0.04857  0.60735  0.48507  1.0000 -0.7057930888
O   O30       1.0  0.60735  0.04857  0.01493  1.0000 -0.7057930888
O   O31       1.0  0.95143  0.39265  0.51493  1.0000 -0.7057930888
O   O32       1.0  0.39265  0.95143  0.98507  1.0000 -0.7057930888
