# DDEC6 charges by PACMAN v1.1 (https://github.com/mtap-research/PACMAN-charge/)
data_2012[Zn][pcu]3[ASR]3
_chemical_formula_sum              "Zn7 H12 C40 N8 O38"
_cell_length_a       12.9465
_cell_length_b       12.9465
_cell_length_c       14.3603
_cell_angle_alpha    87.2255
_cell_angle_beta     92.7745
_cell_angle_gamma    92.9792

_symmetry_space_group_name_H-M    "P 1"
_symmetry_Int_Tables_number       1

loop_
  _symmetry_equiv_pos_as_xyz
  'x, y, z'

loop_
  _atom_site_type_symbol
  _atom_site_label
  _atom_site_symmetry_multiplicity
  _atom_site_fract_x
  _atom_site_fract_y
  _atom_site_fract_z
  _atom_site_occupancy
  _atom_site_charge
Zn  Zn1       1.0  0.50000  0.50000  0.00000  1.0000 0.9613078187
Zn  Zn2       1.0  0.66190  0.33810  0.99060  1.0000 0.9866718004
Zn  Zn3       1.0  0.33810  0.66190  0.00940  1.0000 0.9866718004
Zn  Zn4       1.0  0.50387  0.31823  0.15769  1.0000 0.9531148026
Zn  Zn5       1.0  0.31823  0.50387  0.84231  1.0000 0.9531148026
Zn  Zn6       1.0  0.49613  0.68177  0.84231  1.0000 0.9531148026
Zn  Zn7       1.0  0.68177  0.49613  0.15769  1.0000 0.9531148026
H   H1        1.0  0.00000  0.46960  0.22190  1.0000 0.1395062903
H   H2        1.0  0.46960  0.00000  0.77810  1.0000 0.1395062903
H   H3        1.0  0.00000  0.53040  0.77810  1.0000 0.1395062903
H   H4        1.0  0.53040  0.00000  0.22190  1.0000 0.1395062903
H   H5        1.0  0.99020  0.32840  0.97810  1.0000 0.1206312092
H   H6        1.0  0.32840  0.99020  0.02190  1.0000 0.1206312092
H   H7        1.0  0.00980  0.67160  0.02190  1.0000 0.1206312092
H   H8        1.0  0.67160  0.00980  0.97810  1.0000 0.1206312092
H   H9        1.0  0.16970  0.32770  0.98350  1.0000 0.1294582585
H   H10       1.0  0.32770  0.16970  0.01650  1.0000 0.1294582585
H   H11       1.0  0.83030  0.67230  0.01650  1.0000 0.1294582585
H   H12       1.0  0.67230  0.83030  0.98350  1.0000 0.1294582585
C   C1        1.0  0.19420  0.39520  0.10670  1.0000 -0.0389717501
C   C2        1.0  0.39520  0.19420  0.89330  1.0000 -0.0389717501
C   C3        1.0  0.80580  0.60480  0.89330  1.0000 -0.0389717501
C   C4        1.0  0.60480  0.80580  0.10670  1.0000 -0.0389717501
C   C5        1.0  0.14100  0.43660  0.17620  1.0000 0.0431907136
C   C6        1.0  0.43660  0.14100  0.82380  1.0000 0.0431907136
C   C7        1.0  0.85900  0.56340  0.82380  1.0000 0.0431907136
C   C8        1.0  0.56340  0.85900  0.17620  1.0000 0.0431907136
C   C9        1.0  0.03380  0.43960  0.17330  1.0000 -0.1567651977
C   C10       1.0  0.43960  0.03380  0.82670  1.0000 -0.1567651977
C   C11       1.0  0.96620  0.56040  0.82670  1.0000 -0.1567651977
C   C12       1.0  0.56040  0.96620  0.17330  1.0000 -0.1567651977
C   C13       1.0  0.97730  0.39890  0.09930  1.0000 -0.0266105191
C   C14       1.0  0.39890  0.97730  0.90070  1.0000 -0.0266105191
C   C15       1.0  0.02270  0.60110  0.90070  1.0000 -0.0266105191
C   C16       1.0  0.60110  0.02270  0.09930  1.0000 -0.0266105191
C   C17       1.0  0.02870  0.35710  0.02950  1.0000 -0.0849670222
C   C18       1.0  0.35710  0.02870  0.97050  1.0000 -0.0862089868
C   C19       1.0  0.97130  0.64290  0.97050  1.0000 -0.0862089868
C   C20       1.0  0.64290  0.97130  0.02950  1.0000 -0.0862089868
C   C21       1.0  0.13600  0.35600  0.03310  1.0000 -0.1203529028
C   C22       1.0  0.35600  0.13600  0.96690  1.0000 -0.1203529028
C   C23       1.0  0.86400  0.64400  0.96690  1.0000 -0.1203529028
C   C24       1.0  0.64400  0.86400  0.03310  1.0000 -0.1203529028
C   C25       1.0  0.31070  0.39730  0.10520  1.0000 0.5881120215
C   C26       1.0  0.39730  0.31070  0.89480  1.0000 0.5881120215
C   C27       1.0  0.68930  0.60270  0.89480  1.0000 0.5881120215
C   C28       1.0  0.60270  0.68930  0.10520  1.0000 0.5881120215
C   C29       1.0  0.86160  0.40500  0.09330  1.0000 0.5881120215
C   C30       1.0  0.40500  0.86160  0.90670  1.0000 0.5881120215
C   C31       1.0  0.13840  0.59500  0.90670  1.0000 0.5881120215
C   C32       1.0  0.59500  0.13840  0.09330  1.0000 0.5881120215
C   C33       1.0  0.56400  0.43600  0.32170  1.0000 0.6154842923
C   C34       1.0  0.43600  0.56400  0.67830  1.0000 0.6154842923
C   C35       1.0  0.53290  0.46710  0.41670  1.0000 -0.0389717501
C   C36       1.0  0.46710  0.53290  0.58330  1.0000 -0.0389717501
C   C37       1.0  0.44920  0.41660  0.45860  1.0000 0.0109445575
C   C38       1.0  0.41660  0.44920  0.54140  1.0000 0.0109445575
C   C39       1.0  0.55080  0.58340  0.54140  1.0000 0.0109445575
C   C40       1.0  0.58340  0.55080  0.45860  1.0000 0.0109445575
N   N1        1.0  0.19650  0.47110  0.26240  1.0000 0.5014932553
N   N2        1.0  0.47110  0.19650  0.73760  1.0000 0.5014932553
N   N3        1.0  0.80350  0.52890  0.73760  1.0000 0.5014932553
N   N4        1.0  0.52890  0.80350  0.26240  1.0000 0.5014932553
N   N5        1.0  0.38660  0.32780  0.42610  1.0000 0.4778602818
N   N6        1.0  0.32780  0.38660  0.57390  1.0000 0.4778602818
N   N7        1.0  0.61340  0.67220  0.57390  1.0000 0.4778602818
N   N8        1.0  0.67220  0.61340  0.42610  1.0000 0.4778602818
O   O1        1.0  0.58850  0.41150  0.08040  1.0000 -0.9964689662
O   O2        1.0  0.41150  0.58850  0.91960  1.0000 -0.9964689662
O   O3        1.0  0.35743  0.47909  0.07800  1.0000 -0.5530794551
O   O4        1.0  0.47909  0.35743  0.92200  1.0000 -0.5530794551
O   O5        1.0  0.64257  0.52091  0.92200  1.0000 -0.5530794551
O   O6        1.0  0.52091  0.64257  0.07800  1.0000 -0.5530794551
O   O7        1.0  0.35287  0.31341  0.12750  1.0000 -0.5293079367
O   O8        1.0  0.31341  0.35287  0.87250  1.0000 -0.5293079367
O   O9        1.0  0.64713  0.68659  0.87250  1.0000 -0.5293079367
O   O10       1.0  0.68659  0.64713  0.12750  1.0000 -0.5293079367
O   O11       1.0  0.82439  0.45731  0.15470  1.0000 -0.541582187
O   O12       1.0  0.45731  0.82439  0.84530  1.0000 -0.541582187
O   O13       1.0  0.17561  0.54269  0.84530  1.0000 -0.541582187
O   O14       1.0  0.54269  0.17561  0.15470  1.0000 -0.541582187
O   O15       1.0  0.81276  0.36108  0.02840  1.0000 -0.5551220228
O   O16       1.0  0.36108  0.81276  0.97160  1.0000 -0.5551220228
O   O17       1.0  0.18724  0.63892  0.97160  1.0000 -0.5530794551
O   O18       1.0  0.63892  0.18724  0.02840  1.0000 -0.5551220228
O   O19       1.0  0.28890  0.46090  0.27290  1.0000 -0.3178230812
O   O20       1.0  0.46090  0.28890  0.72710  1.0000 -0.3178230812
O   O21       1.0  0.71110  0.53910  0.72710  1.0000 -0.3178230812
O   O22       1.0  0.53910  0.71110  0.27290  1.0000 -0.3178230812
O   O23       1.0  0.14890  0.51610  0.31840  1.0000 -0.3178230812
O   O24       1.0  0.51610  0.14890  0.68160  1.0000 -0.3132786105
O   O25       1.0  0.85110  0.48390  0.68160  1.0000 -0.3132786105
O   O26       1.0  0.48390  0.85110  0.31840  1.0000 -0.3132786105
O   O27       1.0  0.51185  0.36205  0.28610  1.0000 -0.5146639993
O   O28       1.0  0.36205  0.51185  0.71390  1.0000 -0.5146639993
O   O29       1.0  0.48815  0.63795  0.71390  1.0000 -0.5146639993
O   O30       1.0  0.63795  0.48815  0.28610  1.0000 -0.5155877521
O   O31       1.0  0.30650  0.32550  0.39900  1.0000 -0.1143955638
O   O32       1.0  0.32550  0.30650  0.60100  1.0000 -0.1203529028
O   O33       1.0  0.69350  0.67450  0.60100  1.0000 -0.1203529028
O   O34       1.0  0.67450  0.69350  0.39900  1.0000 -0.1143955638
O   O35       1.0  0.43720  0.24880  0.43300  1.0000 -0.2026009311
O   O36       1.0  0.24880  0.43720  0.56700  1.0000 -0.206241568
O   O37       1.0  0.56280  0.75120  0.56700  1.0000 -0.206241568
O   O38       1.0  0.75120  0.56280  0.43300  1.0000 -0.2026009311
