# DDEC6 charges by PACMAN v1.1 (https://github.com/mtap-research/PACMAN-charge/)
data_2012[Cu][tbo]3[ASR]7
_chemical_formula_sum              "Cu12 H24 C72 O48"
_cell_length_a       18.5137
_cell_length_b       18.5137
_cell_length_c       18.5137
_cell_angle_alpha    60
_cell_angle_beta     60
_cell_angle_gamma    60

_symmetry_space_group_name_H-M    "P 1"
_symmetry_Int_Tables_number       1

loop_
  _symmetry_equiv_pos_as_xyz
  'x, y, z'

loop_
  _atom_site_type_symbol
  _atom_site_label
  _atom_site_symmetry_multiplicity
  _atom_site_fract_x
  _atom_site_fract_y
  _atom_site_fract_z
  _atom_site_occupancy
  _atom_site_charge
Cu  Cu1       1.0  0.00000  0.57008  0.42992  1.0000 0.8427706299
Cu  Cu2       1.0  0.57008  0.42992  0.00000  1.0000 0.8427706299
Cu  Cu3       1.0  0.42992  0.00000  0.57008  1.0000 0.8427706299
Cu  Cu4       1.0  0.57008  0.00000  0.00000  1.0000 0.8427706299
Cu  Cu5       1.0  0.42992  0.57008  0.00000  1.0000 0.8427706299
Cu  Cu6       1.0  0.00000  0.42992  0.00000  1.0000 0.8427706299
Cu  Cu7       1.0  0.00000  0.00000  0.42992  1.0000 0.8427706299
Cu  Cu8       1.0  0.00000  0.57008  0.00000  1.0000 0.8427706299
Cu  Cu9       1.0  0.57008  0.00000  0.42992  1.0000 0.8427706299
Cu  Cu10      1.0  0.42992  0.00000  0.00000  1.0000 0.8427706299
Cu  Cu11      1.0  0.00000  0.00000  0.57008  1.0000 0.8427706299
Cu  Cu12      1.0  0.00000  0.42992  0.57008  1.0000 0.8427706299
H   H1        1.0  0.27150  0.48670  0.27150  1.0000 0.1374006061
H   H2        1.0  0.48670  0.27150  0.27150  1.0000 0.1374006061
H   H3        1.0  0.27150  0.27150  0.48670  1.0000 0.1374006061
H   H4        1.0  0.48670  0.27150  0.97030  1.0000 0.1374006061
H   H5        1.0  0.27150  0.48670  0.97030  1.0000 0.1374006061
H   H6        1.0  0.27150  0.27150  0.97030  1.0000 0.1374006061
H   H7        1.0  0.97030  0.27150  0.27150  1.0000 0.1374006061
H   H8        1.0  0.97030  0.48670  0.27150  1.0000 0.1374006061
H   H9        1.0  0.48670  0.97030  0.27150  1.0000 0.1374006061
H   H10       1.0  0.27150  0.97030  0.27150  1.0000 0.1374006061
H   H11       1.0  0.27150  0.97030  0.48670  1.0000 0.1374006061
H   H12       1.0  0.97030  0.27150  0.48670  1.0000 0.1374006061
H   H13       1.0  0.51330  0.72850  0.72850  1.0000 0.1374006061
H   H14       1.0  0.72850  0.51330  0.72850  1.0000 0.1374006061
H   H15       1.0  0.72850  0.72850  0.51330  1.0000 0.1374006061
H   H16       1.0  0.72850  0.51330  0.02970  1.0000 0.1374006061
H   H17       1.0  0.51330  0.72850  0.02970  1.0000 0.1374006061
H   H18       1.0  0.72850  0.72850  0.02970  1.0000 0.1374006061
H   H19       1.0  0.72850  0.02970  0.72850  1.0000 0.1374006061
H   H20       1.0  0.51330  0.02970  0.72850  1.0000 0.1374006061
H   H21       1.0  0.02970  0.51330  0.72850  1.0000 0.1374006061
H   H22       1.0  0.02970  0.72850  0.72850  1.0000 0.1374006061
H   H23       1.0  0.02970  0.72850  0.51330  1.0000 0.1374006061
H   H24       1.0  0.72850  0.02970  0.51330  1.0000 0.1374006061
C   C1        1.0  0.30200  0.42840  0.30200  1.0000 -0.0767031647
C   C2        1.0  0.42840  0.30200  0.30200  1.0000 -0.0767031647
C   C3        1.0  0.30200  0.30200  0.42840  1.0000 -0.0767031647
C   C4        1.0  0.42840  0.30200  0.96760  1.0000 -0.0767031647
C   C5        1.0  0.30200  0.42840  0.96760  1.0000 -0.0767031647
C   C6        1.0  0.30200  0.30200  0.96760  1.0000 -0.0767031647
C   C7        1.0  0.96760  0.30200  0.30200  1.0000 -0.0767031647
C   C8        1.0  0.96760  0.42840  0.30200  1.0000 -0.0767031647
C   C9        1.0  0.42840  0.96760  0.30200  1.0000 -0.0767031647
C   C10       1.0  0.30200  0.96760  0.30200  1.0000 -0.0767031647
C   C11       1.0  0.30200  0.96760  0.42840  1.0000 -0.0767031647
C   C12       1.0  0.96760  0.30200  0.42840  1.0000 -0.0767031647
C   C13       1.0  0.57160  0.69800  0.69800  1.0000 -0.0767031647
C   C14       1.0  0.69800  0.57160  0.69800  1.0000 -0.0767031647
C   C15       1.0  0.69800  0.69800  0.57160  1.0000 -0.0767031647
C   C16       1.0  0.69800  0.57160  0.03240  1.0000 -0.0767031647
C   C17       1.0  0.57160  0.69800  0.03240  1.0000 -0.0767031647
C   C18       1.0  0.69800  0.69800  0.03240  1.0000 -0.0767031647
C   C19       1.0  0.69800  0.03240  0.69800  1.0000 -0.0767031647
C   C20       1.0  0.57160  0.03240  0.69800  1.0000 -0.0767031647
C   C21       1.0  0.03240  0.57160  0.69800  1.0000 -0.0767031647
C   C22       1.0  0.03240  0.69800  0.69800  1.0000 -0.0767031647
C   C23       1.0  0.03240  0.69800  0.57160  1.0000 -0.0767031647
C   C24       1.0  0.69800  0.03240  0.57160  1.0000 -0.0767031647
C   C25       1.0  0.25680  0.38900  0.38900  1.0000 -0.046898937
C   C26       1.0  0.38900  0.38900  0.25680  1.0000 -0.046898937
C   C27       1.0  0.38900  0.25680  0.38900  1.0000 -0.046898937
C   C28       1.0  0.38900  0.25680  0.96520  1.0000 -0.046898937
C   C29       1.0  0.38900  0.38900  0.96520  1.0000 -0.046898937
C   C30       1.0  0.25680  0.38900  0.96520  1.0000 -0.046898937
C   C31       1.0  0.96520  0.25680  0.38900  1.0000 -0.046898937
C   C32       1.0  0.96520  0.38900  0.25680  1.0000 -0.046898937
C   C33       1.0  0.38900  0.96520  0.38900  1.0000 -0.046898937
C   C34       1.0  0.38900  0.96520  0.25680  1.0000 -0.046898937
C   C35       1.0  0.25680  0.96520  0.38900  1.0000 -0.046898937
C   C36       1.0  0.96520  0.38900  0.38900  1.0000 -0.046898937
C   C37       1.0  0.61100  0.74320  0.61100  1.0000 -0.046898937
C   C38       1.0  0.61100  0.61100  0.74320  1.0000 -0.046898937
C   C39       1.0  0.74320  0.61100  0.61100  1.0000 -0.046898937
C   C40       1.0  0.74320  0.61100  0.03480  1.0000 -0.046898937
C   C41       1.0  0.61100  0.61100  0.03480  1.0000 -0.046898937
C   C42       1.0  0.61100  0.74320  0.03480  1.0000 -0.046898937
C   C43       1.0  0.74320  0.03480  0.61100  1.0000 -0.046898937
C   C44       1.0  0.61100  0.03480  0.74320  1.0000 -0.046898937
C   C45       1.0  0.03480  0.61100  0.61100  1.0000 -0.046898937
C   C46       1.0  0.03480  0.61100  0.74320  1.0000 -0.046898937
C   C47       1.0  0.03480  0.74320  0.61100  1.0000 -0.046898937
C   C48       1.0  0.61100  0.03480  0.61100  1.0000 -0.046898937
C   C49       1.0  0.16190  0.43050  0.43050  1.0000 0.5741952347
C   C50       1.0  0.43050  0.43050  0.16190  1.0000 0.5741952347
C   C51       1.0  0.43050  0.16190  0.43050  1.0000 0.5741952347
C   C52       1.0  0.43050  0.16190  0.97710  1.0000 0.5741952347
C   C53       1.0  0.43050  0.43050  0.97710  1.0000 0.5741952347
C   C54       1.0  0.16190  0.43050  0.97710  1.0000 0.5741952347
C   C55       1.0  0.97710  0.16190  0.43050  1.0000 0.5741952347
C   C56       1.0  0.97710  0.43050  0.16190  1.0000 0.5741952347
C   C57       1.0  0.43050  0.97710  0.43050  1.0000 0.5741952347
C   C58       1.0  0.43050  0.97710  0.16190  1.0000 0.5741952347
C   C59       1.0  0.16190  0.97710  0.43050  1.0000 0.5741952347
C   C60       1.0  0.97710  0.43050  0.43050  1.0000 0.5741952347
C   C61       1.0  0.56950  0.83810  0.56950  1.0000 0.5741952347
C   C62       1.0  0.56950  0.56950  0.83810  1.0000 0.5741952347
C   C63       1.0  0.83810  0.56950  0.56950  1.0000 0.5741952347
C   C64       1.0  0.83810  0.56950  0.02290  1.0000 0.5741952347
C   C65       1.0  0.56950  0.56950  0.02290  1.0000 0.5741952347
C   C66       1.0  0.56950  0.83810  0.02290  1.0000 0.5741952347
C   C67       1.0  0.83810  0.02290  0.56950  1.0000 0.5741952347
C   C68       1.0  0.56950  0.02290  0.83810  1.0000 0.5741952347
C   C69       1.0  0.02290  0.56950  0.56950  1.0000 0.5741952347
C   C70       1.0  0.02290  0.56950  0.83810  1.0000 0.5741952347
C   C71       1.0  0.02290  0.83810  0.56950  1.0000 0.5741952347
C   C72       1.0  0.56950  0.02290  0.56950  1.0000 0.5741952347
O   O1        1.0  0.12630  0.50750  0.38710  1.0000 -0.5046272638
O   O2        1.0  0.50750  0.38710  0.12630  1.0000 -0.5046272638
O   O3        1.0  0.38710  0.12630  0.50750  1.0000 -0.5046272638
O   O4        1.0  0.50750  0.12630  0.97910  1.0000 -0.5050542118
O   O5        1.0  0.38710  0.50750  0.97910  1.0000 -0.5050542118
O   O6        1.0  0.12630  0.38710  0.97910  1.0000 -0.5046272638
O   O7        1.0  0.97910  0.12630  0.38710  1.0000 -0.5046272638
O   O8        1.0  0.97910  0.50750  0.12630  1.0000 -0.5046272638
O   O9        1.0  0.50750  0.97910  0.38710  1.0000 -0.5046272638
O   O10       1.0  0.38710  0.97910  0.12630  1.0000 -0.5046272638
O   O11       1.0  0.12630  0.97910  0.50750  1.0000 -0.5046272638
O   O12       1.0  0.97910  0.38710  0.50750  1.0000 -0.5046272638
O   O13       1.0  0.49250  0.87370  0.61290  1.0000 -0.5046272638
O   O14       1.0  0.61290  0.49250  0.87370  1.0000 -0.5046272638
O   O15       1.0  0.87370  0.61290  0.49250  1.0000 -0.5046272638
O   O16       1.0  0.87370  0.49250  0.02090  1.0000 -0.5046272638
O   O17       1.0  0.49250  0.61290  0.02090  1.0000 -0.5046272638
O   O18       1.0  0.61290  0.87370  0.02090  1.0000 -0.5046272638
O   O19       1.0  0.87370  0.02090  0.61290  1.0000 -0.5050542118
O   O20       1.0  0.49250  0.02090  0.87370  1.0000 -0.5050542118
O   O21       1.0  0.02090  0.49250  0.61290  1.0000 -0.5046272638
O   O22       1.0  0.02090  0.61290  0.87370  1.0000 -0.5046272638
O   O23       1.0  0.02090  0.87370  0.49250  1.0000 -0.5046272638
O   O24       1.0  0.61290  0.02090  0.49250  1.0000 -0.5046272638
O   O25       1.0  0.87370  0.49250  0.61290  1.0000 -0.5046272638
O   O26       1.0  0.49250  0.61290  0.87370  1.0000 -0.5046272638
O   O27       1.0  0.61290  0.87370  0.49250  1.0000 -0.5046272638
O   O28       1.0  0.49250  0.87370  0.02090  1.0000 -0.5046272638
O   O29       1.0  0.61290  0.49250  0.02090  1.0000 -0.5046272638
O   O30       1.0  0.87370  0.61290  0.02090  1.0000 -0.5046272638
O   O31       1.0  0.02090  0.87370  0.61290  1.0000 -0.5046272638
O   O32       1.0  0.02090  0.49250  0.87370  1.0000 -0.5046272638
O   O33       1.0  0.49250  0.02090  0.61290  1.0000 -0.5046272638
O   O34       1.0  0.61290  0.02090  0.87370  1.0000 -0.5050542118
O   O35       1.0  0.87370  0.02090  0.49250  1.0000 -0.5050542118
O   O36       1.0  0.02090  0.61290  0.49250  1.0000 -0.5046272638
O   O37       1.0  0.50750  0.12630  0.38710  1.0000 -0.5046272638
O   O38       1.0  0.38710  0.50750  0.12630  1.0000 -0.5046272638
O   O39       1.0  0.12630  0.38710  0.50750  1.0000 -0.5046272638
O   O40       1.0  0.12630  0.50750  0.97910  1.0000 -0.5046272638
O   O41       1.0  0.50750  0.38710  0.97910  1.0000 -0.5046272638
O   O42       1.0  0.38710  0.12630  0.97910  1.0000 -0.5050542118
O   O43       1.0  0.12630  0.97910  0.38710  1.0000 -0.5046272638
O   O44       1.0  0.50750  0.97910  0.12630  1.0000 -0.5046272638
O   O45       1.0  0.97910  0.50750  0.38710  1.0000 -0.5046272638
O   O46       1.0  0.97910  0.38710  0.12630  1.0000 -0.5046272638
O   O47       1.0  0.97910  0.12630  0.50750  1.0000 -0.5046272638
O   O48       1.0  0.38710  0.97910  0.50750  1.0000 -0.5046272638
