# DDEC6 charges by PACMAN v1.1 (https://github.com/mtap-research/PACMAN-charge/)
data_2012[Gd][nan]3[ASR]3
_chemical_formula_sum              "Gd8 H72 C144 N24 O52"
_cell_length_a       17.0378
_cell_length_b       15.1875
_cell_length_c       25.6487
_cell_angle_alpha    90
_cell_angle_beta     97.91
_cell_angle_gamma    90

_symmetry_space_group_name_H-M    "P 1"
_symmetry_Int_Tables_number       1

loop_
  _symmetry_equiv_pos_as_xyz
  'x, y, z'

loop_
  _atom_site_type_symbol
  _atom_site_label
  _atom_site_symmetry_multiplicity
  _atom_site_fract_x
  _atom_site_fract_y
  _atom_site_fract_z
  _atom_site_occupancy
  _atom_site_charge
Gd  Gd1       1.0  0.31498  0.67076  0.75029  1.0000 2.0254068085
Gd  Gd2       1.0  0.18502  0.17076  0.24971  1.0000 2.0234203049
Gd  Gd3       1.0  0.68502  0.32924  0.24971  1.0000 2.0254068085
Gd  Gd4       1.0  0.81498  0.82924  0.75029  1.0000 2.0254068085
Gd  Gd5       1.0  0.46322  0.20429  0.25038  1.0000 2.0392485567
Gd  Gd6       1.0  0.03678  0.70429  0.74962  1.0000 2.0392485567
Gd  Gd7       1.0  0.53678  0.79571  0.74962  1.0000 2.0392485567
Gd  Gd8       1.0  0.96322  0.29571  0.25038  1.0000 2.0392485567
H   H1        1.0  0.38300  0.50120  0.61580  1.0000 0.1114904604
H   H2        1.0  0.11700  0.00120  0.38420  1.0000 0.1114904604
H   H3        1.0  0.61700  0.49880  0.38420  1.0000 0.1114904604
H   H4        1.0  0.88300  0.99880  0.61580  1.0000 0.1114904604
H   H5        1.0  0.57120  0.65980  0.61310  1.0000 0.1292975888
H   H6        1.0  0.92880  0.15980  0.38690  1.0000 0.1292975888
H   H7        1.0  0.42880  0.34020  0.38690  1.0000 0.1292975888
H   H8        1.0  0.07120  0.84020  0.61310  1.0000 0.1292975888
H   H9        1.0  0.58930  0.60340  0.53150  1.0000 0.1114904604
H   H10       1.0  0.91070  0.10340  0.46850  1.0000 0.1114904604
H   H11       1.0  0.41070  0.39660  0.46850  1.0000 0.1114904604
H   H12       1.0  0.08930  0.89660  0.53150  1.0000 0.1114904604
H   H13       1.0  0.39150  0.56450  0.86710  1.0000 0.1114904604
H   H14       1.0  0.10850  0.06450  0.13290  1.0000 0.1114904604
H   H15       1.0  0.60850  0.43550  0.13290  1.0000 0.1114904604
H   H16       1.0  0.89150  0.93550  0.86710  1.0000 0.1114904604
H   H17       1.0  0.61710  0.63890  0.91180  1.0000 0.1207341028
H   H18       1.0  0.88290  0.13890  0.08820  1.0000 0.1207341028
H   H19       1.0  0.38290  0.36110  0.08820  1.0000 0.1207341028
H   H20       1.0  0.11710  0.86110  0.91180  1.0000 0.1207341028
H   H21       1.0  0.61680  0.56650  0.99140  1.0000 0.1207341028
H   H22       1.0  0.88320  0.06650  0.00860  1.0000 0.1207341028
H   H23       1.0  0.38320  0.43350  0.00860  1.0000 0.1207341028
H   H24       1.0  0.11680  0.93350  0.99140  1.0000 0.1207341028
H   H25       1.0  0.45490  0.91530  0.63950  1.0000 0.1114904604
H   H26       1.0  0.04510  0.41530  0.36050  1.0000 0.1114904604
H   H27       1.0  0.54510  0.08470  0.36050  1.0000 0.1114904604
H   H28       1.0  0.95490  0.58470  0.63950  1.0000 0.1114904604
H   H29       1.0  0.22870  0.84260  0.59520  1.0000 0.1292975888
H   H30       1.0  0.27130  0.34260  0.40480  1.0000 0.1292975888
H   H31       1.0  0.77130  0.15740  0.40480  1.0000 0.1292975888
H   H32       1.0  0.72870  0.65740  0.59520  1.0000 0.1292975888
H   H33       1.0  0.22390  0.93010  0.52060  1.0000 0.1207341028
H   H34       1.0  0.27610  0.43010  0.47940  1.0000 0.1207341028
H   H35       1.0  0.77610  0.06990  0.47940  1.0000 0.1207341028
H   H36       1.0  0.72390  0.56990  0.52060  1.0000 0.1207341028
H   H37       1.0  0.45020  0.14530  0.42740  1.0000 0.1114904604
H   H38       1.0  0.04980  0.64530  0.57260  1.0000 0.1114904604
H   H39       1.0  0.54980  0.85470  0.57260  1.0000 0.1114904604
H   H40       1.0  0.95020  0.35470  0.42740  1.0000 0.1114904604
H   H41       1.0  0.23930  0.03960  0.37100  1.0000 0.1207341028
H   H42       1.0  0.26070  0.53960  0.62900  1.0000 0.1207341028
H   H43       1.0  0.76070  0.96040  0.62900  1.0000 0.1207341028
H   H44       1.0  0.73930  0.46040  0.37100  1.0000 0.1207341028
H   H45       1.0  0.23250  0.97460  0.45210  1.0000 0.1114904604
H   H46       1.0  0.26750  0.47460  0.54790  1.0000 0.1114904604
H   H47       1.0  0.76750  0.02540  0.54790  1.0000 0.1114904604
H   H48       1.0  0.73250  0.52540  0.45210  1.0000 0.1114904604
H   H49       1.0  0.20980  0.03350  0.09360  1.0000 0.1042114579
H   H50       1.0  0.29020  0.53350  0.90640  1.0000 0.1042114579
H   H51       1.0  0.79020  0.96650  0.90640  1.0000 0.1042114579
H   H52       1.0  0.70980  0.46650  0.09360  1.0000 0.1042114579
H   H53       1.0  0.42640  0.14220  0.10420  1.0000 0.1207341028
H   H54       1.0  0.07360  0.64220  0.89580  1.0000 0.1207341028
H   H55       1.0  0.57360  0.85780  0.89580  1.0000 0.1207341028
H   H56       1.0  0.92640  0.35780  0.10420  1.0000 0.1207341028
H   H57       1.0  0.44040  0.08750  0.02150  1.0000 0.1207341028
H   H58       1.0  0.05960  0.58750  0.97850  1.0000 0.1207341028
H   H59       1.0  0.55960  0.91250  0.97850  1.0000 0.1207341028
H   H60       1.0  0.94040  0.41250  0.02150  1.0000 0.1207341028
H   H61       1.0  0.46560  0.97670  0.87560  1.0000 0.1207341028
H   H62       1.0  0.03440  0.47670  0.12440  1.0000 0.1207341028
H   H63       1.0  0.53440  0.02330  0.12440  1.0000 0.1207341028
H   H64       1.0  0.96560  0.52330  0.87560  1.0000 0.1207341028
H   H65       1.0  0.26650  0.83560  0.87740  1.0000 0.1292975888
H   H66       1.0  0.23350  0.33560  0.12260  1.0000 0.1292975888
H   H67       1.0  0.73350  0.16440  0.12260  1.0000 0.1292975888
H   H68       1.0  0.76650  0.66440  0.87740  1.0000 0.1292975888
H   H69       1.0  0.24310  0.90790  0.95340  1.0000 0.1114904604
H   H70       1.0  0.25690  0.40790  0.04660  1.0000 0.1114904604
H   H71       1.0  0.75690  0.09210  0.04660  1.0000 0.1114904604
H   H72       1.0  0.74310  0.59210  0.95340  1.0000 0.1114904604
C   C1        1.0  0.49700  0.51850  0.52480  1.0000 0.148135174
C   C2        1.0  0.00300  0.01850  0.47520  1.0000 0.148135174
C   C3        1.0  0.50300  0.48150  0.47520  1.0000 0.148135174
C   C4        1.0  0.99700  0.98150  0.52480  1.0000 0.148135174
C   C5        1.0  0.42440  0.52170  0.59890  1.0000 0.0415174583
C   C6        1.0  0.07560  0.02170  0.40110  1.0000 0.0415174583
C   C7        1.0  0.57560  0.47830  0.40110  1.0000 0.0415174583
C   C8        1.0  0.92440  0.97830  0.59890  1.0000 0.0415174583
C   C9        1.0  0.47530  0.58610  0.62250  1.0000 -0.060403624
C   C10       1.0  0.02470  0.08610  0.37750  1.0000 -0.060403624
C   C11       1.0  0.52470  0.41390  0.37750  1.0000 -0.060403624
C   C12       1.0  0.97530  0.91390  0.62250  1.0000 -0.060403624
C   C13       1.0  0.53710  0.61670  0.59730  1.0000 -0.0779896728
C   C14       1.0  0.96290  0.11670  0.40270  1.0000 -0.0779896728
C   C15       1.0  0.46290  0.38330  0.40270  1.0000 -0.0779896728
C   C16       1.0  0.03710  0.88330  0.59730  1.0000 -0.0779896728
C   C17       1.0  0.54800  0.58290  0.54840  1.0000 -0.1487873735
C   C18       1.0  0.95200  0.08290  0.45160  1.0000 -0.1487873735
C   C19       1.0  0.45200  0.41710  0.45160  1.0000 -0.1487873735
C   C20       1.0  0.04800  0.91710  0.54840  1.0000 -0.1487873735
C   C21       1.0  0.46100  0.62750  0.67350  1.0000 0.6321183849
C   C22       1.0  0.03900  0.12750  0.32650  1.0000 0.6321183849
C   C23       1.0  0.53900  0.37250  0.32650  1.0000 0.6321183849
C   C24       1.0  0.96100  0.87250  0.67350  1.0000 0.6321183849
C   C25       1.0  0.50390  0.52220  0.97700  1.0000 0.1419421666
C   C26       1.0  0.99610  0.02220  0.02300  1.0000 0.1419421666
C   C27       1.0  0.49610  0.47780  0.02300  1.0000 0.1419421666
C   C28       1.0  0.00390  0.97780  0.97700  1.0000 0.1419421666
C   C29       1.0  0.43660  0.56490  0.89200  1.0000 0.0415174583
C   C30       1.0  0.06340  0.06490  0.10800  1.0000 0.0415174583
C   C31       1.0  0.56340  0.43510  0.10800  1.0000 0.0415174583
C   C32       1.0  0.93660  0.93510  0.89200  1.0000 0.0415174583
C   C33       1.0  0.50430  0.60890  0.88150  1.0000 -0.060403624
C   C34       1.0  0.99570  0.10890  0.11850  1.0000 -0.060403624
C   C35       1.0  0.49570  0.39110  0.11850  1.0000 -0.060403624
C   C36       1.0  0.00430  0.89110  0.88150  1.0000 -0.060403624
C   C37       1.0  0.57180  0.60950  0.91880  1.0000 -0.0779896728
C   C38       1.0  0.92820  0.10950  0.08120  1.0000 -0.0779896728
C   C39       1.0  0.42820  0.39050  0.08120  1.0000 -0.0779896728
C   C40       1.0  0.07180  0.89050  0.91880  1.0000 -0.0779896728
C   C41       1.0  0.57160  0.56610  0.96650  1.0000 -0.1444023243
C   C42       1.0  0.92840  0.06610  0.03350  1.0000 -0.1487873735
C   C43       1.0  0.42840  0.43390  0.03350  1.0000 -0.1487873735
C   C44       1.0  0.07160  0.93390  0.96650  1.0000 -0.1487873735
C   C45       1.0  0.50380  0.66050  0.83170  1.0000 0.6191699215
C   C46       1.0  0.99620  0.16050  0.16830  1.0000 0.6191699215
C   C47       1.0  0.49620  0.33950  0.16830  1.0000 0.6191699215
C   C48       1.0  0.00380  0.83950  0.83170  1.0000 0.6191699215
C   C49       1.0  0.33650  0.97510  0.53540  1.0000 0.148135174
C   C50       1.0  0.16350  0.47510  0.46460  1.0000 0.148135174
C   C51       1.0  0.66350  0.02490  0.46460  1.0000 0.148135174
C   C52       1.0  0.83650  0.52490  0.53540  1.0000 0.148135174
C   C53       1.0  0.40860  0.91830  0.61570  1.0000 0.0521088409
C   C54       1.0  0.09140  0.41830  0.38430  1.0000 0.0521088409
C   C55       1.0  0.59140  0.08170  0.38430  1.0000 0.0521088409
C   C56       1.0  0.90860  0.58170  0.61570  1.0000 0.0521088409
C   C57       1.0  0.34230  0.87030  0.62480  1.0000 -0.0989838607
C   C58       1.0  0.15770  0.37030  0.37520  1.0000 -0.0989838607
C   C59       1.0  0.65770  0.12970  0.37520  1.0000 -0.0989838607
C   C60       1.0  0.84230  0.62970  0.62480  1.0000 -0.0989838607
C   C61       1.0  0.27310  0.87470  0.58910  1.0000 -0.060403624
C   C62       1.0  0.22690  0.37470  0.41090  1.0000 -0.060403624
C   C63       1.0  0.72690  0.12530  0.41090  1.0000 -0.060403624
C   C64       1.0  0.77310  0.62530  0.58910  1.0000 -0.060403624
C   C65       1.0  0.27020  0.92710  0.54450  1.0000 -0.1814364261
C   C66       1.0  0.22980  0.42710  0.45550  1.0000 -0.1814364261
C   C67       1.0  0.72980  0.07290  0.45550  1.0000 -0.1814364261
C   C68       1.0  0.77020  0.57290  0.54450  1.0000 -0.1814364261
C   C69       1.0  0.34360  0.81550  0.67150  1.0000 0.6113391825
C   C70       1.0  0.15640  0.31550  0.32850  1.0000 0.6113391825
C   C71       1.0  0.65640  0.18450  0.32850  1.0000 0.6113391825
C   C72       1.0  0.84360  0.68450  0.67150  1.0000 0.6113391825
C   C73       1.0  0.33720  0.02100  0.48840  1.0000 0.1419421666
C   C74       1.0  0.16280  0.52100  0.51160  1.0000 0.1419421666
C   C75       1.0  0.66280  0.97900  0.51160  1.0000 0.1419421666
C   C76       1.0  0.83720  0.47900  0.48840  1.0000 0.1419421666
C   C77       1.0  0.40660  0.11100  0.43240  1.0000 0.0521088409
C   C78       1.0  0.09340  0.61100  0.56760  1.0000 0.0521088409
C   C79       1.0  0.59340  0.88900  0.56760  1.0000 0.0521088409
C   C80       1.0  0.90660  0.38900  0.43240  1.0000 0.0521088409
C   C81       1.0  0.34540  0.09890  0.39120  1.0000 -0.0779896728
C   C82       1.0  0.15460  0.59890  0.60880  1.0000 -0.0779896728
C   C83       1.0  0.65460  0.90110  0.60880  1.0000 -0.0779896728
C   C84       1.0  0.84540  0.40110  0.39120  1.0000 -0.0779896728
C   C85       1.0  0.28020  0.04770  0.39860  1.0000 -0.0700769128
C   C86       1.0  0.21980  0.54770  0.60140  1.0000 -0.0700769128
C   C87       1.0  0.71980  0.95230  0.60140  1.0000 -0.0700769128
C   C88       1.0  0.78020  0.45230  0.39860  1.0000 -0.0700769128
C   C89       1.0  0.27610  0.00880  0.44720  1.0000 -0.1814364261
C   C90       1.0  0.22390  0.50880  0.55280  1.0000 -0.1814364261
C   C91       1.0  0.72390  0.99120  0.55280  1.0000 -0.1814364261
C   C92       1.0  0.77610  0.49120  0.44720  1.0000 -0.1814364261
C   C93       1.0  0.34870  0.13200  0.33670  1.0000 0.6321183849
C   C94       1.0  0.15130  0.63200  0.66330  1.0000 0.6321183849
C   C95       1.0  0.65130  0.86800  0.66330  1.0000 0.6321183849
C   C96       1.0  0.84870  0.36800  0.33670  1.0000 0.6321183849
C   C97       1.0  0.33350  0.02770  0.00800  1.0000 0.148135174
C   C98       1.0  0.16650  0.52770  0.99200  1.0000 0.148135174
C   C99       1.0  0.66650  0.97230  0.99200  1.0000 0.148135174
C   C100      1.0  0.83350  0.47230  0.00800  1.0000 0.148135174
C   C101      1.0  0.25600  0.04430  0.07910  1.0000 0.0415174583
C   C102      1.0  0.24400  0.54430  0.92090  1.0000 0.0415174583
C   C103      1.0  0.74400  0.95570  0.92090  1.0000 0.0415174583
C   C104      1.0  0.75600  0.45570  0.07910  1.0000 0.0415174583
C   C105      1.0  0.31670  0.09330  0.10710  1.0000 -0.0779896728
C   C106      1.0  0.18330  0.59330  0.89290  1.0000 -0.0779896728
C   C107      1.0  0.68330  0.90670  0.89290  1.0000 -0.0779896728
C   C108      1.0  0.81670  0.40670  0.10710  1.0000 -0.0779896728
C   C109      1.0  0.38580  0.10950  0.08550  1.0000 -0.0700769128
C   C110      1.0  0.11420  0.60950  0.91450  1.0000 -0.0700769128
C   C111      1.0  0.61420  0.89050  0.91450  1.0000 -0.0700769128
C   C112      1.0  0.88580  0.39050  0.08550  1.0000 -0.0700769128
C   C113      1.0  0.39420  0.07670  0.03600  1.0000 -0.1487873735
C   C114      1.0  0.10580  0.57670  0.96400  1.0000 -0.1487873735
C   C115      1.0  0.60580  0.92330  0.96400  1.0000 -0.1487873735
C   C116      1.0  0.89420  0.42330  0.03600  1.0000 -0.1487873735
C   C117      1.0  0.30550  0.12430  0.16060  1.0000 0.6191699215
C   C118      1.0  0.19450  0.62430  0.83940  1.0000 0.6191699215
C   C119      1.0  0.69450  0.87570  0.83940  1.0000 0.6191699215
C   C120      1.0  0.80550  0.37570  0.16060  1.0000 0.6191699215
C   C121      1.0  0.34030  0.98560  0.96010  1.0000 0.148135174
C   C122      1.0  0.15970  0.48560  0.03990  1.0000 0.148135174
C   C123      1.0  0.65970  0.01440  0.03990  1.0000 0.148135174
C   C124      1.0  0.84030  0.51440  0.96010  1.0000 0.148135174
C   C125      1.0  0.42100  0.96290  0.89120  1.0000 0.0415174583
C   C126      1.0  0.07900  0.46290  0.10880  1.0000 0.0415174583
C   C127      1.0  0.57900  0.03710  0.10880  1.0000 0.0415174583
C   C128      1.0  0.92100  0.53710  0.89120  1.0000 0.0415174583
C   C129      1.0  0.36840  0.89900  0.86900  1.0000 -0.060403624
C   C130      1.0  0.13160  0.39900  0.13100  1.0000 -0.060403624
C   C131      1.0  0.63160  0.10100  0.13100  1.0000 -0.060403624
C   C132      1.0  0.86840  0.60100  0.86900  1.0000 -0.060403624
C   C133      1.0  0.30170  0.87840  0.89230  1.0000 -0.0779896728
C   C134      1.0  0.19830  0.37840  0.10770  1.0000 -0.0779896728
C   C135      1.0  0.69830  0.12160  0.10770  1.0000 -0.0779896728
C   C136      1.0  0.80170  0.62160  0.89230  1.0000 -0.0779896728
C   C137      1.0  0.28770  0.92170  0.93780  1.0000 -0.1487873735
C   C138      1.0  0.21230  0.42170  0.06220  1.0000 -0.1487873735
C   C139      1.0  0.71230  0.07830  0.06220  1.0000 -0.1487873735
C   C140      1.0  0.78770  0.57830  0.93780  1.0000 -0.1487873735
C   C141      1.0  0.38320  0.84690  0.82070  1.0000 0.6321183849
C   C142      1.0  0.11680  0.34690  0.17930  1.0000 0.6321183849
C   C143      1.0  0.61680  0.15310  0.17930  1.0000 0.6321183849
C   C144      1.0  0.88320  0.65310  0.82070  1.0000 0.6321183849
N   N1        1.0  0.43520  0.48790  0.55010  1.0000 -0.3133533514
N   N2        1.0  0.06480  0.98790  0.44990  1.0000 -0.3133533514
N   N3        1.0  0.56480  0.51210  0.44990  1.0000 -0.3133533514
N   N4        1.0  0.93520  0.01210  0.55010  1.0000 -0.3133533514
N   N5        1.0  0.43650  0.52160  0.93970  1.0000 -0.2778137243
N   N6        1.0  0.06350  0.02160  0.06030  1.0000 -0.2778137243
N   N7        1.0  0.56350  0.47840  0.06030  1.0000 -0.2778137243
N   N8        1.0  0.93650  0.97840  0.93970  1.0000 -0.2778137243
N   N9        1.0  0.40570  0.97060  0.57100  1.0000 -0.2499827418
N   N10       1.0  0.09430  0.47060  0.42900  1.0000 -0.2499827418
N   N11       1.0  0.59430  0.02940  0.42900  1.0000 -0.2499827418
N   N12       1.0  0.90570  0.52940  0.57100  1.0000 -0.2499827418
N   N13       1.0  0.40250  0.07210  0.48100  1.0000 -0.2499827418
N   N14       1.0  0.09750  0.57210  0.51900  1.0000 -0.2499827418
N   N15       1.0  0.59750  0.92790  0.51900  1.0000 -0.2499827418
N   N16       1.0  0.90250  0.42790  0.48100  1.0000 -0.2499827418
N   N17       1.0  0.26440  0.01150  0.02960  1.0000 -0.2928453862
N   N18       1.0  0.23560  0.51150  0.97040  1.0000 -0.2928453862
N   N19       1.0  0.73560  0.98850  0.97040  1.0000 -0.2928453862
N   N20       1.0  0.76440  0.48850  0.02960  1.0000 -0.2928453862
N   N21       1.0  0.40700  0.00620  0.93680  1.0000 -0.2928453862
N   N22       1.0  0.09300  0.50620  0.06320  1.0000 -0.2928453862
N   N23       1.0  0.59300  0.99380  0.06320  1.0000 -0.2928453862
N   N24       1.0  0.90700  0.49380  0.93680  1.0000 -0.2928453862
O   O1        1.0  0.44090  0.66020  0.80180  1.0000 -0.6760889432
O   O2        1.0  0.05910  0.16020  0.19820  1.0000 -0.6760889432
O   O3        1.0  0.55910  0.33980  0.19820  1.0000 -0.6760889432
O   O4        1.0  0.94090  0.83980  0.80180  1.0000 -0.6760889432
O   O5        1.0  0.28230  0.77550  0.67930  1.0000 -0.5706082276
O   O6        1.0  0.21770  0.27550  0.32070  1.0000 -0.5706082276
O   O7        1.0  0.71770  0.22450  0.32070  1.0000 -0.5706082276
O   O8        1.0  0.78230  0.72450  0.67930  1.0000 -0.5706082276
O   O9        1.0  0.32910  0.80250  0.79930  1.0000 -0.5706082276
O   O10       1.0  0.17090  0.30250  0.20070  1.0000 -0.5706082276
O   O11       1.0  0.67090  0.19750  0.20070  1.0000 -0.5706082276
O   O12       1.0  0.82910  0.69750  0.79930  1.0000 -0.5706082276
O   O13       1.0  0.39150  0.61350  0.68510  1.0000 -0.6719584457
O   O14       1.0  0.10850  0.11350  0.31490  1.0000 -0.6719584457
O   O15       1.0  0.60850  0.38650  0.31490  1.0000 -0.6719584457
O   O16       1.0  0.89150  0.88650  0.68510  1.0000 -0.6719584457
O   O17       1.0  0.29510  0.11480  0.30130  1.0000 -0.638997919
O   O18       1.0  0.20490  0.61480  0.69870  1.0000 -0.638997919
O   O19       1.0  0.70490  0.88520  0.69870  1.0000 -0.638997919
O   O20       1.0  0.79510  0.38520  0.30130  1.0000 -0.638997919
O   O21       1.0  0.24100  0.13820  0.17240  1.0000 -0.5820548526
O   O22       1.0  0.25900  0.63820  0.82760  1.0000 -0.5820548526
O   O23       1.0  0.75900  0.86180  0.82760  1.0000 -0.5820548526
O   O24       1.0  0.74100  0.36180  0.17240  1.0000 -0.5820548526
O   O25       1.0  0.41040  0.17620  0.33120  1.0000 -0.638997919
O   O26       1.0  0.08960  0.67620  0.66880  1.0000 -0.638997919
O   O27       1.0  0.58960  0.82380  0.66880  1.0000 -0.638997919
O   O28       1.0  0.91040  0.32380  0.33120  1.0000 -0.638997919
O   O29       1.0  0.40810  0.80610  0.70130  1.0000 -0.7144844971
O   O30       1.0  0.09190  0.30610  0.29870  1.0000 -0.7144844971
O   O31       1.0  0.59190  0.19390  0.29870  1.0000 -0.7144844971
O   O32       1.0  0.90810  0.69390  0.70130  1.0000 -0.7144844971
O   O33       1.0  0.51530  0.66270  0.70080  1.0000 -0.5611999176
O   O34       1.0  0.98470  0.16270  0.29920  1.0000 -0.5611999176
O   O35       1.0  0.48470  0.33730  0.29920  1.0000 -0.5611999176
O   O36       1.0  0.01530  0.83730  0.70080  1.0000 -0.5611999176
O   O37       1.0  0.56520  0.69700  0.82200  1.0000 -0.5611999176
O   O38       1.0  0.93480  0.19700  0.17800  1.0000 -0.5611999176
O   O39       1.0  0.43480  0.30300  0.17800  1.0000 -0.5611999176
O   O40       1.0  0.06520  0.80300  0.82200  1.0000 -0.5611999176
O   O41       1.0  0.33290  0.28410  0.25000  1.0000 -0.0989838607
O   O42       1.0  0.16710  0.78410  0.75000  1.0000 -0.1073757141
O   O43       1.0  0.66710  0.71590  0.75000  1.0000 -0.1073757141
O   O44       1.0  0.83290  0.21590  0.25000  1.0000 -0.0989838607
O   O45       1.0  0.45290  0.85120  0.81080  1.0000 -0.6562800697
O   O46       1.0  0.04710  0.35120  0.18920  1.0000 -0.6562800697
O   O47       1.0  0.54710  0.14880  0.18920  1.0000 -0.6562800697
O   O48       1.0  0.95290  0.64880  0.81080  1.0000 -0.6562800697
O   O49       1.0  0.36700  0.13770  0.19160  1.0000 -0.6241663388
O   O50       1.0  0.13300  0.63770  0.80840  1.0000 -0.6241663388
O   O51       1.0  0.63300  0.86230  0.80840  1.0000 -0.6241663388
O   O52       1.0  0.86700  0.36230  0.19160  1.0000 -0.625392764
