# DDEC6 charges by PACMAN v1.1 (https://github.com/mtap-research/PACMAN-charge/)
data_2012[Ni][nan]3[ASR]2
_chemical_formula_sum              "Ni4 H136 C164 N16 O16"
_cell_length_a       17.005
_cell_length_b       10.593
_cell_length_c       29.1191
_cell_angle_alpha    90
_cell_angle_beta     124.507
_cell_angle_gamma    90

_symmetry_space_group_name_H-M    "P 1"
_symmetry_Int_Tables_number       1

loop_
  _symmetry_equiv_pos_as_xyz
  'x, y, z'

loop_
  _atom_site_type_symbol
  _atom_site_label
  _atom_site_symmetry_multiplicity
  _atom_site_fract_x
  _atom_site_fract_y
  _atom_site_fract_z
  _atom_site_occupancy
  _atom_site_charge
Ni  Ni1       1.0  0.12784  0.68687  0.37791  1.0000 0.6825523443
Ni  Ni2       1.0  0.87216  0.18687  0.12209  1.0000 0.6825523443
Ni  Ni3       1.0  0.87216  0.31313  0.62209  1.0000 0.6825523443
Ni  Ni4       1.0  0.12784  0.81313  0.87791  1.0000 0.6825523443
H   H1        1.0  0.15210  0.98260  0.38910  1.0000 0.1100664585
H   H2        1.0  0.84790  0.48260  0.11090  1.0000 0.1100664585
H   H3        1.0  0.84790  0.01740  0.61090  1.0000 0.1100664585
H   H4        1.0  0.15210  0.51740  0.88910  1.0000 0.1100664585
H   H5        1.0  0.21930  0.13210  0.45840  1.0000 0.1487771172
H   H6        1.0  0.78070  0.63210  0.04160  1.0000 0.1487771172
H   H7        1.0  0.78070  0.86790  0.54160  1.0000 0.1487771172
H   H8        1.0  0.21930  0.36790  0.95840  1.0000 0.1487771172
H   H9        1.0  0.31440  0.86060  0.57390  1.0000 0.1308306187
H   H10       1.0  0.68560  0.36060  0.92610  1.0000 0.1308306187
H   H11       1.0  0.68560  0.13940  0.42610  1.0000 0.1308306187
H   H12       1.0  0.31440  0.63940  0.07390  1.0000 0.1308306187
H   H13       1.0  0.24240  0.71160  0.50450  1.0000 0.1213162
H   H14       1.0  0.75760  0.21160  0.99550  1.0000 0.1213162
H   H15       1.0  0.75760  0.28840  0.49550  1.0000 0.1213162
H   H16       1.0  0.24240  0.78840  0.00450  1.0000 0.1213162
H   H17       1.0  0.39090  0.20390  0.54070  1.0000 0.1213162
H   H18       1.0  0.60910  0.70390  0.95930  1.0000 0.1213162
H   H19       1.0  0.60910  0.79610  0.45930  1.0000 0.1213162
H   H20       1.0  0.39090  0.29610  0.04070  1.0000 0.1213162
H   H21       1.0  0.45640  0.36040  0.60630  1.0000 0.1213162
H   H22       1.0  0.54360  0.86040  0.89370  1.0000 0.1213162
H   H23       1.0  0.54360  0.63960  0.39370  1.0000 0.1213162
H   H24       1.0  0.45640  0.13960  0.10630  1.0000 0.1213162
H   H25       1.0  0.32780  0.21700  0.67480  1.0000 0.1213162
H   H26       1.0  0.67220  0.71700  0.82520  1.0000 0.1213162
H   H27       1.0  0.67220  0.78300  0.32520  1.0000 0.1213162
H   H28       1.0  0.32780  0.28300  0.17480  1.0000 0.1213162
H   H29       1.0  0.26260  0.05780  0.60920  1.0000 0.1100664585
H   H30       1.0  0.73740  0.55780  0.89080  1.0000 0.1100664585
H   H31       1.0  0.73740  0.94220  0.39080  1.0000 0.1100664585
H   H32       1.0  0.26260  0.44220  0.10920  1.0000 0.1100664585
H   H33       1.0  0.93580  0.78230  0.75250  1.0000 0.1100664585
H   H34       1.0  0.06420  0.28230  0.74750  1.0000 0.1100664585
H   H35       1.0  0.06420  0.21770  0.24750  1.0000 0.1100664585
H   H36       1.0  0.93580  0.71770  0.25250  1.0000 0.1100664585
H   H37       1.0  0.79190  0.68390  0.71000  1.0000 0.1590868413
H   H38       1.0  0.20810  0.18390  0.79000  1.0000 0.1590868413
H   H39       1.0  0.20810  0.31610  0.29000  1.0000 0.1590868413
H   H40       1.0  0.79190  0.81610  0.21000  1.0000 0.1590868413
H   H41       1.0  0.85730  0.56950  0.85800  1.0000 0.1308306187
H   H42       1.0  0.14270  0.06950  0.64200  1.0000 0.1308306187
H   H43       1.0  0.14270  0.43050  0.14200  1.0000 0.1308306187
H   H44       1.0  0.85730  0.93050  0.35800  1.0000 0.1308306187
H   H45       1.0  0.00740  0.65550  0.90020  1.0000 0.1100664585
H   H46       1.0  0.99260  0.15550  0.59980  1.0000 0.1100664585
H   H47       1.0  0.99260  0.34450  0.09980  1.0000 0.1100664585
H   H48       1.0  0.00740  0.84450  0.40020  1.0000 0.1100664585
H   H49       1.0  0.75640  0.38370  0.77640  1.0000 0.1213162
H   H50       1.0  0.24360  0.88370  0.72360  1.0000 0.1213162
H   H51       1.0  0.24360  0.61630  0.22360  1.0000 0.1213162
H   H52       1.0  0.75640  0.11630  0.27640  1.0000 0.1213162
H   H53       1.0  0.60670  0.29560  0.74080  1.0000 0.1213162
H   H54       1.0  0.39330  0.79560  0.75920  1.0000 0.1213162
H   H55       1.0  0.39330  0.70440  0.25920  1.0000 0.1213162
H   H56       1.0  0.60670  0.20440  0.24080  1.0000 0.1213162
H   H57       1.0  0.48310  0.63350  0.67860  1.0000 0.1308306187
H   H58       1.0  0.51690  0.13350  0.82140  1.0000 0.1308306187
H   H59       1.0  0.51690  0.36650  0.32140  1.0000 0.1308306187
H   H60       1.0  0.48310  0.86650  0.17860  1.0000 0.1308306187
H   H61       1.0  0.63270  0.72060  0.71360  1.0000 0.1213162
H   H62       1.0  0.36730  0.22060  0.78640  1.0000 0.1213162
H   H63       1.0  0.36730  0.27940  0.28640  1.0000 0.1213162
H   H64       1.0  0.63270  0.77940  0.21360  1.0000 0.1213162
H   H65       1.0  0.31680  0.71660  0.90560  1.0000 0.1100664585
H   H66       1.0  0.68320  0.21660  0.59440  1.0000 0.1100664585
H   H67       1.0  0.68320  0.28340  0.09440  1.0000 0.1100664585
H   H68       1.0  0.31680  0.78340  0.40560  1.0000 0.1100664585
H   H69       1.0  0.38360  0.63160  0.86590  1.0000 0.1213162
H   H70       1.0  0.61640  0.13160  0.63410  1.0000 0.1213162
H   H71       1.0  0.61640  0.36840  0.13410  1.0000 0.1213162
H   H72       1.0  0.38360  0.86840  0.36590  1.0000 0.1213162
H   H73       1.0  0.12650  0.62290  0.71810  1.0000 0.1487771172
H   H74       1.0  0.87350  0.12290  0.78190  1.0000 0.1487771172
H   H75       1.0  0.87350  0.37710  0.28190  1.0000 0.1487771172
H   H76       1.0  0.12650  0.87710  0.21810  1.0000 0.1487771172
H   H77       1.0  0.06180  0.71570  0.75920  1.0000 0.1100664585
H   H78       1.0  0.93820  0.21570  0.74080  1.0000 0.1100664585
H   H79       1.0  0.93820  0.28430  0.24080  1.0000 0.1100664585
H   H80       1.0  0.06180  0.78430  0.25920  1.0000 0.1100664585
H   H81       1.0  0.44870  0.54450  0.82990  1.0000 0.1100664585
H   H82       1.0  0.55130  0.04450  0.67010  1.0000 0.1100664585
H   H83       1.0  0.55130  0.45550  0.17010  1.0000 0.1100664585
H   H84       1.0  0.44870  0.95550  0.32990  1.0000 0.1100664585
H   H85       1.0  0.51600  0.46320  0.78860  1.0000 0.1213162
H   H86       1.0  0.48400  0.96320  0.71140  1.0000 0.1213162
H   H87       1.0  0.48400  0.53680  0.21140  1.0000 0.1213162
H   H88       1.0  0.51600  0.03680  0.28860  1.0000 0.1213162
H   H89       1.0  0.25740  0.45550  0.64200  1.0000 0.1308306187
H   H90       1.0  0.74260  0.95550  0.85800  1.0000 0.1308306187
H   H91       1.0  0.74260  0.54450  0.35800  1.0000 0.1308306187
H   H92       1.0  0.25740  0.04450  0.14200  1.0000 0.1308306187
H   H93       1.0  0.18850  0.54110  0.68390  1.0000 0.1213162
H   H94       1.0  0.81150  0.04110  0.81610  1.0000 0.1213162
H   H95       1.0  0.81150  0.45890  0.31610  1.0000 0.1213162
H   H96       1.0  0.18850  0.95890  0.18390  1.0000 0.1213162
H   H97       1.0  0.14410  0.42030  0.51680  1.0000 0.0907170333
H   H98       1.0  0.85590  0.92030  0.98320  1.0000 0.0907170333
H   H99       1.0  0.85590  0.57970  0.48320  1.0000 0.0907170333
H   H100      1.0  0.14410  0.07970  0.01680  1.0000 0.0907170333
H   H101      1.0  0.11940  0.55380  0.52980  1.0000 0.0907170333
H   H102      1.0  0.88060  0.05380  0.97020  1.0000 0.0907170333
H   H103      1.0  0.88060  0.44620  0.47020  1.0000 0.0907170333
H   H104      1.0  0.11940  0.94620  0.02980  1.0000 0.0907170333
H   H105      1.0  0.96590  0.40420  0.44010  1.0000 0.0907170333
H   H106      1.0  0.03410  0.90420  0.05990  1.0000 0.0907170333
H   H107      1.0  0.03410  0.59580  0.55990  1.0000 0.0907170333
H   H108      1.0  0.96590  0.09580  0.94010  1.0000 0.0907170333
H   H109      1.0  0.99270  0.66520  0.47780  1.0000 0.0907170333
H   H110      1.0  0.00730  0.16520  0.02220  1.0000 0.0907170333
H   H111      1.0  0.00730  0.33480  0.52220  1.0000 0.0907170333
H   H112      1.0  0.99270  0.83480  0.97780  1.0000 0.0907170333
H   H113      1.0  0.90000  0.62870  0.41890  1.0000 0.0800299729
H   H114      1.0  0.10000  0.12870  0.08110  1.0000 0.0800299729
H   H115      1.0  0.10000  0.37130  0.58110  1.0000 0.0800299729
H   H116      1.0  0.90000  0.87130  0.91890  1.0000 0.0800299729
H   H117      1.0  0.43360  0.44510  0.40660  1.0000 0.0999148505
H   H118      1.0  0.56640  0.94510  0.09340  1.0000 0.0999148505
H   H119      1.0  0.56640  0.55490  0.59340  1.0000 0.0999148505
H   H120      1.0  0.43360  0.05490  0.90660  1.0000 0.0999148505
H   H121      1.0  0.45410  0.58280  0.43030  1.0000 0.0907170333
H   H122      1.0  0.54590  0.08280  0.06970  1.0000 0.0907170333
H   H123      1.0  0.54590  0.41720  0.56970  1.0000 0.0907170333
H   H124      1.0  0.45410  0.91720  0.93030  1.0000 0.0907170333
H   H125      1.0  0.39910  0.38190  0.46750  1.0000 0.0999148505
H   H126      1.0  0.60090  0.88190  0.03250  1.0000 0.0999148505
H   H127      1.0  0.60090  0.61810  0.53250  1.0000 0.0999148505
H   H128      1.0  0.39910  0.11810  0.96750  1.0000 0.0999148505
H   H129      1.0  0.40240  0.51640  0.53250  1.0000 0.0907170333
H   H130      1.0  0.59760  0.01640  0.96750  1.0000 0.0907170333
H   H131      1.0  0.59760  0.48360  0.46750  1.0000 0.0907170333
H   H132      1.0  0.40240  0.98360  0.03250  1.0000 0.0907170333
H   H133      1.0  0.43440  0.63040  0.51240  1.0000 0.0999148505
H   H134      1.0  0.56560  0.13040  0.98760  1.0000 0.0999148505
H   H135      1.0  0.56560  0.36960  0.48760  1.0000 0.0999148505
H   H136      1.0  0.43440  0.86960  0.01240  1.0000 0.0999148505
C   C1        1.0  0.18335  0.95810  0.42612  1.0000 0.0499065906
C   C2        1.0  0.81665  0.45810  0.07388  1.0000 0.0499065906
C   C3        1.0  0.81665  0.04190  0.57388  1.0000 0.0499065906
C   C4        1.0  0.18335  0.54190  0.92612  1.0000 0.0499065906
C   C5        1.0  0.22433  0.04720  0.46777  1.0000 -0.1811771611
C   C6        1.0  0.77567  0.54720  0.03223  1.0000 -0.1811771611
C   C7        1.0  0.77567  0.95280  0.53223  1.0000 -0.1811771611
C   C8        1.0  0.22433  0.45280  0.96777  1.0000 -0.1811771611
C   C9        1.0  0.27268  0.01340  0.52314  1.0000 0.1100664585
C   C10       1.0  0.72732  0.51340  0.97686  1.0000 0.1100664585
C   C11       1.0  0.72732  0.98660  0.47686  1.0000 0.1100664585
C   C12       1.0  0.27268  0.48660  0.02314  1.0000 0.1100664585
C   C13       1.0  0.28050  0.88550  0.53676  1.0000 -0.1988852181
C   C14       1.0  0.71950  0.38550  0.96324  1.0000 -0.1988852181
C   C15       1.0  0.71950  0.11450  0.46324  1.0000 -0.1988852181
C   C16       1.0  0.28050  0.61450  0.03676  1.0000 -0.1988852181
C   C17       1.0  0.23803  0.79650  0.49516  1.0000 0.0907170333
C   C18       1.0  0.76197  0.29650  0.00484  1.0000 0.0907170333
C   C19       1.0  0.76197  0.20350  0.50484  1.0000 0.0907170333
C   C20       1.0  0.23803  0.70350  0.99516  1.0000 0.0907170333
C   C21       1.0  0.31812  0.11520  0.56668  1.0000 0.0499065906
C   C22       1.0  0.68188  0.61520  0.93332  1.0000 0.0499065906
C   C23       1.0  0.68188  0.88480  0.43332  1.0000 0.0499065906
C   C24       1.0  0.31812  0.38480  0.06668  1.0000 0.0499065906
C   C25       1.0  0.37758  0.20640  0.56753  1.0000 -0.1219849334
C   C26       1.0  0.62242  0.70640  0.93247  1.0000 -0.1219849334
C   C27       1.0  0.62242  0.79360  0.43247  1.0000 -0.1219849334
C   C28       1.0  0.37758  0.29360  0.06753  1.0000 -0.1219849334
C   C29       1.0  0.41724  0.30030  0.60700  1.0000 -0.1811771611
C   C30       1.0  0.58276  0.80030  0.89300  1.0000 -0.1811771611
C   C31       1.0  0.58276  0.69970  0.39300  1.0000 -0.1811771611
C   C32       1.0  0.41724  0.19970  0.10700  1.0000 -0.1811771611
C   C33       1.0  0.39928  0.30620  0.64791  1.0000 0.1756206817
C   C34       1.0  0.60072  0.80620  0.85209  1.0000 0.1756206817
C   C35       1.0  0.60072  0.69380  0.35209  1.0000 0.1756206817
C   C36       1.0  0.39928  0.19380  0.14791  1.0000 0.1756206817
C   C37       1.0  0.34057  0.21440  0.64769  1.0000 -0.1811771611
C   C38       1.0  0.65943  0.71440  0.85231  1.0000 -0.1811771611
C   C39       1.0  0.65943  0.78560  0.35231  1.0000 -0.1811771611
C   C40       1.0  0.34057  0.28560  0.14769  1.0000 -0.1811771611
C   C41       1.0  0.30078  0.11900  0.60814  1.0000 -0.1386597723
C   C42       1.0  0.69922  0.61900  0.89186  1.0000 -0.1386597723
C   C43       1.0  0.69922  0.88100  0.39186  1.0000 -0.1386597723
C   C44       1.0  0.30078  0.38100  0.10814  1.0000 -0.1386597723
C   C45       1.0  0.92133  0.73630  0.77404  1.0000 0.057606483
C   C46       1.0  0.07867  0.23630  0.72596  1.0000 0.057606483
C   C47       1.0  0.07867  0.26370  0.22596  1.0000 0.057606483
C   C48       1.0  0.92133  0.76370  0.27404  1.0000 0.057606483
C   C49       1.0  0.83405  0.68000  0.74857  1.0000 -0.157437642
C   C50       1.0  0.16595  0.18000  0.75143  1.0000 -0.157437642
C   C51       1.0  0.16595  0.32000  0.25143  1.0000 -0.157437642
C   C52       1.0  0.83405  0.82000  0.24857  1.0000 -0.157437642
C   C53       1.0  0.80824  0.61920  0.77853  1.0000 0.1100664585
C   C54       1.0  0.19176  0.11920  0.72147  1.0000 0.1100664585
C   C55       1.0  0.19176  0.38080  0.22147  1.0000 0.1100664585
C   C56       1.0  0.80824  0.88080  0.27853  1.0000 0.1100664585
C   C57       1.0  0.87418  0.61070  0.83658  1.0000 -0.1988852181
C   C58       1.0  0.12582  0.11070  0.66342  1.0000 -0.1988852181
C   C59       1.0  0.12582  0.38930  0.16342  1.0000 -0.1988852181
C   C60       1.0  0.87418  0.88930  0.33658  1.0000 -0.1988852181
C   C61       1.0  0.96371  0.66330  0.86183  1.0000 0.0800299729
C   C62       1.0  0.03629  0.16330  0.63817  1.0000 0.0800299729
C   C63       1.0  0.03629  0.33670  0.13817  1.0000 0.0800299729
C   C64       1.0  0.96371  0.83670  0.36183  1.0000 0.0800299729
C   C65       1.0  0.70951  0.56060  0.74868  1.0000 0.057606483
C   C66       1.0  0.29049  0.06060  0.75132  1.0000 0.057606483
C   C67       1.0  0.29049  0.43940  0.25132  1.0000 0.057606483
C   C68       1.0  0.70951  0.93940  0.24868  1.0000 0.057606483
C   C69       1.0  0.70197  0.43370  0.75685  1.0000 -0.1334401861
C   C70       1.0  0.29803  0.93370  0.74315  1.0000 -0.1334401861
C   C71       1.0  0.29803  0.56630  0.24315  1.0000 -0.1334401861
C   C72       1.0  0.70197  0.06630  0.25685  1.0000 -0.1334401861
C   C73       1.0  0.61187  0.38090  0.73545  1.0000 -0.1811771611
C   C74       1.0  0.38813  0.88090  0.76455  1.0000 -0.1811771611
C   C75       1.0  0.38813  0.61910  0.26455  1.0000 -0.1811771611
C   C76       1.0  0.61187  0.11910  0.23545  1.0000 -0.1811771611
C   C77       1.0  0.52965  0.45550  0.70608  1.0000 0.1590868413
C   C78       1.0  0.47035  0.95550  0.79392  1.0000 0.1590868413
C   C79       1.0  0.47035  0.54450  0.29392  1.0000 0.1590868413
C   C80       1.0  0.52965  0.04450  0.20608  1.0000 0.1590868413
C   C81       1.0  0.53743  0.58320  0.69799  1.0000 -0.1811771611
C   C82       1.0  0.46257  0.08320  0.80201  1.0000 -0.1811771611
C   C83       1.0  0.46257  0.41680  0.30201  1.0000 -0.1811771611
C   C84       1.0  0.53743  0.91680  0.19799  1.0000 -0.1811771611
C   C85       1.0  0.62742  0.63540  0.71916  1.0000 -0.1386597723
C   C86       1.0  0.37258  0.13540  0.78084  1.0000 -0.1386597723
C   C87       1.0  0.37258  0.36460  0.28084  1.0000 -0.1386597723
C   C88       1.0  0.62742  0.86460  0.21916  1.0000 -0.1386597723
C   C89       1.0  0.27933  0.69840  0.86768  1.0000 0.057606483
C   C90       1.0  0.72067  0.19840  0.63232  1.0000 0.057606483
C   C91       1.0  0.72067  0.30160  0.13232  1.0000 0.057606483
C   C92       1.0  0.27933  0.80160  0.36768  1.0000 0.057606483
C   C93       1.0  0.31832  0.64730  0.84435  1.0000 -0.1811771611
C   C94       1.0  0.68168  0.14730  0.65565  1.0000 -0.1811771611
C   C95       1.0  0.68168  0.35270  0.15565  1.0000 -0.1811771611
C   C96       1.0  0.31832  0.85270  0.34435  1.0000 -0.1811771611
C   C97       1.0  0.26310  0.61460  0.78629  1.0000 0.1100664585
C   C98       1.0  0.73690  0.11460  0.71371  1.0000 0.1100664585
C   C99       1.0  0.73690  0.38540  0.21371  1.0000 0.1100664585
C   C100      1.0  0.26310  0.88540  0.28629  1.0000 0.1100664585
C   C101      1.0  0.16524  0.64250  0.75582  1.0000 -0.1724286647
C   C102      1.0  0.83476  0.14250  0.74418  1.0000 -0.1724286647
C   C103      1.0  0.83476  0.35750  0.24418  1.0000 -0.1724286647
C   C104      1.0  0.16524  0.85750  0.25582  1.0000 -0.1724286647
C   C105      1.0  0.12674  0.69720  0.78040  1.0000 0.0743061594
C   C106      1.0  0.87326  0.19720  0.71960  1.0000 0.0743061594
C   C107      1.0  0.87326  0.30280  0.21960  1.0000 0.0743061594
C   C108      1.0  0.12674  0.80280  0.28040  1.0000 0.0743061594
C   C109      1.0  0.30930  0.55340  0.76142  1.0000 0.0446592859
C   C110      1.0  0.69070  0.05340  0.73858  1.0000 0.0446592859
C   C111      1.0  0.69070  0.44660  0.23858  1.0000 0.0446592859
C   C112      1.0  0.30930  0.94660  0.26142  1.0000 0.0446592859
C   C113      1.0  0.41035  0.52670  0.79196  1.0000 -0.1386597723
C   C114      1.0  0.58965  0.02670  0.70804  1.0000 -0.1386597723
C   C115      1.0  0.58965  0.47330  0.20804  1.0000 -0.1386597723
C   C116      1.0  0.41035  0.97330  0.29196  1.0000 -0.1386597723
C   C117      1.0  0.45064  0.47770  0.76792  1.0000 -0.1811771611
C   C118      1.0  0.54936  0.97770  0.73208  1.0000 -0.1811771611
C   C119      1.0  0.54936  0.52230  0.23208  1.0000 -0.1811771611
C   C120      1.0  0.45064  0.02230  0.26792  1.0000 -0.1811771611
C   C121      1.0  0.39380  0.44860  0.71163  1.0000 0.1717833831
C   C122      1.0  0.60620  0.94860  0.78837  1.0000 0.1717833831
C   C123      1.0  0.60620  0.55140  0.28837  1.0000 0.1717833831
C   C124      1.0  0.39380  0.05140  0.21163  1.0000 0.1717833831
C   C125      1.0  0.29483  0.47370  0.67987  1.0000 -0.1811771611
C   C126      1.0  0.70517  0.97370  0.82013  1.0000 -0.1811771611
C   C127      1.0  0.70517  0.52630  0.32013  1.0000 -0.1811771611
C   C128      1.0  0.29483  0.02630  0.17987  1.0000 -0.1811771611
C   C129      1.0  0.25372  0.52510  0.70488  1.0000 -0.1219849334
C   C130      1.0  0.74628  0.02510  0.79512  1.0000 -0.1219849334
C   C131      1.0  0.74628  0.47490  0.29512  1.0000 -0.1219849334
C   C132      1.0  0.25372  0.97490  0.20488  1.0000 -0.1219849334
C   C133      1.0  0.03384  0.51240  0.41383  1.0000 0.5826222963
C   C134      1.0  0.96616  0.01240  0.08617  1.0000 0.5826222963
C   C135      1.0  0.96616  0.48760  0.58617  1.0000 0.5826222963
C   C136      1.0  0.03384  0.98760  0.91383  1.0000 0.5826222963
C   C137      1.0  0.09414  0.47110  0.51407  1.0000 -0.1811771611
C   C138      1.0  0.90586  0.97110  0.98593  1.0000 -0.1811771611
C   C139      1.0  0.90586  0.52890  0.48593  1.0000 -0.1811771611
C   C140      1.0  0.09414  0.02890  0.01407  1.0000 -0.1811771611
C   C141      1.0  0.00449  0.48120  0.45186  1.0000 -0.1219849334
C   C142      1.0  0.99551  0.98120  0.04814  1.0000 -0.1219849334
C   C143      1.0  0.99551  0.51880  0.54814  1.0000 -0.1219849334
C   C144      1.0  0.00449  0.01880  0.95186  1.0000 -0.1219849334
C   C145      1.0  0.94964  0.59710  0.45550  1.0000 -0.1811771611
C   C146      1.0  0.05036  0.09710  0.04450  1.0000 -0.1811771611
C   C147      1.0  0.05036  0.40290  0.54450  1.0000 -0.1811771611
C   C148      1.0  0.94964  0.90290  0.95550  1.0000 -0.1811771611
C   C149      1.0  0.29023  0.50530  0.41716  1.0000 0.561988718
C   C150      1.0  0.70977  0.00530  0.08284  1.0000 0.561988718
C   C151      1.0  0.70977  0.49470  0.58284  1.0000 0.561988718
C   C152      1.0  0.29023  0.99470  0.91716  1.0000 0.561988718
C   C153      1.0  0.45781  0.49450  0.44010  1.0000 -0.1903224707
C   C154      1.0  0.54219  0.99450  0.05990  1.0000 -0.1903224707
C   C155      1.0  0.54219  0.50550  0.55990  1.0000 -0.1903224707
C   C156      1.0  0.45781  0.00550  0.94010  1.0000 -0.1903224707
C   C157      1.0  0.39665  0.47270  0.46041  1.0000 -0.1069096708
C   C158      1.0  0.60335  0.97270  0.03959  1.0000 -0.1069096708
C   C159      1.0  0.60335  0.52730  0.53959  1.0000 -0.1069096708
C   C160      1.0  0.39665  0.02730  0.96041  1.0000 -0.1069096708
C   C161      1.0  0.43950  0.53970  0.51793  1.0000 -0.1811771611
C   C162      1.0  0.56050  0.03970  0.98207  1.0000 -0.1811771611
C   C163      1.0  0.56050  0.46030  0.48207  1.0000 -0.1811771611
C   C164      1.0  0.43950  0.96030  0.01793  1.0000 -0.1811771611
N   N1        1.0  0.18891  0.83080  0.43971  1.0000 -0.2392070227
N   N2        1.0  0.81109  0.33080  0.06029  1.0000 -0.2392070227
N   N3        1.0  0.81109  0.16920  0.56029  1.0000 -0.2392070227
N   N4        1.0  0.18891  0.66920  0.93971  1.0000 -0.2392070227
N   N5        1.0  0.98915  0.72710  0.83100  1.0000 -0.2564259813
N   N6        1.0  0.01085  0.22710  0.66900  1.0000 -0.2564259813
N   N7        1.0  0.01085  0.27290  0.16900  1.0000 -0.2564259813
N   N8        1.0  0.98915  0.77290  0.33100  1.0000 -0.2564259813
N   N9        1.0  0.18143  0.72620  0.83611  1.0000 -0.2564259813
N   N10       1.0  0.81857  0.22620  0.66389  1.0000 -0.2564259813
N   N11       1.0  0.81857  0.27380  0.16389  1.0000 -0.2564259813
N   N12       1.0  0.18143  0.77380  0.33611  1.0000 -0.2564259813
N   N13       1.0  0.43958  0.40380  0.68731  1.0000 -0.1505986758
N   N14       1.0  0.56042  0.90380  0.81269  1.0000 -0.1505986758
N   N15       1.0  0.56042  0.59620  0.31269  1.0000 -0.1505986758
N   N16       1.0  0.43958  0.09620  0.18731  1.0000 -0.1505986758
O   O1        1.0  0.08672  0.60380  0.42408  1.0000 -0.5316266798
O   O2        1.0  0.91328  0.10380  0.07592  1.0000 -0.5316266798
O   O3        1.0  0.91328  0.39620  0.57592  1.0000 -0.5316266798
O   O4        1.0  0.08672  0.89620  0.92408  1.0000 -0.5316266798
O   O5        1.0  0.00243  0.43740  0.37295  1.0000 -0.6084117972
O   O6        1.0  0.99757  0.93740  0.12705  1.0000 -0.6084117972
O   O7        1.0  0.99757  0.56260  0.62705  1.0000 -0.6084117972
O   O8        1.0  0.00243  0.06260  0.87295  1.0000 -0.6084117972
O   O9        1.0  0.25837  0.59733  0.42718  1.0000 -0.5354442381
O   O10       1.0  0.74163  0.09733  0.07282  1.0000 -0.5354442381
O   O11       1.0  0.74163  0.40267  0.57282  1.0000 -0.5354442381
O   O12       1.0  0.25837  0.90267  0.92718  1.0000 -0.5354442381
O   O13       1.0  0.24536  0.43633  0.37461  1.0000 -0.6025338702
O   O14       1.0  0.75464  0.93633  0.12539  1.0000 -0.6025338702
O   O15       1.0  0.75464  0.56367  0.62539  1.0000 -0.6025338702
O   O16       1.0  0.24536  0.06367  0.87461  1.0000 -0.6025338702
