# DDEC6 charges by PACMAN v1.1 (https://github.com/mtap-research/PACMAN-charge/)
data_2012[Zn][nan]3[ASR]12
_chemical_formula_sum              "Zn6 H6 C24 O18"
_cell_length_a       15.2762
_cell_length_b       15.2762
_cell_length_c       15.2762
_cell_angle_alpha    117.93
_cell_angle_beta     117.93
_cell_angle_gamma    117.93

_symmetry_space_group_name_H-M    "P 1"
_symmetry_Int_Tables_number       1

loop_
  _symmetry_equiv_pos_as_xyz
  'x, y, z'

loop_
  _atom_site_type_symbol
  _atom_site_label
  _atom_site_symmetry_multiplicity
  _atom_site_fract_x
  _atom_site_fract_y
  _atom_site_fract_z
  _atom_site_occupancy
  _atom_site_charge
Zn  Zn1       1.0  0.11489  0.54001  0.80143  1.0000 0.9857805675
Zn  Zn2       1.0  0.54001  0.80143  0.11489  1.0000 0.9857805675
Zn  Zn3       1.0  0.80143  0.11489  0.54001  1.0000 0.9857805675
Zn  Zn4       1.0  0.88511  0.45999  0.19857  1.0000 0.9857805675
Zn  Zn5       1.0  0.45999  0.19857  0.88511  1.0000 0.9857805675
Zn  Zn6       1.0  0.19857  0.88511  0.45999  1.0000 0.9857805675
H   H1        1.0  0.64533  0.18706  0.62212  1.0000 0.1298156784
H   H2        1.0  0.18706  0.62212  0.64533  1.0000 0.1298156784
H   H3        1.0  0.62212  0.64533  0.18706  1.0000 0.1298156784
H   H4        1.0  0.35467  0.81294  0.37788  1.0000 0.1298156784
H   H5        1.0  0.81294  0.37788  0.35467  1.0000 0.1298156784
H   H6        1.0  0.37788  0.35467  0.81294  1.0000 0.1298156784
C   C1        1.0  0.16875  0.61069  0.08393  1.0000 -0.1445194676
C   C2        1.0  0.61069  0.08393  0.16875  1.0000 -0.1445194676
C   C3        1.0  0.08393  0.16875  0.61069  1.0000 -0.1445194676
C   C4        1.0  0.83125  0.38931  0.91607  1.0000 -0.1445194676
C   C5        1.0  0.38931  0.91607  0.83125  1.0000 -0.1445194676
C   C6        1.0  0.91607  0.83125  0.38931  1.0000 -0.1445194676
C   C7        1.0  0.96913  0.43455  0.87124  1.0000 0.2877984946
C   C8        1.0  0.43455  0.87124  0.96913  1.0000 0.2877984946
C   C9        1.0  0.87124  0.96913  0.43455  1.0000 0.2877984946
C   C10       1.0  0.03087  0.56545  0.12876  1.0000 0.2877984946
C   C11       1.0  0.56545  0.12876  0.03087  1.0000 0.2877984946
C   C12       1.0  0.12876  0.03087  0.56545  1.0000 0.2877984946
C   C13       1.0  0.80037  0.32387  0.78732  1.0000 -0.198357507
C   C14       1.0  0.32387  0.78732  0.80037  1.0000 -0.198357507
C   C15       1.0  0.78732  0.80037  0.32387  1.0000 -0.198357507
C   C16       1.0  0.19963  0.67613  0.21268  1.0000 -0.198357507
C   C17       1.0  0.67613  0.21268  0.19963  1.0000 -0.198357507
C   C18       1.0  0.21268  0.19963  0.67613  1.0000 -0.198357507
C   C19       1.0  0.35023  0.72973  0.17419  1.0000 0.6379011974
C   C20       1.0  0.72973  0.17419  0.35023  1.0000 0.6379011974
C   C21       1.0  0.17419  0.35023  0.72973  1.0000 0.6379011974
C   C22       1.0  0.64977  0.27027  0.82581  1.0000 0.6379011974
C   C23       1.0  0.27027  0.82581  0.64977  1.0000 0.6379011974
C   C24       1.0  0.82581  0.64977  0.27027  1.0000 0.6379011974
O   O1        1.0  0.32238  0.67072  0.05810  1.0000 -0.5709073637
O   O2        1.0  0.67072  0.05810  0.32238  1.0000 -0.5709073637
O   O3        1.0  0.05810  0.32238  0.67072  1.0000 -0.5709073637
O   O4        1.0  0.67762  0.32928  0.94190  1.0000 -0.5709073637
O   O5        1.0  0.32928  0.94190  0.67762  1.0000 -0.5709073637
O   O6        1.0  0.94190  0.67762  0.32928  1.0000 -0.5709073637
O   O7        1.0  0.53021  0.88854  0.36595  1.0000 -0.5208587542
O   O8        1.0  0.88854  0.36595  0.53021  1.0000 -0.5208587542
O   O9        1.0  0.36595  0.53021  0.88854  1.0000 -0.5208587542
O   O10       1.0  0.46979  0.11146  0.63405  1.0000 -0.5208587542
O   O11       1.0  0.11146  0.63405  0.46979  1.0000 -0.5208587542
O   O12       1.0  0.63405  0.46979  0.11146  1.0000 -0.5208587542
O   O13       1.0  0.93923  0.37120  0.74657  1.0000 -0.6066528454
O   O14       1.0  0.37120  0.74657  0.93923  1.0000 -0.6066528454
O   O15       1.0  0.74657  0.93923  0.37120  1.0000 -0.6066528454
O   O16       1.0  0.06077  0.62880  0.25343  1.0000 -0.6066528454
O   O17       1.0  0.62880  0.25343  0.06077  1.0000 -0.6066528454
O   O18       1.0  0.25343  0.06077  0.62880  1.0000 -0.6066528454
