# DDEC6 charges by PACMAN v1.1 (https://github.com/mtap-research/PACMAN-charge/)
data_2012[CuU][sqc]3[ASR]1
_chemical_formula_sum              "U1 Cu1 H2 C10 O10"
_cell_length_a       7.107
_cell_length_b       7.2234
_cell_length_c       9.205
_cell_angle_alpha    95.377
_cell_angle_beta     91.256
_cell_angle_gamma    114.893

_symmetry_space_group_name_H-M    "P 1"
_symmetry_Int_Tables_number       1

loop_
  _symmetry_equiv_pos_as_xyz
  'x, y, z'

loop_
  _atom_site_type_symbol
  _atom_site_label
  _atom_site_symmetry_multiplicity
  _atom_site_fract_x
  _atom_site_fract_y
  _atom_site_fract_z
  _atom_site_occupancy
  _atom_site_charge
U   U1        1.0  0.50000  0.50000  0.50000  1.0000 2.4248177173
Cu  Cu1       1.0  0.00000  0.00000  0.50000  1.0000 0.9557720783
H   H1        1.0  0.71140  0.56860  0.02680  1.0000 0.1380807074
H   H2        1.0  0.28860  0.43140  0.97320  1.0000 0.1380807074
C   C1        1.0  0.95860  0.56720  0.13761  1.0000 -0.0305294742
C   C2        1.0  0.04140  0.43280  0.86239  1.0000 -0.0305294742
C   C3        1.0  0.90620  0.64490  0.28184  1.0000 0.6401651862
C   C4        1.0  0.09380  0.35510  0.71816  1.0000 0.6401651862
C   C5        1.0  0.13220  0.52470  0.12236  1.0000 -0.0305294742
C   C6        1.0  0.86780  0.47530  0.87764  1.0000 -0.0305294742
C   C7        1.0  0.82750  0.54150  0.01603  1.0000 -0.0992926371
C   C8        1.0  0.17250  0.45850  0.98397  1.0000 -0.0992926371
C   C9        1.0  0.27010  0.53910  0.25138  1.0000 0.5590758684
C   C10       1.0  0.72990  0.46090  0.74862  1.0000 0.5590758684
O   O1        1.0  0.77790  0.51482  0.35368  1.0000 -0.5782523391
O   O2        1.0  0.22210  0.48518  0.64632  1.0000 -0.5782523391
O   O3        1.0  0.23970  0.59930  0.37788  1.0000 -0.512237483
O   O4        1.0  0.76030  0.40070  0.62212  1.0000 -0.512237483
O   O5        1.0  0.98980  0.83687  0.31375  1.0000 -0.5219175455
O   O6        1.0  0.01020  0.16313  0.68625  1.0000 -0.5219175455
O   O7        1.0  0.41570  0.48270  0.23425  1.0000 -0.5335604188
O   O8        1.0  0.58430  0.51730  0.76575  1.0000 -0.5335604188
O   O9        1.0  0.35860  0.22940  0.46335  1.0000 -0.7212972877
O   O10       1.0  0.64140  0.77060  0.53665  1.0000 -0.7212972877
