# DDEC6 charges by PACMAN v1.1 (https://github.com/mtap-research/PACMAN-charge/)
data_2012[Cu][tbo]3[ASR]3
_chemical_formula_sum              "Cu12 H24 C72 O48"
_cell_length_a       18.6026
_cell_length_b       18.6026
_cell_length_c       18.6026
_cell_angle_alpha    60
_cell_angle_beta     60
_cell_angle_gamma    60

_symmetry_space_group_name_H-M    "P 1"
_symmetry_Int_Tables_number       1

loop_
  _symmetry_equiv_pos_as_xyz
  'x, y, z'

loop_
  _atom_site_type_symbol
  _atom_site_label
  _atom_site_symmetry_multiplicity
  _atom_site_fract_x
  _atom_site_fract_y
  _atom_site_fract_z
  _atom_site_occupancy
  _atom_site_charge
Cu  Cu1       1.0  0.00000  0.57008  0.42992  1.0000 0.8534560214
Cu  Cu2       1.0  0.57008  0.42992  0.00000  1.0000 0.8534560214
Cu  Cu3       1.0  0.42992  0.00000  0.57008  1.0000 0.8534560214
Cu  Cu4       1.0  0.57008  0.00000  0.00000  1.0000 0.8534560214
Cu  Cu5       1.0  0.42992  0.57008  0.00000  1.0000 0.8534560214
Cu  Cu6       1.0  0.00000  0.42992  0.00000  1.0000 0.8534560214
Cu  Cu7       1.0  0.00000  0.00000  0.42992  1.0000 0.8534560214
Cu  Cu8       1.0  0.00000  0.57008  0.00000  1.0000 0.8534560214
Cu  Cu9       1.0  0.57008  0.00000  0.42992  1.0000 0.8534560214
Cu  Cu10      1.0  0.42992  0.00000  0.00000  1.0000 0.8534560214
Cu  Cu11      1.0  0.00000  0.00000  0.57008  1.0000 0.8534560214
Cu  Cu12      1.0  0.00000  0.42992  0.57008  1.0000 0.8534560214
H   H1        1.0  0.27000  0.48720  0.27000  1.0000 0.136270567
H   H2        1.0  0.48720  0.27000  0.27000  1.0000 0.136270567
H   H3        1.0  0.27000  0.27000  0.48720  1.0000 0.136270567
H   H4        1.0  0.48720  0.27000  0.97280  1.0000 0.136270567
H   H5        1.0  0.27000  0.48720  0.97280  1.0000 0.136270567
H   H6        1.0  0.27000  0.27000  0.97280  1.0000 0.136270567
H   H7        1.0  0.97280  0.27000  0.27000  1.0000 0.136270567
H   H8        1.0  0.97280  0.48720  0.27000  1.0000 0.136270567
H   H9        1.0  0.48720  0.97280  0.27000  1.0000 0.136270567
H   H10       1.0  0.27000  0.97280  0.27000  1.0000 0.136270567
H   H11       1.0  0.27000  0.97280  0.48720  1.0000 0.136270567
H   H12       1.0  0.97280  0.27000  0.48720  1.0000 0.136270567
H   H13       1.0  0.51280  0.73000  0.73000  1.0000 0.136270567
H   H14       1.0  0.73000  0.51280  0.73000  1.0000 0.136270567
H   H15       1.0  0.73000  0.73000  0.51280  1.0000 0.136270567
H   H16       1.0  0.73000  0.51280  0.02720  1.0000 0.136270567
H   H17       1.0  0.51280  0.73000  0.02720  1.0000 0.136270567
H   H18       1.0  0.73000  0.73000  0.02720  1.0000 0.136270567
H   H19       1.0  0.73000  0.02720  0.73000  1.0000 0.136270567
H   H20       1.0  0.51280  0.02720  0.73000  1.0000 0.136270567
H   H21       1.0  0.02720  0.51280  0.73000  1.0000 0.136270567
H   H22       1.0  0.02720  0.73000  0.73000  1.0000 0.136270567
H   H23       1.0  0.02720  0.73000  0.51280  1.0000 0.136270567
H   H24       1.0  0.73000  0.02720  0.51280  1.0000 0.136270567
C   C1        1.0  0.30000  0.42882  0.30000  1.0000 -0.0879367756
C   C2        1.0  0.42882  0.30000  0.30000  1.0000 -0.0879367756
C   C3        1.0  0.30000  0.30000  0.42882  1.0000 -0.0879367756
C   C4        1.0  0.42882  0.30000  0.97118  1.0000 -0.0879367756
C   C5        1.0  0.30000  0.42882  0.97118  1.0000 -0.0879367756
C   C6        1.0  0.30000  0.30000  0.97118  1.0000 -0.0879367756
C   C7        1.0  0.97118  0.30000  0.30000  1.0000 -0.0879367756
C   C8        1.0  0.97118  0.42882  0.30000  1.0000 -0.0879367756
C   C9        1.0  0.42882  0.97118  0.30000  1.0000 -0.0879367756
C   C10       1.0  0.30000  0.97118  0.30000  1.0000 -0.0879367756
C   C11       1.0  0.30000  0.97118  0.42882  1.0000 -0.0879367756
C   C12       1.0  0.97118  0.30000  0.42882  1.0000 -0.0879367756
C   C13       1.0  0.57118  0.70000  0.70000  1.0000 -0.0879367756
C   C14       1.0  0.70000  0.57118  0.70000  1.0000 -0.0879367756
C   C15       1.0  0.70000  0.70000  0.57118  1.0000 -0.0879367756
C   C16       1.0  0.70000  0.57118  0.02882  1.0000 -0.0879367756
C   C17       1.0  0.57118  0.70000  0.02882  1.0000 -0.0879367756
C   C18       1.0  0.70000  0.70000  0.02882  1.0000 -0.0879367756
C   C19       1.0  0.70000  0.02882  0.70000  1.0000 -0.0879367756
C   C20       1.0  0.57118  0.02882  0.70000  1.0000 -0.0879367756
C   C21       1.0  0.02882  0.57118  0.70000  1.0000 -0.0879367756
C   C22       1.0  0.02882  0.70000  0.70000  1.0000 -0.0879367756
C   C23       1.0  0.02882  0.70000  0.57118  1.0000 -0.0879367756
C   C24       1.0  0.70000  0.02882  0.57118  1.0000 -0.0879367756
C   C25       1.0  0.25752  0.38600  0.38600  1.0000 -0.0251414448
C   C26       1.0  0.38600  0.38600  0.25752  1.0000 -0.0251414448
C   C27       1.0  0.38600  0.25752  0.38600  1.0000 -0.0251414448
C   C28       1.0  0.38600  0.25752  0.97048  1.0000 -0.0242164608
C   C29       1.0  0.38600  0.38600  0.97048  1.0000 -0.0242164608
C   C30       1.0  0.25752  0.38600  0.97048  1.0000 -0.0242164608
C   C31       1.0  0.97048  0.25752  0.38600  1.0000 -0.0251414448
C   C32       1.0  0.97048  0.38600  0.25752  1.0000 -0.0251414448
C   C33       1.0  0.38600  0.97048  0.38600  1.0000 -0.0242164608
C   C34       1.0  0.38600  0.97048  0.25752  1.0000 -0.0251414448
C   C35       1.0  0.25752  0.97048  0.38600  1.0000 -0.0251414448
C   C36       1.0  0.97048  0.38600  0.38600  1.0000 -0.0251414448
C   C37       1.0  0.61400  0.74248  0.61400  1.0000 -0.0242164608
C   C38       1.0  0.61400  0.61400  0.74248  1.0000 -0.0242164608
C   C39       1.0  0.74248  0.61400  0.61400  1.0000 -0.0251414448
C   C40       1.0  0.74248  0.61400  0.02952  1.0000 -0.0242164608
C   C41       1.0  0.61400  0.61400  0.02952  1.0000 -0.0242164608
C   C42       1.0  0.61400  0.74248  0.02952  1.0000 -0.0242164608
C   C43       1.0  0.74248  0.02952  0.61400  1.0000 -0.0251414448
C   C44       1.0  0.61400  0.02952  0.74248  1.0000 -0.0251414448
C   C45       1.0  0.02952  0.61400  0.61400  1.0000 -0.0251414448
C   C46       1.0  0.02952  0.61400  0.74248  1.0000 -0.0242164608
C   C47       1.0  0.02952  0.74248  0.61400  1.0000 -0.0242164608
C   C48       1.0  0.61400  0.02952  0.61400  1.0000 -0.0251414448
C   C49       1.0  0.16194  0.43010  0.43010  1.0000 0.5804275658
C   C50       1.0  0.43010  0.43010  0.16194  1.0000 0.5804275658
C   C51       1.0  0.43010  0.16194  0.43010  1.0000 0.5804275658
C   C52       1.0  0.43010  0.16194  0.97786  1.0000 0.5804275658
C   C53       1.0  0.43010  0.43010  0.97786  1.0000 0.5804275658
C   C54       1.0  0.16194  0.43010  0.97786  1.0000 0.5804275658
C   C55       1.0  0.97786  0.16194  0.43010  1.0000 0.5804275658
C   C56       1.0  0.97786  0.43010  0.16194  1.0000 0.5804275658
C   C57       1.0  0.43010  0.97786  0.43010  1.0000 0.5804275658
C   C58       1.0  0.43010  0.97786  0.16194  1.0000 0.5804275658
C   C59       1.0  0.16194  0.97786  0.43010  1.0000 0.5804275658
C   C60       1.0  0.97786  0.43010  0.43010  1.0000 0.5804275658
C   C61       1.0  0.56990  0.83806  0.56990  1.0000 0.5804275658
C   C62       1.0  0.56990  0.56990  0.83806  1.0000 0.5804275658
C   C63       1.0  0.83806  0.56990  0.56990  1.0000 0.5804275658
C   C64       1.0  0.83806  0.56990  0.02214  1.0000 0.5804275658
C   C65       1.0  0.56990  0.56990  0.02214  1.0000 0.5804275658
C   C66       1.0  0.56990  0.83806  0.02214  1.0000 0.5804275658
C   C67       1.0  0.83806  0.02214  0.56990  1.0000 0.5804275658
C   C68       1.0  0.56990  0.02214  0.83806  1.0000 0.5804275658
C   C69       1.0  0.02214  0.56990  0.56990  1.0000 0.5804275658
C   C70       1.0  0.02214  0.56990  0.83806  1.0000 0.5804275658
C   C71       1.0  0.02214  0.83806  0.56990  1.0000 0.5804275658
C   C72       1.0  0.56990  0.02214  0.56990  1.0000 0.5804275658
O   O1        1.0  0.12556  0.50712  0.38720  1.0000 -0.5158028194
O   O2        1.0  0.50712  0.38720  0.12556  1.0000 -0.5158028194
O   O3        1.0  0.38720  0.12556  0.50712  1.0000 -0.51413529
O   O4        1.0  0.50712  0.12556  0.98012  1.0000 -0.5158028194
O   O5        1.0  0.38720  0.50712  0.98012  1.0000 -0.5158028194
O   O6        1.0  0.12556  0.38720  0.98012  1.0000 -0.5158028194
O   O7        1.0  0.98012  0.12556  0.38720  1.0000 -0.5158028194
O   O8        1.0  0.98012  0.50712  0.12556  1.0000 -0.51413529
O   O9        1.0  0.50712  0.98012  0.38720  1.0000 -0.5158028194
O   O10       1.0  0.38720  0.98012  0.12556  1.0000 -0.5158028194
O   O11       1.0  0.12556  0.98012  0.50712  1.0000 -0.51413529
O   O12       1.0  0.98012  0.38720  0.50712  1.0000 -0.51413529
O   O13       1.0  0.49288  0.87444  0.61280  1.0000 -0.5158028194
O   O14       1.0  0.61280  0.49288  0.87444  1.0000 -0.5158028194
O   O15       1.0  0.87444  0.61280  0.49288  1.0000 -0.51413529
O   O16       1.0  0.87444  0.49288  0.01988  1.0000 -0.5158028194
O   O17       1.0  0.49288  0.61280  0.01988  1.0000 -0.5158028194
O   O18       1.0  0.61280  0.87444  0.01988  1.0000 -0.5158028194
O   O19       1.0  0.87444  0.01988  0.61280  1.0000 -0.5158028194
O   O20       1.0  0.49288  0.01988  0.87444  1.0000 -0.5158028194
O   O21       1.0  0.01988  0.49288  0.61280  1.0000 -0.5158028194
O   O22       1.0  0.01988  0.61280  0.87444  1.0000 -0.5158028194
O   O23       1.0  0.01988  0.87444  0.49288  1.0000 -0.51413529
O   O24       1.0  0.61280  0.01988  0.49288  1.0000 -0.5158028194
O   O25       1.0  0.87444  0.49288  0.61280  1.0000 -0.5158028194
O   O26       1.0  0.49288  0.61280  0.87444  1.0000 -0.5158028194
O   O27       1.0  0.61280  0.87444  0.49288  1.0000 -0.51413529
O   O28       1.0  0.49288  0.87444  0.01988  1.0000 -0.5158028194
O   O29       1.0  0.61280  0.49288  0.01988  1.0000 -0.5158028194
O   O30       1.0  0.87444  0.61280  0.01988  1.0000 -0.5158028194
O   O31       1.0  0.01988  0.87444  0.61280  1.0000 -0.5158028194
O   O32       1.0  0.01988  0.49288  0.87444  1.0000 -0.5158028194
O   O33       1.0  0.49288  0.01988  0.61280  1.0000 -0.5158028194
O   O34       1.0  0.61280  0.01988  0.87444  1.0000 -0.5158028194
O   O35       1.0  0.87444  0.01988  0.49288  1.0000 -0.51413529
O   O36       1.0  0.01988  0.61280  0.49288  1.0000 -0.5158028194
O   O37       1.0  0.50712  0.12556  0.38720  1.0000 -0.5158028194
O   O38       1.0  0.38720  0.50712  0.12556  1.0000 -0.5158028194
O   O39       1.0  0.12556  0.38720  0.50712  1.0000 -0.51413529
O   O40       1.0  0.12556  0.50712  0.98012  1.0000 -0.5158028194
O   O41       1.0  0.50712  0.38720  0.98012  1.0000 -0.5158028194
O   O42       1.0  0.38720  0.12556  0.98012  1.0000 -0.5158028194
O   O43       1.0  0.12556  0.98012  0.38720  1.0000 -0.5158028194
O   O44       1.0  0.50712  0.98012  0.12556  1.0000 -0.5158028194
O   O45       1.0  0.98012  0.50712  0.38720  1.0000 -0.5158028194
O   O46       1.0  0.98012  0.38720  0.12556  1.0000 -0.51413529
O   O47       1.0  0.98012  0.12556  0.50712  1.0000 -0.51413529
O   O48       1.0  0.38720  0.98012  0.50712  1.0000 -0.51413529
