# DDEC6 charges by PACMAN v1.1 (https://github.com/mtap-research/PACMAN-charge/)
data_2012[Co][dia]3[ASR]4
_chemical_formula_sum              "Co2 H40 C48 N16"
_cell_length_a       14.352
_cell_length_b       14.352
_cell_length_c       6.2985
_cell_angle_alpha    90
_cell_angle_beta     90
_cell_angle_gamma    90

_symmetry_space_group_name_H-M    "P 1"
_symmetry_Int_Tables_number       1

loop_
  _symmetry_equiv_pos_as_xyz
  'x, y, z'

loop_
  _atom_site_type_symbol
  _atom_site_label
  _atom_site_symmetry_multiplicity
  _atom_site_fract_x
  _atom_site_fract_y
  _atom_site_fract_z
  _atom_site_occupancy
  _atom_site_charge
Co  Co1       1.0  0.50000  0.50000  0.00000  1.0000 0.3781831424
Co  Co2       1.0  0.00000  0.00000  0.50000  1.0000 0.4068702321
H   H1        1.0  0.71420  0.49470  0.92020  1.0000 0.1069391652
H   H2        1.0  0.28580  0.50530  0.92020  1.0000 0.1069391652
H   H3        1.0  0.50530  0.71420  0.07980  1.0000 0.1069391652
H   H4        1.0  0.49470  0.28580  0.07980  1.0000 0.1069391652
H   H5        1.0  0.53370  0.65730  0.63310  1.0000 0.1198042865
H   H6        1.0  0.46630  0.34270  0.63310  1.0000 0.1198042865
H   H7        1.0  0.34270  0.53370  0.36690  1.0000 0.1198042865
H   H8        1.0  0.65730  0.46630  0.36690  1.0000 0.1198042865
H   H9        1.0  0.80030  0.61850  0.28890  1.0000 0.1015103196
H   H10       1.0  0.19970  0.38150  0.28890  1.0000 0.1015103196
H   H11       1.0  0.38150  0.80030  0.71110  1.0000 0.1015103196
H   H12       1.0  0.61850  0.19970  0.71110  1.0000 0.1015103196
H   H13       1.0  0.84810  0.71220  0.01220  1.0000 0.1015103196
H   H14       1.0  0.15190  0.28780  0.01220  1.0000 0.1015103196
H   H15       1.0  0.28780  0.84810  0.98780  1.0000 0.1015103196
H   H16       1.0  0.71220  0.15190  0.98780  1.0000 0.1015103196
H   H17       1.0  0.66860  0.90980  0.19620  1.0000 0.1015103196
H   H18       1.0  0.33140  0.09020  0.19620  1.0000 0.1015103196
H   H19       1.0  0.09020  0.66860  0.80380  1.0000 0.1015103196
H   H20       1.0  0.90980  0.33140  0.80380  1.0000 0.1015103196
H   H21       1.0  0.61870  0.81650  0.47050  1.0000 0.1015103196
H   H22       1.0  0.38130  0.18350  0.47050  1.0000 0.1015103196
H   H23       1.0  0.18350  0.61870  0.52950  1.0000 0.1015103196
H   H24       1.0  0.81650  0.38130  0.52950  1.0000 0.1015103196
H   H25       1.0  0.93760  0.84980  0.85900  1.0000 0.1198042865
H   H26       1.0  0.06240  0.15020  0.85900  1.0000 0.1198042865
H   H27       1.0  0.15020  0.93760  0.14100  1.0000 0.1198042865
H   H28       1.0  0.84980  0.06240  0.14100  1.0000 0.1198042865
H   H29       1.0  0.78630  0.04190  0.58060  1.0000 0.1069391652
H   H30       1.0  0.21370  0.95810  0.58060  1.0000 0.1069391652
H   H31       1.0  0.95810  0.78630  0.41940  1.0000 0.1069391652
H   H32       1.0  0.04190  0.21370  0.41940  1.0000 0.1069391652
H   H33       1.0  0.79420  0.58440  0.66200  1.0000 0.2491402786
H   H34       1.0  0.20580  0.41560  0.66200  1.0000 0.2491402786
H   H35       1.0  0.41560  0.79420  0.33800  1.0000 0.2491402786
H   H36       1.0  0.58440  0.20580  0.33800  1.0000 0.2491402786
H   H37       1.0  0.69360  0.96380  0.83470  1.0000 0.2491402786
H   H38       1.0  0.30640  0.03620  0.83470  1.0000 0.2491402786
H   H39       1.0  0.03620  0.69360  0.16530  1.0000 0.2491402786
H   H40       1.0  0.96380  0.30640  0.16530  1.0000 0.2491402786
C   C1        1.0  0.68790  0.53870  0.82970  1.0000 0.1015103196
C   C2        1.0  0.31210  0.46130  0.82970  1.0000 0.1015103196
C   C3        1.0  0.46130  0.68790  0.17030  1.0000 0.1069391652
C   C4        1.0  0.53870  0.31210  0.17030  1.0000 0.1069391652
C   C5        1.0  0.67360  0.64710  0.58520  1.0000 0.0813701014
C   C6        1.0  0.32640  0.35290  0.58520  1.0000 0.0813701014
C   C7        1.0  0.35290  0.67360  0.41480  1.0000 0.0813701014
C   C8        1.0  0.64710  0.32640  0.41480  1.0000 0.0813701014
C   C9        1.0  0.58930  0.62870  0.67140  1.0000 -0.1214682822
C   C10       1.0  0.41070  0.37130  0.67140  1.0000 -0.1214682822
C   C11       1.0  0.37130  0.58930  0.32860  1.0000 -0.1214682822
C   C12       1.0  0.62870  0.41070  0.32860  1.0000 -0.1214682822
C   C13       1.0  0.70450  0.70750  0.41100  1.0000 0.0389655653
C   C14       1.0  0.29550  0.29250  0.41100  1.0000 0.0389655653
C   C15       1.0  0.29250  0.70450  0.58900  1.0000 0.0389655653
C   C16       1.0  0.70750  0.29550  0.58900  1.0000 0.0389655653
C   C17       1.0  0.77360  0.67700  0.27090  1.0000 -0.1777767603
C   C18       1.0  0.22640  0.32300  0.27090  1.0000 -0.1777767603
C   C19       1.0  0.32300  0.77360  0.72910  1.0000 -0.1777767603
C   C20       1.0  0.67700  0.22640  0.72910  1.0000 -0.1777767603
C   C21       1.0  0.80270  0.73360  0.10550  1.0000 -0.1777767603
C   C22       1.0  0.19730  0.26640  0.10550  1.0000 -0.1777767603
C   C23       1.0  0.26640  0.80270  0.89450  1.0000 -0.1777767603
C   C24       1.0  0.73360  0.19730  0.89450  1.0000 -0.1736748208
C   C25       1.0  0.76460  0.82240  0.07670  1.0000 0.0389655653
C   C26       1.0  0.23540  0.17760  0.07670  1.0000 0.0389655653
C   C27       1.0  0.17760  0.76460  0.92330  1.0000 0.0389655653
C   C28       1.0  0.82240  0.23540  0.92330  1.0000 0.0389655653
C   C29       1.0  0.69540  0.85140  0.21480  1.0000 -0.1736748208
C   C30       1.0  0.30460  0.14860  0.21480  1.0000 -0.1736748208
C   C31       1.0  0.14860  0.69540  0.78520  1.0000 -0.1736748208
C   C32       1.0  0.85140  0.30460  0.78520  1.0000 -0.1736748208
C   C33       1.0  0.66530  0.79540  0.37990  1.0000 -0.1736748208
C   C34       1.0  0.33470  0.20460  0.37990  1.0000 -0.1736748208
C   C35       1.0  0.20460  0.66530  0.62010  1.0000 -0.1777767603
C   C36       1.0  0.79540  0.33470  0.62010  1.0000 -0.1736748208
C   C37       1.0  0.80170  0.88210  0.90740  1.0000 0.0889391463
C   C38       1.0  0.19830  0.11790  0.90740  1.0000 0.0889391463
C   C39       1.0  0.11790  0.80170  0.09260  1.0000 0.0889391463
C   C40       1.0  0.88210  0.19830  0.09260  1.0000 0.0889391463
C   C41       1.0  0.88750  0.88750  0.82160  1.0000 -0.1263581802
C   C42       1.0  0.11250  0.11250  0.82160  1.0000 -0.1263581802
C   C43       1.0  0.11250  0.88750  0.17840  1.0000 -0.1263581802
C   C44       1.0  0.88750  0.11250  0.17840  1.0000 -0.1263581802
C   C45       1.0  0.80540  0.99330  0.66820  1.0000 0.1069391652
C   C46       1.0  0.19460  0.00670  0.66820  1.0000 0.1069391652
C   C47       1.0  0.00670  0.80540  0.33180  1.0000 0.1069391652
C   C48       1.0  0.99330  0.19460  0.33180  1.0000 0.1069391652
N   N1        1.0  0.59859  0.56058  0.82540  1.0000 -0.2908482243
N   N2        1.0  0.40141  0.43942  0.82540  1.0000 -0.2908482243
N   N3        1.0  0.43942  0.59859  0.17460  1.0000 -0.2908482243
N   N4        1.0  0.56058  0.40141  0.17460  1.0000 -0.2908482243
N   N5        1.0  0.73542  0.58833  0.68670  1.0000 -0.2405251477
N   N6        1.0  0.26458  0.41167  0.68670  1.0000 -0.2405251477
N   N7        1.0  0.41167  0.73542  0.31330  1.0000 -0.2405251477
N   N8        1.0  0.58833  0.26458  0.31330  1.0000 -0.2405251477
N   N9        1.0  0.89052  0.95729  0.66950  1.0000 -0.2908482243
N   N10       1.0  0.10948  0.04271  0.66950  1.0000 -0.2908482243
N   N11       1.0  0.04271  0.89052  0.33050  1.0000 -0.2908482243
N   N12       1.0  0.95729  0.10948  0.33050  1.0000 -0.2908482243
N   N13       1.0  0.75102  0.95060  0.80930  1.0000 -0.2405251477
N   N14       1.0  0.24898  0.04940  0.80930  1.0000 -0.2405251477
N   N15       1.0  0.04940  0.75102  0.19070  1.0000 -0.2405251477
N   N16       1.0  0.95060  0.24898  0.19070  1.0000 -0.2405251477
