# DDEC6 charges by PACMAN v1.1 (https://github.com/mtap-research/PACMAN-charge/)
data_2012[Co][nan]3[ASR]3
_chemical_formula_sum              "Co18 H60 C96 N6 O66"
_cell_length_a       23.4983
_cell_length_b       23.4983
_cell_length_c       11.0628
_cell_angle_alpha    90
_cell_angle_beta     90
_cell_angle_gamma    120

_symmetry_space_group_name_H-M    "P 1"
_symmetry_Int_Tables_number       1

loop_
  _symmetry_equiv_pos_as_xyz
  'x, y, z'

loop_
  _atom_site_type_symbol
  _atom_site_label
  _atom_site_symmetry_multiplicity
  _atom_site_fract_x
  _atom_site_fract_y
  _atom_site_fract_z
  _atom_site_occupancy
  _atom_site_charge
Co  Co1       1.0  0.90947  0.28581  0.06509  1.0000 0.924408925
Co  Co2       1.0  0.62366  0.90947  0.23176  1.0000 0.924408925
Co  Co3       1.0  0.71419  0.62366  0.39842  1.0000 0.924408925
Co  Co4       1.0  0.09053  0.71419  0.56509  1.0000 0.9257800702
Co  Co5       1.0  0.37634  0.09053  0.73176  1.0000 0.924408925
Co  Co6       1.0  0.28581  0.37634  0.89842  1.0000 0.924408925
Co  Co7       1.0  0.96098  0.19520  0.97586  1.0000 0.9975716296
Co  Co8       1.0  0.76578  0.96098  0.14253  1.0000 0.9975716296
Co  Co9       1.0  0.80480  0.76578  0.30919  1.0000 0.9975716296
Co  Co10      1.0  0.03902  0.80480  0.47586  1.0000 0.9975716296
Co  Co11      1.0  0.23422  0.03902  0.64253  1.0000 0.9975716296
Co  Co12      1.0  0.19520  0.23422  0.80919  1.0000 0.9975716296
Co  Co13      1.0  0.87527  0.13256  0.20565  1.0000 1.0339669311
Co  Co14      1.0  0.74271  0.87527  0.37232  1.0000 1.0339669311
Co  Co15      1.0  0.86744  0.74271  0.53898  1.0000 1.0339669311
Co  Co16      1.0  0.12473  0.86744  0.70565  1.0000 1.0339669311
Co  Co17      1.0  0.25729  0.12473  0.87232  1.0000 1.0339669311
Co  Co18      1.0  0.13256  0.25729  0.03898  1.0000 1.0339669311
H   H1        1.0  0.00750  0.14470  0.28070  1.0000 0.1185455354
H   H2        1.0  0.86280  0.00750  0.44737  1.0000 0.1185455354
H   H3        1.0  0.85530  0.86280  0.61403  1.0000 0.1185455354
H   H4        1.0  0.99250  0.85530  0.78070  1.0000 0.1185455354
H   H5        1.0  0.13720  0.99250  0.94737  1.0000 0.1185455354
H   H6        1.0  0.14470  0.13720  0.11403  1.0000 0.1185455354
H   H7        1.0  0.98440  0.58890  0.43570  1.0000 0.0998644579
H   H8        1.0  0.39550  0.98440  0.60237  1.0000 0.0998644579
H   H9        1.0  0.41110  0.39550  0.76903  1.0000 0.0998644579
H   H10       1.0  0.01560  0.41110  0.93570  1.0000 0.0998644579
H   H11       1.0  0.60450  0.01560  0.10237  1.0000 0.0998644579
H   H12       1.0  0.58890  0.60450  0.26903  1.0000 0.0998644579
H   H13       1.0  0.91630  0.22260  0.56990  1.0000 0.1277484139
H   H14       1.0  0.69370  0.91630  0.73657  1.0000 0.1277484139
H   H15       1.0  0.77740  0.69370  0.90323  1.0000 0.1277484139
H   H16       1.0  0.08370  0.77740  0.06990  1.0000 0.1277484139
H   H17       1.0  0.30630  0.08370  0.23657  1.0000 0.1277484139
H   H18       1.0  0.22260  0.30630  0.40323  1.0000 0.1277484139
H   H19       1.0  0.00840  0.15930  0.77440  1.0000 0.1185455354
H   H20       1.0  0.84910  0.00840  0.94107  1.0000 0.1185455354
H   H21       1.0  0.84070  0.84910  0.10773  1.0000 0.1185455354
H   H22       1.0  0.99160  0.84070  0.27440  1.0000 0.1185455354
H   H23       1.0  0.15090  0.99160  0.44107  1.0000 0.1185455354
H   H24       1.0  0.15930  0.15090  0.60773  1.0000 0.1185455354
H   H25       1.0  0.96410  0.39130  0.74200  1.0000 0.1091927897
H   H26       1.0  0.57280  0.96410  0.90867  1.0000 0.1091927897
H   H27       1.0  0.60870  0.57280  0.07533  1.0000 0.1091927897
H   H28       1.0  0.03590  0.60870  0.24200  1.0000 0.1091927897
H   H29       1.0  0.42720  0.03590  0.40867  1.0000 0.1091927897
H   H30       1.0  0.39130  0.42720  0.57533  1.0000 0.1091927897
H   H31       1.0  0.96500  0.38830  0.38030  1.0000 0.1091927897
H   H32       1.0  0.57670  0.96500  0.54697  1.0000 0.1091927897
H   H33       1.0  0.61170  0.57670  0.71363  1.0000 0.1091927897
H   H34       1.0  0.03500  0.61170  0.88030  1.0000 0.1091927897
H   H35       1.0  0.42330  0.03500  0.04697  1.0000 0.1091927897
H   H36       1.0  0.38830  0.42330  0.21363  1.0000 0.1091927897
H   H37       1.0  0.05950  0.36550  0.13110  1.0000 0.1185455354
H   H38       1.0  0.69400  0.05950  0.29777  1.0000 0.1185455354
H   H39       1.0  0.63450  0.69400  0.46443  1.0000 0.1185455354
H   H40       1.0  0.94050  0.63450  0.63110  1.0000 0.1185455354
H   H41       1.0  0.30600  0.94050  0.79777  1.0000 0.1185455354
H   H42       1.0  0.36550  0.30600  0.96443  1.0000 0.1185455354
H   H43       1.0  0.94000  0.47520  0.43480  1.0000 0.1277484139
H   H44       1.0  0.46480  0.94000  0.60147  1.0000 0.1277484139
H   H45       1.0  0.52480  0.46480  0.76813  1.0000 0.1277484139
H   H46       1.0  0.06000  0.52480  0.93480  1.0000 0.1277484139
H   H47       1.0  0.53520  0.06000  0.10147  1.0000 0.1277484139
H   H48       1.0  0.47520  0.53520  0.26813  1.0000 0.1277484139
H   H49       1.0  0.10640  0.60730  0.69240  1.0000 0.0998644579
H   H50       1.0  0.49910  0.10640  0.85907  1.0000 0.0998644579
H   H51       1.0  0.39270  0.49910  0.02573  1.0000 0.0998644579
H   H52       1.0  0.89360  0.39270  0.19240  1.0000 0.0998644579
H   H53       1.0  0.50090  0.89360  0.35907  1.0000 0.0998644579
H   H54       1.0  0.60730  0.50090  0.52573  1.0000 0.0998644579
H   H55       1.0  0.05800  0.49270  0.69920  1.0000 0.1277484139
H   H56       1.0  0.56530  0.05800  0.86587  1.0000 0.1277484139
H   H57       1.0  0.50730  0.56530  0.03253  1.0000 0.1277484139
H   H58       1.0  0.94200  0.50730  0.19920  1.0000 0.1277484139
H   H59       1.0  0.43470  0.94200  0.36587  1.0000 0.1277484139
H   H60       1.0  0.49270  0.43470  0.53253  1.0000 0.1277484139
C   C1        1.0  0.01850  0.16640  0.20680  1.0000 0.5218674812
C   C2        1.0  0.85210  0.01850  0.37347  1.0000 0.5218674812
C   C3        1.0  0.83360  0.85210  0.54013  1.0000 0.5218674812
C   C4        1.0  0.98150  0.83360  0.70680  1.0000 0.5218674812
C   C5        1.0  0.14790  0.98150  0.87347  1.0000 0.5218674812
C   C6        1.0  0.16640  0.14790  0.04013  1.0000 0.5218674812
C   C7        1.0  0.92080  0.26240  0.33590  1.0000 0.5799107774
C   C8        1.0  0.65840  0.92080  0.50257  1.0000 0.5799107774
C   C9        1.0  0.73760  0.65840  0.66923  1.0000 0.5799107774
C   C10       1.0  0.07920  0.73760  0.83590  1.0000 0.5799107774
C   C11       1.0  0.34160  0.07920  0.00257  1.0000 0.5799107774
C   C12       1.0  0.26240  0.34160  0.16923  1.0000 0.5799107774
C   C13       1.0  0.00120  0.57030  0.48860  1.0000 0.0858959008
C   C14       1.0  0.43090  0.00120  0.65527  1.0000 0.0858959008
C   C15       1.0  0.42970  0.43090  0.82193  1.0000 0.0858959008
C   C16       1.0  0.99880  0.42970  0.98860  1.0000 0.0858959008
C   C17       1.0  0.56910  0.99880  0.15527  1.0000 0.0858959008
C   C18       1.0  0.57030  0.56910  0.32193  1.0000 0.0858959008
C   C19       1.0  0.92870  0.26690  0.56790  1.0000 -0.1441341665
C   C20       1.0  0.66180  0.92870  0.73457  1.0000 -0.1441341665
C   C21       1.0  0.73310  0.66180  0.90123  1.0000 -0.1441341665
C   C22       1.0  0.07130  0.73310  0.06790  1.0000 -0.1441341665
C   C23       1.0  0.33820  0.07130  0.23457  1.0000 -0.1441341665
C   C24       1.0  0.26690  0.33820  0.40123  1.0000 -0.1441341665
C   C25       1.0  0.93910  0.30090  0.67440  1.0000 -0.0113411154
C   C26       1.0  0.63820  0.93910  0.84107  1.0000 -0.0113411154
C   C27       1.0  0.69910  0.63820  0.00773  1.0000 -0.0113411154
C   C28       1.0  0.06090  0.69910  0.17440  1.0000 -0.0113411154
C   C29       1.0  0.36180  0.06090  0.34107  1.0000 -0.0113411154
C   C30       1.0  0.30090  0.36180  0.50773  1.0000 -0.0113411154
C   C31       1.0  0.92750  0.26760  0.79570  1.0000 0.5799107774
C   C32       1.0  0.65990  0.92750  0.96237  1.0000 0.5799107774
C   C33       1.0  0.73240  0.65990  0.12903  1.0000 0.5799107774
C   C34       1.0  0.07250  0.73240  0.29570  1.0000 0.5799107774
C   C35       1.0  0.34010  0.07250  0.46237  1.0000 0.5799107774
C   C36       1.0  0.26760  0.34010  0.62903  1.0000 0.5799107774
C   C37       1.0  0.04900  0.18250  0.81240  1.0000 0.5218674812
C   C38       1.0  0.86650  0.04900  0.97907  1.0000 0.5218674812
C   C39       1.0  0.81750  0.86650  0.14573  1.0000 0.5218674812
C   C40       1.0  0.95100  0.81750  0.31240  1.0000 0.5218674812
C   C41       1.0  0.13350  0.95100  0.47907  1.0000 0.5218674812
C   C42       1.0  0.18250  0.13350  0.64573  1.0000 0.5218674812
C   C43       1.0  0.95990  0.36930  0.66990  1.0000 -0.1645698648
C   C44       1.0  0.59060  0.95990  0.83657  1.0000 -0.1645698648
C   C45       1.0  0.63070  0.59060  0.00323  1.0000 -0.1645698648
C   C46       1.0  0.04010  0.63070  0.16990  1.0000 -0.1645698648
C   C47       1.0  0.40940  0.04010  0.33657  1.0000 -0.1645698648
C   C48       1.0  0.36930  0.40940  0.50323  1.0000 -0.1645698648
C   C49       1.0  0.95940  0.36680  0.45360  1.0000 -0.1758542136
C   C50       1.0  0.59260  0.95940  0.62027  1.0000 -0.1758542136
C   C51       1.0  0.63320  0.59260  0.78693  1.0000 -0.1758542136
C   C52       1.0  0.04060  0.63320  0.95360  1.0000 -0.1758542136
C   C53       1.0  0.40740  0.04060  0.12027  1.0000 -0.1758542136
C   C54       1.0  0.36680  0.40740  0.28693  1.0000 -0.1758542136
C   C55       1.0  0.93690  0.29860  0.45510  1.0000 -0.0113411154
C   C56       1.0  0.63830  0.93690  0.62177  1.0000 -0.0113411154
C   C57       1.0  0.70140  0.63830  0.78843  1.0000 -0.0113411154
C   C58       1.0  0.06310  0.70140  0.95510  1.0000 -0.0113411154
C   C59       1.0  0.36170  0.06310  0.12177  1.0000 -0.0113411154
C   C60       1.0  0.29860  0.36170  0.28843  1.0000 -0.0113411154
C   C61       1.0  0.05760  0.33040  0.08890  1.0000 0.4993104362
C   C62       1.0  0.72720  0.05760  0.25557  1.0000 0.4993104362
C   C63       1.0  0.66960  0.72720  0.42223  1.0000 0.4993104362
C   C64       1.0  0.94240  0.66960  0.58890  1.0000 0.4993104362
C   C65       1.0  0.27280  0.94240  0.75557  1.0000 0.4993104362
C   C66       1.0  0.33040  0.27280  0.92223  1.0000 0.4993104362
C   C67       1.0  0.99820  0.47280  0.56240  1.0000 0.1091927897
C   C68       1.0  0.52540  0.99820  0.72907  1.0000 0.1091927897
C   C69       1.0  0.52720  0.52540  0.89573  1.0000 0.1091927897
C   C70       1.0  0.00180  0.52720  0.06240  1.0000 0.1091927897
C   C71       1.0  0.47460  0.00180  0.22907  1.0000 0.1091927897
C   C72       1.0  0.47280  0.47460  0.39573  1.0000 0.1091927897
C   C73       1.0  0.97370  0.40330  0.56530  1.0000 0.0511247725
C   C74       1.0  0.57040  0.97370  0.73197  1.0000 0.0511247725
C   C75       1.0  0.59670  0.57040  0.89863  1.0000 0.0511247725
C   C76       1.0  0.02630  0.59670  0.06530  1.0000 0.0511247725
C   C77       1.0  0.42960  0.02630  0.23197  1.0000 0.0511247725
C   C78       1.0  0.40330  0.42960  0.39863  1.0000 0.0511247725
C   C79       1.0  0.97420  0.50110  0.48730  1.0000 -0.2100064632
C   C80       1.0  0.47310  0.97420  0.65397  1.0000 -0.2100064632
C   C81       1.0  0.49890  0.47310  0.82063  1.0000 -0.2100064632
C   C82       1.0  0.02580  0.49890  0.98730  1.0000 -0.2100064632
C   C83       1.0  0.52690  0.02580  0.15397  1.0000 -0.2100064632
C   C84       1.0  0.50110  0.52690  0.32063  1.0000 -0.2100064632
C   C85       1.0  0.07230  0.58140  0.63970  1.0000 0.1091927897
C   C86       1.0  0.49090  0.07230  0.80637  1.0000 0.1091927897
C   C87       1.0  0.41860  0.49090  0.97303  1.0000 0.1091927897
C   C88       1.0  0.92770  0.41860  0.13970  1.0000 0.1091927897
C   C89       1.0  0.50910  0.92770  0.30637  1.0000 0.1091927897
C   C90       1.0  0.58140  0.50910  0.47303  1.0000 0.1091927897
C   C91       1.0  0.04400  0.51160  0.64120  1.0000 -0.2002669326
C   C92       1.0  0.53240  0.04400  0.80787  1.0000 -0.2002669326
C   C93       1.0  0.48840  0.53240  0.97453  1.0000 -0.2002669326
C   C94       1.0  0.95600  0.48840  0.14120  1.0000 -0.2002669326
C   C95       1.0  0.46760  0.95600  0.30787  1.0000 -0.2002669326
C   C96       1.0  0.51160  0.46760  0.47453  1.0000 -0.2002669326
N   N1        1.0  0.05000  0.60960  0.56320  1.0000 -0.2608271118
N   N2        1.0  0.44040  0.05000  0.72987  1.0000 -0.2608271118
N   N3        1.0  0.39040  0.44040  0.89653  1.0000 -0.2608271118
N   N4        1.0  0.95000  0.39040  0.06320  1.0000 -0.2608271118
N   N5        1.0  0.55960  0.95000  0.22987  1.0000 -0.2608271118
N   N6        1.0  0.60960  0.55960  0.39653  1.0000 -0.2608271118
O   O1        1.0  0.90443  0.28936  0.87720  1.0000 -0.568283794
O   O2        1.0  0.61507  0.90443  0.04387  1.0000 -0.568283794
O   O3        1.0  0.71064  0.61507  0.21053  1.0000 -0.568283794
O   O4        1.0  0.09557  0.71064  0.37720  1.0000 -0.568283794
O   O5        1.0  0.38493  0.09557  0.54387  1.0000 -0.568283794
O   O6        1.0  0.28936  0.38493  0.71053  1.0000 -0.568283794
O   O7        1.0  0.87791  0.18664  0.06010  1.0000 -0.8404910243
O   O8        1.0  0.69127  0.87791  0.22677  1.0000 -0.8404910243
O   O9        1.0  0.81336  0.69127  0.39343  1.0000 -0.8404910243
O   O10       1.0  0.12209  0.81336  0.56010  1.0000 -0.8404910243
O   O11       1.0  0.30873  0.12209  0.72677  1.0000 -0.8404910243
O   O12       1.0  0.18664  0.30873  0.89343  1.0000 -0.8404910243
O   O13       1.0  0.92190  0.29487  0.24730  1.0000 -0.5600481804
O   O14       1.0  0.62703  0.92190  0.41397  1.0000 -0.5600481804
O   O15       1.0  0.70513  0.62703  0.58063  1.0000 -0.5600481804
O   O16       1.0  0.07810  0.70513  0.74730  1.0000 -0.5600481804
O   O17       1.0  0.37297  0.07810  0.91397  1.0000 -0.5600481804
O   O18       1.0  0.29487  0.37297  0.08063  1.0000 -0.5600481804
O   O19       1.0  0.04923  0.20635  0.91410  1.0000 -0.5260526415
O   O20       1.0  0.84288  0.04923  0.08077  1.0000 -0.5260526415
O   O21       1.0  0.79365  0.84288  0.24743  1.0000 -0.5260526415
O   O22       1.0  0.95077  0.79365  0.41410  1.0000 -0.5260526415
O   O23       1.0  0.15712  0.95077  0.58077  1.0000 -0.5260526415
O   O24       1.0  0.20635  0.15712  0.74743  1.0000 -0.517047782
O   O25       1.0  0.97342  0.16642  0.14890  1.0000 -0.517047782
O   O26       1.0  0.80700  0.97342  0.31557  1.0000 -0.517047782
O   O27       1.0  0.83358  0.80700  0.48223  1.0000 -0.517047782
O   O28       1.0  0.02658  0.83358  0.64890  1.0000 -0.517047782
O   O29       1.0  0.19300  0.02658  0.81557  1.0000 -0.517047782
O   O30       1.0  0.16642  0.19300  0.98223  1.0000 -0.517047782
O   O31       1.0  0.09763  0.18611  0.75520  1.0000 -0.4872675067
O   O32       1.0  0.91152  0.09763  0.92187  1.0000 -0.4872675067
O   O33       1.0  0.81389  0.91152  0.08853  1.0000 -0.4872675067
O   O34       1.0  0.90237  0.81389  0.25520  1.0000 -0.4872675067
O   O35       1.0  0.08848  0.90237  0.42187  1.0000 -0.4872675067
O   O36       1.0  0.18611  0.08848  0.58853  1.0000 -0.4872675067
O   O37       1.0  0.94205  0.22457  0.80850  1.0000 -0.5260526415
O   O38       1.0  0.71748  0.94205  0.97517  1.0000 -0.5260526415
O   O39       1.0  0.77543  0.71748  0.14183  1.0000 -0.5260526415
O   O40       1.0  0.05795  0.77543  0.30850  1.0000 -0.5260526415
O   O41       1.0  0.28252  0.05795  0.47517  1.0000 -0.5260526415
O   O42       1.0  0.22457  0.28252  0.64183  1.0000 -0.5260526415
O   O43       1.0  0.07814  0.19306  0.17500  1.0000 -0.5051597433
O   O44       1.0  0.88508  0.07814  0.34167  1.0000 -0.5051597433
O   O45       1.0  0.80694  0.88508  0.50833  1.0000 -0.5051597433
O   O46       1.0  0.92186  0.80694  0.67500  1.0000 -0.5051597433
O   O47       1.0  0.11492  0.92186  0.84167  1.0000 -0.5051597433
O   O48       1.0  0.19306  0.11492  0.00833  1.0000 -0.5051597433
O   O49       1.0  0.10701  0.32599  0.09130  1.0000 -0.4301065084
O   O50       1.0  0.78102  0.10701  0.25797  1.0000 -0.4301065084
O   O51       1.0  0.67401  0.78102  0.42463  1.0000 -0.4301065084
O   O52       1.0  0.89299  0.67401  0.59130  1.0000 -0.4301065084
O   O53       1.0  0.21898  0.89299  0.75797  1.0000 -0.4301065084
O   O54       1.0  0.32599  0.21898  0.92463  1.0000 -0.4301065084
O   O55       1.0  0.00473  0.29345  0.03680  1.0000 -0.517047782
O   O56       1.0  0.71128  0.00473  0.20347  1.0000 -0.517047782
O   O57       1.0  0.70655  0.71128  0.37013  1.0000 -0.517047782
O   O58       1.0  0.99527  0.70655  0.53680  1.0000 -0.517047782
O   O59       1.0  0.28872  0.99527  0.70347  1.0000 -0.517047782
O   O60       1.0  0.29345  0.28872  0.87013  1.0000 -0.517047782
O   O61       1.0  0.90790  0.20394  0.33820  1.0000 -0.517047782
O   O62       1.0  0.70396  0.90790  0.50487  1.0000 -0.517047782
O   O63       1.0  0.79606  0.70396  0.67153  1.0000 -0.517047782
O   O64       1.0  0.09210  0.79606  0.83820  1.0000 -0.517047782
O   O65       1.0  0.29604  0.09210  0.00487  1.0000 -0.517047782
O   O66       1.0  0.20394  0.29604  0.17153  1.0000 -0.517047782
