# DDEC6 charges by PACMAN v1.1 (https://github.com/mtap-research/PACMAN-charge/)
data_2012[Zn][pcu]3[ASR]9
_chemical_formula_sum              "Zn3 H12 C20 N6 O8"
_cell_length_a       9.1789
_cell_length_b       10.9267
_cell_length_c       11.5165
_cell_angle_alpha    119.184
_cell_angle_beta     109.883
_cell_angle_gamma    80.656

_symmetry_space_group_name_H-M    "P 1"
_symmetry_Int_Tables_number       1

loop_
  _symmetry_equiv_pos_as_xyz
  'x, y, z'

loop_
  _atom_site_type_symbol
  _atom_site_label
  _atom_site_symmetry_multiplicity
  _atom_site_fract_x
  _atom_site_fract_y
  _atom_site_fract_z
  _atom_site_occupancy
  _atom_site_charge
Zn  Zn1       1.0  0.50000  0.50000  0.00000  1.0000 0.8587698764
Zn  Zn2       1.0  0.19095  0.49856  0.12211  1.0000 0.7263896293
Zn  Zn3       1.0  0.80905  0.50144  0.87789  1.0000 0.7263896293
H   H1        1.0  0.62530  0.14890  0.97670  1.0000 0.1302823327
H   H2        1.0  0.37470  0.85110  0.02330  1.0000 0.1302823327
H   H3        1.0  0.29420  0.07880  0.08850  1.0000 0.1218200924
H   H4        1.0  0.70580  0.92120  0.91150  1.0000 0.1218200924
H   H5        1.0  0.69420  0.11630  0.50710  1.0000 0.1218200924
H   H6        1.0  0.30580  0.88370  0.49290  1.0000 0.1218200924
H   H7        1.0  0.38640  0.10320  0.67650  1.0000 0.1218200924
H   H8        1.0  0.61360  0.89680  0.32350  1.0000 0.1218200924
H   H9        1.0  0.24960  0.47280  0.70380  1.0000 0.1405795044
H   H10       1.0  0.75040  0.52720  0.29620  1.0000 0.1405795044
H   H11       1.0  0.96770  0.47640  0.65400  1.0000 0.1302823327
H   H12       1.0  0.03230  0.52360  0.34600  1.0000 0.1302823327
C   C1        1.0  0.44840  0.13690  0.03740  1.0000 -0.0216679475
C   C2        1.0  0.55160  0.86310  0.96260  1.0000 -0.0216679475
C   C3        1.0  0.57400  0.08870  0.98570  1.0000 -0.1019579195
C   C4        1.0  0.42600  0.91130  0.01430  1.0000 -0.1019579195
C   C5        1.0  0.37720  0.04710  0.05210  1.0000 -0.1019579195
C   C6        1.0  0.62280  0.95290  0.94790  1.0000 -0.1019579195
C   C7        1.0  0.39190  0.28300  0.07310  1.0000 0.5773830689
C   C8        1.0  0.60810  0.71700  0.92690  1.0000 0.5773830689
C   C9        1.0  0.54670  0.13300  0.60720  1.0000 -0.0216679475
C   C10       1.0  0.45330  0.86700  0.39280  1.0000 -0.0216679475
C   C11       1.0  0.61530  0.07020  0.50420  1.0000 -0.1019579195
C   C12       1.0  0.38470  0.92980  0.49580  1.0000 -0.1019579195
C   C13       1.0  0.43150  0.06180  0.60480  1.0000 -0.1104993769
C   C14       1.0  0.56850  0.93820  0.39520  1.0000 -0.1104993769
C   C15       1.0  0.59810  0.27500  0.73010  1.0000 0.5773830689
C   C16       1.0  0.40190  0.72500  0.26990  1.0000 0.5773830689
C   C17       1.0  0.19760  0.47950  0.76330  1.0000 -0.0307476981
C   C18       1.0  0.80240  0.52050  0.23670  1.0000 -0.0307476981
C   C19       1.0  0.04160  0.48080  0.73470  1.0000 -0.0537329023
C   C20       1.0  0.95840  0.51920  0.26530  1.0000 -0.0537329023
N   N1        1.0  0.26430  0.48920  0.88850  1.0000 -0.1519645625
N   N2        1.0  0.73570  0.51080  0.11150  1.0000 -0.1519645625
N   N3        1.0  0.15140  0.49500  0.93820  1.0000 -0.0640923553
N   N4        1.0  0.84860  0.50500  0.06180  1.0000 -0.0640923553
N   N5        1.0  0.01510  0.48960  0.84570  1.0000 -0.1753100031
N   N6        1.0  0.98490  0.51040  0.15430  1.0000 -0.1746584498
O   O1        1.0  0.27010  0.31480  0.10560  1.0000 -0.4984959536
O   O2        1.0  0.72990  0.68520  0.89440  1.0000 -0.4984959536
O   O3        1.0  0.46690  0.36690  0.07200  1.0000 -0.5589246624
O   O4        1.0  0.53310  0.63310  0.92800  1.0000 -0.5589246624
O   O5        1.0  0.53620  0.32200  0.82380  1.0000 -0.5589246624
O   O6        1.0  0.46380  0.67800  0.17620  1.0000 -0.5589246624
O   O7        1.0  0.70250  0.33390  0.72490  1.0000 -0.5255690985
O   O8        1.0  0.29750  0.66610  0.27510  1.0000 -0.5255690985
