# DDEC6 charges by PACMAN v1.1 (https://github.com/mtap-research/PACMAN-charge/)
data_2012[Co][dia]3[ASR]2
_chemical_formula_sum              "Co2 H16 C24 N4 O8"
_cell_length_a       6.2081
_cell_length_b       12.681
_cell_length_c       12.0109
_cell_angle_alpha    90
_cell_angle_beta     119.905
_cell_angle_gamma    90

_symmetry_space_group_name_H-M    "P 1"
_symmetry_Int_Tables_number       1

loop_
  _symmetry_equiv_pos_as_xyz
  'x, y, z'

loop_
  _atom_site_type_symbol
  _atom_site_label
  _atom_site_symmetry_multiplicity
  _atom_site_fract_x
  _atom_site_fract_y
  _atom_site_fract_z
  _atom_site_occupancy
  _atom_site_charge
Co  Co1       1.0  0.89014  0.74660  0.72434  1.0000 0.7592060204
Co  Co2       1.0  0.89014  0.25340  0.22434  1.0000 0.7592060204
H   H1        1.0  0.64940  0.52120  0.90620  1.0000 0.1399430755
H   H2        1.0  0.64940  0.47880  0.40620  1.0000 0.1399430755
H   H3        1.0  0.22970  0.00900  0.08010  1.0000 0.1399430755
H   H4        1.0  0.22970  0.99100  0.58010  1.0000 0.1399430755
H   H5        1.0  0.29760  0.51450  0.11000  1.0000 0.1399430755
H   H6        1.0  0.29760  0.48550  0.61000  1.0000 0.1399430755
H   H7        1.0  0.37390  0.64910  0.77910  1.0000 0.1170356974
H   H8        1.0  0.37390  0.35090  0.27910  1.0000 0.1170356974
H   H9        1.0  0.23040  0.86990  0.95410  1.0000 0.1029191947
H   H10       1.0  0.23040  0.13010  0.45410  1.0000 0.1029191947
H   H11       1.0  0.50150  0.86850  0.76020  1.0000 0.1170356974
H   H12       1.0  0.50150  0.13150  0.26020  1.0000 0.1170356974
H   H13       1.0  0.04550  0.64970  0.98470  1.0000 0.1029191947
H   H14       1.0  0.04550  0.35030  0.48470  1.0000 0.1029191947
H   H15       1.0  0.48590  0.01010  0.87770  1.0000 0.1399430755
H   H16       1.0  0.48590  0.98990  0.37770  1.0000 0.1399430755
C   C1        1.0  0.85850  0.02370  0.99340  1.0000 0.0417299095
C   C2        1.0  0.85850  0.97630  0.49340  1.0000 0.0417299095
C   C3        1.0  0.52510  0.54410  0.92210  1.0000 -0.1627505485
C   C4        1.0  0.52510  0.45590  0.42210  1.0000 -0.1627505485
C   C5        1.0  0.08030  0.98160  0.01560  1.0000 -0.1507499058
C   C6        1.0  0.08030  0.01840  0.51560  1.0000 -0.1507499058
C   C7        1.0  0.31790  0.54130  0.04370  1.0000 -0.1364658985
C   C8        1.0  0.31790  0.45870  0.54370  1.0000 -0.1364658985
C   C9        1.0  0.66340  0.41110  0.09920  1.0000 0.5277583238
C   C10       1.0  0.66340  0.58890  0.59920  1.0000 0.5277583238
C   C11       1.0  0.35770  0.62130  0.84620  1.0000 0.1029191947
C   C12       1.0  0.35770  0.37870  0.34620  1.0000 0.1029191947
C   C13       1.0  0.50240  0.50140  0.02400  1.0000 0.0290623989
C   C14       1.0  0.50240  0.49860  0.52400  1.0000 0.0290623989
C   C15       1.0  0.08000  0.89710  0.94040  1.0000 0.0805271204
C   C16       1.0  0.08000  0.10290  0.44040  1.0000 0.0805271204
C   C17       1.0  0.64880  0.89690  0.82530  1.0000 0.0805271204
C   C18       1.0  0.64880  0.10310  0.32530  1.0000 0.0805271204
C   C19       1.0  0.16210  0.62080  0.96640  1.0000 0.0478102203
C   C20       1.0  0.16210  0.37920  0.46640  1.0000 0.0478102203
C   C21       1.0  0.63820  0.98180  0.89570  1.0000 -0.1507499058
C   C22       1.0  0.63820  0.01820  0.39570  1.0000 -0.1507499058
C   C23       1.0  0.85140  0.11510  0.07340  1.0000 0.5277583238
C   C24       1.0  0.85140  0.88490  0.57340  1.0000 0.5277583238
N   N1        1.0  0.86690  0.85460  0.84890  1.0000 -0.2502436701
N   N2        1.0  0.86690  0.14540  0.34890  1.0000 -0.2502436701
N   N3        1.0  0.17760  0.65740  0.86300  1.0000 -0.2578727964
N   N4        1.0  0.17760  0.34260  0.36300  1.0000 -0.2578727964
O   O1        1.0  0.06160  0.15320  0.15790  1.0000 -0.5404807244
O   O2        1.0  0.06160  0.84680  0.65790  1.0000 -0.5404807244
O   O3        1.0  0.65390  0.14280  0.06330  1.0000 -0.5035932724
O   O4        1.0  0.65390  0.85720  0.56330  1.0000 -0.5035932724
O   O5        1.0  0.61450  0.36490  0.17810  1.0000 -0.5404807244
O   O6        1.0  0.61450  0.63510  0.67810  1.0000 -0.5404807244
O   O7        1.0  0.84040  0.38470  0.08670  1.0000 -0.5035932724
O   O8        1.0  0.84040  0.61530  0.58670  1.0000 -0.5035932724
