# DDEC6 charges by PACMAN v1.1 (https://github.com/mtap-research/PACMAN-charge/)
data_2012[Mn][nan]3[ASR]4
_chemical_formula_sum              "Mn6 H52 C48 N12 O38"
_cell_length_a       9.5565
_cell_length_b       12.4706
_cell_length_c       22.8429
_cell_angle_alpha    90
_cell_angle_beta     102.6
_cell_angle_gamma    90

_symmetry_space_group_name_H-M    "P 1"
_symmetry_Int_Tables_number       1

loop_
  _symmetry_equiv_pos_as_xyz
  'x, y, z'

loop_
  _atom_site_type_symbol
  _atom_site_label
  _atom_site_symmetry_multiplicity
  _atom_site_fract_x
  _atom_site_fract_y
  _atom_site_fract_z
  _atom_site_occupancy
  _atom_site_charge
Mn  Mn1       1.0  0.63296  0.19349  0.69079  1.0000 1.040503715
Mn  Mn2       1.0  0.63296  0.80651  0.19079  1.0000 1.040503715
Mn  Mn3       1.0  0.33237  0.35649  0.71729  1.0000 1.040503715
Mn  Mn4       1.0  0.33237  0.64351  0.21729  1.0000 1.040503715
Mn  Mn5       1.0  0.94342  0.33013  0.72603  1.0000 1.0207838163
Mn  Mn6       1.0  0.94342  0.66987  0.22603  1.0000 1.0207838163
H   H1        1.0  0.15670  0.19420  0.74050  1.0000 0.3706801578
H   H2        1.0  0.15670  0.80580  0.24050  1.0000 0.3706801578
H   H3        1.0  0.12370  0.21900  0.68060  1.0000 0.3579886749
H   H4        1.0  0.12370  0.78100  0.18060  1.0000 0.3579886749
H   H5        1.0  0.01100  0.95320  0.86170  1.0000 0.0979225
H   H6        1.0  0.01100  0.04680  0.36170  1.0000 0.0979225
H   H7        1.0  0.00390  0.88130  0.80300  1.0000 0.0979225
H   H8        1.0  0.00390  0.11870  0.30300  1.0000 0.0979225
H   H9        1.0  0.79140  0.03820  0.81380  1.0000 0.1490500357
H   H10       1.0  0.79140  0.96180  0.31380  1.0000 0.1490500357
H   H11       1.0  0.78870  0.96830  0.75500  1.0000 0.1490500357
H   H12       1.0  0.78870  0.03170  0.25500  1.0000 0.1490500357
H   H13       1.0  0.55970  0.57080  0.81390  1.0000 0.1077348399
H   H14       1.0  0.55970  0.42920  0.31390  1.0000 0.1077348399
H   H15       1.0  0.58350  0.63760  0.75700  1.0000 0.1161911681
H   H16       1.0  0.58350  0.36240  0.25700  1.0000 0.1161911681
H   H17       1.0  0.80730  0.54980  0.76320  1.0000 0.1490500357
H   H18       1.0  0.80730  0.45020  0.26320  1.0000 0.1490500357
H   H19       1.0  0.78120  0.48190  0.81940  1.0000 0.1490500357
H   H20       1.0  0.78120  0.51810  0.31940  1.0000 0.1490500357
H   H21       1.0  0.72030  0.87000  0.99820  1.0000 0.1077348399
H   H22       1.0  0.72030  0.13000  0.49820  1.0000 0.1077348399
H   H23       1.0  0.62260  0.76420  0.98860  1.0000 0.094191578
H   H24       1.0  0.62260  0.23580  0.48860  1.0000 0.094191578
H   H25       1.0  0.92460  0.76980  0.03410  1.0000 0.1490500357
H   H26       1.0  0.92460  0.23020  0.53410  1.0000 0.1490500357
H   H27       1.0  0.83880  0.66030  0.01710  1.0000 0.1490500357
H   H28       1.0  0.83880  0.33970  0.51710  1.0000 0.1490500357
H   H29       1.0  0.15170  0.16010  0.50470  1.0000 0.1077348399
H   H30       1.0  0.15170  0.83990  0.00470  1.0000 0.1077348399
H   H31       1.0  0.24210  0.05090  0.51630  1.0000 0.1077348399
H   H32       1.0  0.24210  0.94910  0.01630  1.0000 0.1077348399
H   H33       1.0  0.37980  0.25520  0.54020  1.0000 0.1490500357
H   H34       1.0  0.37980  0.74480  0.04020  1.0000 0.1490500357
H   H35       1.0  0.44890  0.14150  0.56220  1.0000 0.1490500357
H   H36       1.0  0.44890  0.85850  0.06220  1.0000 0.1490500357
H   H37       1.0  0.35380  0.36230  0.31400  1.0000 0.0979225
H   H38       1.0  0.35380  0.63770  0.81400  1.0000 0.0979225
H   H39       1.0  0.28230  0.40580  0.36640  1.0000 0.1077348399
H   H40       1.0  0.28230  0.59420  0.86640  1.0000 0.1077348399
H   H41       1.0  0.12550  0.31000  0.26030  1.0000 0.1490500357
H   H42       1.0  0.12550  0.69000  0.76030  1.0000 0.1490500357
H   H43       1.0  0.05750  0.36230  0.31190  1.0000 0.1414022192
H   H44       1.0  0.05750  0.63770  0.81190  1.0000 0.1414022192
H   H45       1.0  0.58790  0.97910  0.39130  1.0000 0.1077348399
H   H46       1.0  0.58790  0.02090  0.89130  1.0000 0.1077348399
H   H47       1.0  0.54600  0.02630  0.32450  1.0000 0.0979225
H   H48       1.0  0.54600  0.97370  0.82450  1.0000 0.0979225
H   H49       1.0  0.40810  0.86150  0.37410  1.0000 0.1490500357
H   H50       1.0  0.40810  0.13850  0.87410  1.0000 0.1490500357
H   H51       1.0  0.32460  0.92400  0.31600  1.0000 0.1490500357
H   H52       1.0  0.32460  0.07600  0.81600  1.0000 0.1490500357
C   C1        1.0  0.78860  0.76230  0.81158  1.0000 0.5386984989
C   C2        1.0  0.78860  0.23770  0.31158  1.0000 0.5386984989
C   C3        1.0  0.68400  0.69490  0.89246  1.0000 0.5315128808
C   C4        1.0  0.68400  0.30510  0.39246  1.0000 0.5315128808
C   C5        1.0  0.83520  0.85520  0.90736  1.0000 0.5315128808
C   C6        1.0  0.83520  0.14480  0.40736  1.0000 0.5315128808
C   C7        1.0  0.94510  0.91850  0.82750  1.0000 -0.0196839797
C   C8        1.0  0.94510  0.08150  0.32750  1.0000 -0.0196839797
C   C9        1.0  0.85270  0.00410  0.78930  1.0000 -0.3600785017
C   C10       1.0  0.85270  0.99590  0.28930  1.0000 -0.3600785017
C   C11       1.0  0.93410  0.08920  0.76590  1.0000 0.6518030509
C   C12       1.0  0.93410  0.91080  0.26590  1.0000 0.6518030509
C   C13       1.0  0.63330  0.60370  0.79500  1.0000 -0.0358974721
C   C14       1.0  0.63330  0.39630  0.29500  1.0000 -0.0358974721
C   C15       1.0  0.73280  0.51720  0.78160  1.0000 -0.3600785017
C   C16       1.0  0.73280  0.48280  0.28160  1.0000 -0.3600785017
C   C17       1.0  0.64810  0.43400  0.73886  1.0000 0.6804455861
C   C18       1.0  0.64810  0.56600  0.23886  1.0000 0.6804455861
C   C19       1.0  0.71850  0.79300  0.98753  1.0000 -0.0297717063
C   C20       1.0  0.71850  0.20700  0.48753  1.0000 -0.0297717063
C   C21       1.0  0.83120  0.73400  0.03210  1.0000 -0.3423152174
C   C22       1.0  0.83120  0.26600  0.53210  1.0000 -0.3423152174
C   C23       1.0  0.80540  0.72720  0.09469  1.0000 0.6660563096
C   C24       1.0  0.80540  0.27280  0.59469  1.0000 0.6660563096
C   C25       1.0  0.24070  0.22950  0.41400  1.0000 0.5315128808
C   C26       1.0  0.24070  0.77050  0.91400  1.0000 0.5315128808
C   C27       1.0  0.38030  0.17170  0.34239  1.0000 0.5225676641
C   C28       1.0  0.38030  0.82830  0.84239  1.0000 0.5225676641
C   C29       1.0  0.37790  0.06530  0.43223  1.0000 0.5386984989
C   C30       1.0  0.37790  0.93470  0.93223  1.0000 0.5386984989
C   C31       1.0  0.24720  0.12790  0.50643  1.0000 -0.0297717063
C   C32       1.0  0.24720  0.87210  0.00643  1.0000 -0.0297717063
C   C33       1.0  0.35900  0.18370  0.55510  1.0000 -0.3686005727
C   C34       1.0  0.35900  0.81630  0.05510  1.0000 -0.3686005727
C   C35       1.0  0.31480  0.19690  0.61219  1.0000 0.6445327148
C   C36       1.0  0.31480  0.80310  0.11219  1.0000 0.6445327148
C   C37       1.0  0.27410  0.35060  0.33470  1.0000 -0.0358974721
C   C38       1.0  0.27410  0.64940  0.83470  1.0000 -0.0358974721
C   C39       1.0  0.13800  0.36720  0.29110  1.0000 -0.3423152174
C   C40       1.0  0.13800  0.63280  0.79110  1.0000 -0.3423152174
C   C41       1.0  0.13420  0.47590  0.26060  1.0000 0.6599668756
C   C42       1.0  0.13420  0.52410  0.76060  1.0000 0.6599668756
C   C43       1.0  0.50640  0.99810  0.35810  1.0000 -0.0297717063
C   C44       1.0  0.50640  0.00190  0.85810  1.0000 -0.0297717063
C   C45       1.0  0.42090  0.90110  0.33810  1.0000 -0.3423152174
C   C46       1.0  0.42090  0.09890  0.83810  1.0000 -0.3423152174
C   C47       1.0  0.48110  0.82450  0.29870  1.0000 0.6599668756
C   C48       1.0  0.48110  0.17550  0.79870  1.0000 0.6599668756
N   N1        1.0  0.85550  0.84030  0.84997  1.0000 -0.2396171694
N   N2        1.0  0.85550  0.15970  0.34997  1.0000 -0.2396171694
N   N3        1.0  0.71190  0.68630  0.83531  1.0000 -0.2303765049
N   N4        1.0  0.71190  0.31370  0.33531  1.0000 -0.2303765049
N   N5        1.0  0.74490  0.78070  0.92620  1.0000 -0.2303765049
N   N6        1.0  0.74490  0.21930  0.42620  1.0000 -0.2303765049
N   N7        1.0  0.28600  0.13940  0.44705  1.0000 -0.2396171694
N   N8        1.0  0.28600  0.86060  0.94705  1.0000 -0.2396171694
N   N9        1.0  0.29220  0.24420  0.36341  1.0000 -0.2303765049
N   N10       1.0  0.29220  0.75580  0.86341  1.0000 -0.2303765049
N   N11       1.0  0.41900  0.08200  0.37857  1.0000 -0.2396171694
N   N12       1.0  0.41900  0.91800  0.87857  1.0000 -0.2396171694
O   O1        1.0  0.79800  0.75760  0.75975  1.0000 -0.4505587871
O   O2        1.0  0.79800  0.24240  0.25975  1.0000 -0.4505587871
O   O3        1.0  0.60910  0.63190  0.91140  1.0000 -0.4505587871
O   O4        1.0  0.60910  0.36810  0.41140  1.0000 -0.4505587871
O   O5        1.0  0.89010  0.92860  0.93956  1.0000 -0.4505587871
O   O6        1.0  0.89010  0.07140  0.43956  1.0000 -0.4505587871
O   O7        1.0  0.86100  0.16140  0.73263  1.0000 -0.6156474605
O   O8        1.0  0.86100  0.83860  0.23263  1.0000 -0.6156474605
O   O9        1.0  0.06830  0.08640  0.77852  1.0000 -0.5535733953
O   O10       1.0  0.06830  0.91360  0.27852  1.0000 -0.5535733953
O   O11       1.0  0.51860  0.44850  0.71902  1.0000 -0.5294994369
O   O12       1.0  0.51860  0.55150  0.21902  1.0000 -0.5294994369
O   O13       1.0  0.71690  0.35220  0.72677  1.0000 -0.5986884987
O   O14       1.0  0.71690  0.64780  0.22677  1.0000 -0.5986884987
O   O15       1.0  0.89230  0.67150  0.13112  1.0000 -0.5607943788
O   O16       1.0  0.89230  0.32850  0.63112  1.0000 -0.5607943788
O   O17       1.0  0.69890  0.77740  0.10657  1.0000 -0.5986884987
O   O18       1.0  0.69890  0.22260  0.60657  1.0000 -0.5986884987
O   O19       1.0  0.16180  0.29410  0.43028  1.0000 -0.4554434672
O   O20       1.0  0.16180  0.70590  0.93028  1.0000 -0.4554434672
O   O21       1.0  0.42230  0.18640  0.29868  1.0000 -0.4179658696
O   O22       1.0  0.42230  0.81360  0.79868  1.0000 -0.4179658696
O   O23       1.0  0.42510  0.98920  0.46442  1.0000 -0.4716345027
O   O24       1.0  0.42510  0.01080  0.96442  1.0000 -0.4716345027
O   O25       1.0  0.40620  0.23610  0.65679  1.0000 -0.6274984732
O   O26       1.0  0.40620  0.76390  0.15679  1.0000 -0.6274984732
O   O27       1.0  0.18870  0.17180  0.61462  1.0000 -0.5231615558
O   O28       1.0  0.18870  0.82820  0.11462  1.0000 -0.5231615558
O   O29       1.0  0.25070  0.52690  0.26814  1.0000 -0.5718221322
O   O30       1.0  0.25070  0.47310  0.76814  1.0000 -0.5718221322
O   O31       1.0  0.01460  0.50900  0.23008  1.0000 -0.5986884987
O   O32       1.0  0.01460  0.49100  0.73008  1.0000 -0.5986884987
O   O33       1.0  0.56780  0.86280  0.26983  1.0000 -0.5804243937
O   O34       1.0  0.56780  0.13720  0.76983  1.0000 -0.5804243937
O   O35       1.0  0.43430  0.73080  0.29456  1.0000 -0.5607943788
O   O36       1.0  0.43430  0.26920  0.79456  1.0000 -0.5607943788
O   O37       1.0  0.14300  0.24580  0.71561  1.0000 -0.6946895972
O   O38       1.0  0.14300  0.75420  0.21561  1.0000 -0.6946895972
