# DDEC6 charges by PACMAN v1.1 (https://github.com/mtap-research/PACMAN-charge/)
data_2013[Cu][tbo]3[ASR]1
_chemical_formula_sum              "Cu12 H24 C72 O48"
_cell_length_a       18.5993
_cell_length_b       18.5993
_cell_length_c       18.5993
_cell_angle_alpha    60
_cell_angle_beta     60
_cell_angle_gamma    60

_symmetry_space_group_name_H-M    "P 1"
_symmetry_Int_Tables_number       1

loop_
  _symmetry_equiv_pos_as_xyz
  'x, y, z'

loop_
  _atom_site_type_symbol
  _atom_site_label
  _atom_site_symmetry_multiplicity
  _atom_site_fract_x
  _atom_site_fract_y
  _atom_site_fract_z
  _atom_site_occupancy
  _atom_site_charge
Cu  Cu1       1.0  0.56776  0.43224  0.00000  1.0000 0.7273711917
Cu  Cu2       1.0  0.43224  0.56776  0.00000  1.0000 0.7273711917
Cu  Cu3       1.0  0.00000  0.00000  0.56776  1.0000 0.7374915239
Cu  Cu4       1.0  0.00000  0.00000  0.43224  1.0000 0.7374915239
Cu  Cu5       1.0  0.00000  0.56776  0.43224  1.0000 0.7374915239
Cu  Cu6       1.0  1.00000  0.43224  0.56776  1.0000 0.7374915239
Cu  Cu7       1.0  0.56776  0.00000  0.00000  1.0000 0.7239959992
Cu  Cu8       1.0  0.43224  0.00000  0.00000  1.0000 0.7239959992
Cu  Cu9       1.0  0.43224  0.00000  0.56776  1.0000 0.7374915239
Cu  Cu10      1.0  0.56776  0.00000  0.43224  1.0000 0.7239959992
Cu  Cu11      1.0  0.00000  0.56776  0.00000  1.0000 0.7273711917
Cu  Cu12      1.0  0.00000  0.43224  0.00000  1.0000 0.7374915239
H   H1        1.0  0.26899  0.48355  0.97847  1.0000 0.1330145567
H   H2        1.0  0.48355  0.26899  0.26899  1.0000 0.1330145567
H   H3        1.0  0.97847  0.26899  0.26899  1.0000 0.1330145567
H   H4        1.0  0.26899  0.97847  0.48355  1.0000 0.1330145567
H   H5        1.0  0.97847  0.26899  0.48355  1.0000 0.1330145567
H   H6        1.0  0.26899  0.48355  0.26899  1.0000 0.1330145567
H   H7        1.0  0.26899  0.97847  0.26899  1.0000 0.1330145567
H   H8        1.0  0.48355  0.26899  0.97847  1.0000 0.1330145567
H   H9        1.0  0.48355  0.97847  0.26899  1.0000 0.1330145567
H   H10       1.0  0.26899  0.26899  0.48355  1.0000 0.1330145567
H   H11       1.0  0.26899  0.26899  0.97847  1.0000 0.1330145567
H   H12       1.0  0.97847  0.48355  0.26899  1.0000 0.1330145567
H   H13       1.0  0.73101  0.51645  0.73101  1.0000 0.1330145567
H   H14       1.0  0.51645  0.73101  0.02153  1.0000 0.1330145567
H   H15       1.0  0.02153  0.73101  0.51645  1.0000 0.1330145567
H   H16       1.0  0.73101  0.02153  0.73101  1.0000 0.1330145567
H   H17       1.0  0.02153  0.73101  0.73101  1.0000 0.1330145567
H   H18       1.0  0.73101  0.51645  0.02153  1.0000 0.1330145567
H   H19       1.0  0.73101  0.02153  0.51645  1.0000 0.1330145567
H   H20       1.0  0.51645  0.73101  0.73101  1.0000 0.1330145567
H   H21       1.0  0.51645  0.02153  0.73101  1.0000 0.1330145567
H   H22       1.0  0.73101  0.73101  0.02153  1.0000 0.1330145567
H   H23       1.0  0.73101  0.73101  0.51645  1.0000 0.1330145567
H   H24       1.0  0.02153  0.51645  0.73101  1.0000 0.1330145567
C   C1        1.0  0.43008  0.43008  0.97874  1.0000 0.547685736
C   C2        1.0  0.43008  0.43008  0.16110  1.0000 0.547685736
C   C3        1.0  0.97874  0.16110  0.43008  1.0000 0.5442579902
C   C4        1.0  0.16110  0.97874  0.43008  1.0000 0.547685736
C   C5        1.0  0.97874  0.43008  0.43008  1.0000 0.547685736
C   C6        1.0  0.16110  0.43008  0.43008  1.0000 0.5442579902
C   C7        1.0  0.43008  0.97874  0.16110  1.0000 0.547685736
C   C8        1.0  0.43008  0.16110  0.97874  1.0000 0.547685736
C   C9        1.0  0.43008  0.97874  0.43008  1.0000 0.547685736
C   C10       1.0  0.43008  0.16110  0.43008  1.0000 0.5442579902
C   C11       1.0  0.16110  0.43008  0.97874  1.0000 0.547685736
C   C12       1.0  0.97874  0.43008  0.16110  1.0000 0.547685736
C   C13       1.0  0.56992  0.56992  0.83890  1.0000 0.547685736
C   C14       1.0  0.56992  0.56992  0.02126  1.0000 0.547685736
C   C15       1.0  0.02126  0.83890  0.56992  1.0000 0.5442579902
C   C16       1.0  0.83890  0.02126  0.56992  1.0000 0.547685736
C   C17       1.0  0.02126  0.56992  0.83890  1.0000 0.547685736
C   C18       1.0  0.83890  0.56992  0.02126  1.0000 0.547685736
C   C19       1.0  0.56992  0.02126  0.56992  1.0000 0.547685736
C   C20       1.0  0.56992  0.83890  0.56992  1.0000 0.5442579902
C   C21       1.0  0.56992  0.02126  0.83890  1.0000 0.547685736
C   C22       1.0  0.56992  0.83890  0.02126  1.0000 0.547685736
C   C23       1.0  0.83890  0.56992  0.56992  1.0000 0.547685736
C   C24       1.0  0.02126  0.56992  0.56992  1.0000 0.547685736
C   C25       1.0  0.38378  0.38378  0.97846  1.0000 -0.0487402236
C   C26       1.0  0.38378  0.38378  0.25398  1.0000 -0.0487402236
C   C27       1.0  0.97846  0.25398  0.38378  1.0000 -0.0487402236
C   C28       1.0  0.25398  0.97846  0.38378  1.0000 -0.0487402236
C   C29       1.0  0.97846  0.38378  0.38378  1.0000 -0.0487402236
C   C30       1.0  0.25398  0.38378  0.38378  1.0000 -0.0487402236
C   C31       1.0  0.38378  0.97846  0.25398  1.0000 -0.0487402236
C   C32       1.0  0.38378  0.25398  0.97846  1.0000 -0.0487402236
C   C33       1.0  0.38378  0.97846  0.38378  1.0000 -0.0487402236
C   C34       1.0  0.38378  0.25398  0.38378  1.0000 -0.0487402236
C   C35       1.0  0.25398  0.38378  0.97846  1.0000 -0.0487402236
C   C36       1.0  0.97846  0.38378  0.25398  1.0000 -0.0487402236
C   C37       1.0  0.61622  0.61622  0.74602  1.0000 -0.0487402236
C   C38       1.0  0.61622  0.61622  0.02154  1.0000 -0.0487402236
C   C39       1.0  0.02154  0.74602  0.61622  1.0000 -0.0487402236
C   C40       1.0  0.74602  0.02154  0.61622  1.0000 -0.0487402236
C   C41       1.0  0.02154  0.61622  0.74602  1.0000 -0.0487402236
C   C42       1.0  0.74602  0.61622  0.02154  1.0000 -0.0487402236
C   C43       1.0  0.61622  0.02154  0.61622  1.0000 -0.0487402236
C   C44       1.0  0.61622  0.74602  0.61622  1.0000 -0.0487402236
C   C45       1.0  0.61622  0.02154  0.74602  1.0000 -0.0487402236
C   C46       1.0  0.61622  0.74602  0.02154  1.0000 -0.0487402236
C   C47       1.0  0.74602  0.61622  0.61622  1.0000 -0.0487402236
C   C48       1.0  0.02154  0.61622  0.61622  1.0000 -0.0487402236
C   C49       1.0  0.29724  0.42706  0.97846  1.0000 -0.1064996032
C   C50       1.0  0.42706  0.29724  0.29724  1.0000 -0.1064996032
C   C51       1.0  0.97846  0.29724  0.29724  1.0000 -0.1064996032
C   C52       1.0  0.29724  0.97846  0.42706  1.0000 -0.1064996032
C   C53       1.0  0.97846  0.29724  0.42706  1.0000 -0.1064996032
C   C54       1.0  0.29724  0.42706  0.29724  1.0000 -0.1064996032
C   C55       1.0  0.29724  0.97846  0.29724  1.0000 -0.1064996032
C   C56       1.0  0.42706  0.29724  0.97846  1.0000 -0.1064996032
C   C57       1.0  0.42706  0.97846  0.29724  1.0000 -0.1064996032
C   C58       1.0  0.29724  0.29724  0.42706  1.0000 -0.1064996032
C   C59       1.0  0.29724  0.29724  0.97846  1.0000 -0.1047717624
C   C60       1.0  0.97846  0.42706  0.29724  1.0000 -0.1064996032
C   C61       1.0  0.70276  0.57294  0.70276  1.0000 -0.1064996032
C   C62       1.0  0.57294  0.70276  0.02154  1.0000 -0.1064996032
C   C63       1.0  0.02154  0.70276  0.57294  1.0000 -0.1064996032
C   C64       1.0  0.70276  0.02154  0.70276  1.0000 -0.1064996032
C   C65       1.0  0.02154  0.70276  0.70276  1.0000 -0.1064996032
C   C66       1.0  0.70276  0.57294  0.02154  1.0000 -0.1064996032
C   C67       1.0  0.70276  0.02154  0.57294  1.0000 -0.1064996032
C   C68       1.0  0.57294  0.70276  0.70276  1.0000 -0.1064996032
C   C69       1.0  0.57294  0.02154  0.70276  1.0000 -0.1064996032
C   C70       1.0  0.70276  0.70276  0.02154  1.0000 -0.1064996032
C   C71       1.0  0.70276  0.70276  0.57294  1.0000 -0.1064996032
C   C72       1.0  0.02154  0.57294  0.70276  1.0000 -0.1064996032
O   O1        1.0  0.50516  0.39676  0.97890  1.0000 -0.4442491153
O   O2        1.0  0.39676  0.50516  0.11918  1.0000 -0.4458345364
O   O3        1.0  0.97890  0.11918  0.50516  1.0000 -0.4458345364
O   O4        1.0  0.11918  0.97890  0.39676  1.0000 -0.4442491153
O   O5        1.0  0.97890  0.50516  0.39676  1.0000 -0.4442491153
O   O6        1.0  0.11918  0.39676  0.50516  1.0000 -0.4442491153
O   O7        1.0  0.50516  0.97890  0.11918  1.0000 -0.4442491153
O   O8        1.0  0.39676  0.11918  0.97890  1.0000 -0.4458345364
O   O9        1.0  0.39676  0.97890  0.50516  1.0000 -0.4442491153
O   O10       1.0  0.50516  0.11918  0.39676  1.0000 -0.4442491153
O   O11       1.0  0.11918  0.50516  0.97890  1.0000 -0.4458345364
O   O12       1.0  0.97890  0.39676  0.11918  1.0000 -0.4458345364
O   O13       1.0  0.49484  0.60324  0.88082  1.0000 -0.4442491153
O   O14       1.0  0.60324  0.49484  0.02110  1.0000 -0.4458345364
O   O15       1.0  0.02110  0.88082  0.60324  1.0000 -0.4442491153
O   O16       1.0  0.88082  0.02110  0.49484  1.0000 -0.4458345364
O   O17       1.0  0.02110  0.49484  0.88082  1.0000 -0.4458345364
O   O18       1.0  0.88082  0.60324  0.02110  1.0000 -0.4458345364
O   O19       1.0  0.49484  0.02110  0.60324  1.0000 -0.4458345364
O   O20       1.0  0.60324  0.88082  0.49484  1.0000 -0.4458345364
O   O21       1.0  0.60324  0.02110  0.88082  1.0000 -0.4458345364
O   O22       1.0  0.49484  0.88082  0.02110  1.0000 -0.4442491153
O   O23       1.0  0.88082  0.49484  0.60324  1.0000 -0.4458345364
O   O24       1.0  0.02110  0.60324  0.49484  1.0000 -0.4458345364
O   O25       1.0  0.49484  0.60324  0.02110  1.0000 -0.4458345364
O   O26       1.0  0.60324  0.49484  0.88082  1.0000 -0.4458345364
O   O27       1.0  0.02110  0.88082  0.49484  1.0000 -0.4458345364
O   O28       1.0  0.88082  0.02110  0.60324  1.0000 -0.4458345364
O   O29       1.0  0.02110  0.49484  0.60324  1.0000 -0.4458345364
O   O30       1.0  0.88082  0.60324  0.49484  1.0000 -0.4458345364
O   O31       1.0  0.49484  0.02110  0.88082  1.0000 -0.4458345364
O   O32       1.0  0.60324  0.88082  0.02110  1.0000 -0.4442491153
O   O33       1.0  0.60324  0.02110  0.49484  1.0000 -0.4458345364
O   O34       1.0  0.49484  0.88082  0.60324  1.0000 -0.4442491153
O   O35       1.0  0.88082  0.49484  0.02110  1.0000 -0.4458345364
O   O36       1.0  0.02110  0.60324  0.88082  1.0000 -0.4458345364
O   O37       1.0  0.50516  0.39676  0.11918  1.0000 -0.4458345364
O   O38       1.0  0.39676  0.50516  0.97890  1.0000 -0.4458345364
O   O39       1.0  0.97890  0.11918  0.39676  1.0000 -0.4458345364
O   O40       1.0  0.11918  0.97890  0.50516  1.0000 -0.4458345364
O   O41       1.0  0.97890  0.50516  0.11918  1.0000 -0.4442491153
O   O42       1.0  0.11918  0.39676  0.97890  1.0000 -0.4458345364
O   O43       1.0  0.50516  0.97890  0.39676  1.0000 -0.4442491153
O   O44       1.0  0.39676  0.11918  0.50516  1.0000 -0.4458345364
O   O45       1.0  0.39676  0.97890  0.11918  1.0000 -0.4442491153
O   O46       1.0  0.50516  0.11918  0.97890  1.0000 -0.4458345364
O   O47       1.0  0.11918  0.50516  0.39676  1.0000 -0.4458345364
O   O48       1.0  0.97890  0.39676  0.50516  1.0000 -0.4442491153
