# DDEC6 charges by PACMAN v1.1 (https://github.com/mtap-research/PACMAN-charge/)
data_2013[Tb][umc]3[ASR]2
_chemical_formula_sum              "Tb4 H68 C96 O28"
_cell_length_a       15.1466
_cell_length_b       15.1466
_cell_length_c       26.8239
_cell_angle_alpha    69.1655
_cell_angle_beta     110.834
_cell_angle_gamma    117.878

_symmetry_space_group_name_H-M    "P 1"
_symmetry_Int_Tables_number       1

loop_
  _symmetry_equiv_pos_as_xyz
  'x, y, z'

loop_
  _atom_site_type_symbol
  _atom_site_label
  _atom_site_symmetry_multiplicity
  _atom_site_fract_x
  _atom_site_fract_y
  _atom_site_fract_z
  _atom_site_occupancy
  _atom_site_charge
Tb  Tb1       1.0  0.79786  0.91570  0.94903  1.0000 2.0150069622
Tb  Tb2       1.0  0.91570  0.79786  0.55097  1.0000 2.0150069622
Tb  Tb3       1.0  0.20214  0.08430  0.05097  1.0000 2.0143937496
Tb  Tb4       1.0  0.08430  0.20214  0.44903  1.0000 2.0143937496
H   H1        1.0  0.84190  0.02250  0.75850  1.0000 0.110345945
H   H2        1.0  0.02250  0.84190  0.74150  1.0000 0.110345945
H   H3        1.0  0.15810  0.97750  0.24150  1.0000 0.110345945
H   H4        1.0  0.97750  0.15810  0.25850  1.0000 0.110345945
H   H5        1.0  0.86420  0.35240  0.72800  1.0000 0.1203800339
H   H6        1.0  0.35240  0.86420  0.77200  1.0000 0.1203800339
H   H7        1.0  0.13580  0.64760  0.27200  1.0000 0.1203800339
H   H8        1.0  0.64760  0.13580  0.22800  1.0000 0.1203800339
H   H9        1.0  0.83040  0.23860  0.80870  1.0000 0.1203800339
H   H10       1.0  0.23860  0.83040  0.69130  1.0000 0.1203800339
H   H11       1.0  0.16960  0.76140  0.19130  1.0000 0.1203800339
H   H12       1.0  0.76140  0.16960  0.30870  1.0000 0.1203800339
H   H13       1.0  0.93000  0.21260  0.53820  1.0000 0.1278249251
H   H14       1.0  0.21260  0.93000  0.96180  1.0000 0.1278249251
H   H15       1.0  0.07000  0.78740  0.46180  1.0000 0.1278249251
H   H16       1.0  0.78740  0.07000  0.03820  1.0000 0.1278249251
H   H17       1.0  0.87350  0.98330  0.70550  1.0000 0.110345945
H   H18       1.0  0.98330  0.87350  0.79450  1.0000 0.110345945
H   H19       1.0  0.12650  0.01670  0.29450  1.0000 0.110345945
H   H20       1.0  0.01670  0.12650  0.20550  1.0000 0.110345945
H   H21       1.0  0.89050  0.93150  0.63820  1.0000 0.1278249251
H   H22       1.0  0.93150  0.89050  0.86180  1.0000 0.1278249251
H   H23       1.0  0.10950  0.06850  0.36180  1.0000 0.1278249251
H   H24       1.0  0.06850  0.10950  0.13820  1.0000 0.1278249251
H   H25       1.0  0.87320  0.44480  0.65370  1.0000 0.1203800339
H   H26       1.0  0.44480  0.87320  0.84630  1.0000 0.1203800339
H   H27       1.0  0.12680  0.55520  0.34630  1.0000 0.1203800339
H   H28       1.0  0.55520  0.12680  0.15370  1.0000 0.1203800339
H   H29       1.0  0.91670  0.34950  0.52120  1.0000 0.1203800339
H   H30       1.0  0.34950  0.91670  0.97880  1.0000 0.1203800339
H   H31       1.0  0.08330  0.65050  0.47880  1.0000 0.1203800339
H   H32       1.0  0.65050  0.08330  0.02120  1.0000 0.1203800339
H   H33       1.0  0.91620  0.50820  0.50200  1.0000 0.1203800339
H   H34       1.0  0.50820  0.91620  0.99800  1.0000 0.1203800339
H   H35       1.0  0.08380  0.49180  0.49800  1.0000 0.1203800339
H   H36       1.0  0.49180  0.08380  0.00200  1.0000 0.1203800339
H   H37       1.0  0.76860  0.85180  0.08270  1.0000 0.0991984931
H   H38       1.0  0.85180  0.76860  0.41730  1.0000 0.0991984931
H   H39       1.0  0.23140  0.14820  0.91730  1.0000 0.0991984931
H   H40       1.0  0.14820  0.23140  0.58270  1.0000 0.0991984931
H   H41       1.0  0.74420  0.73180  0.10060  1.0000 0.110345945
H   H42       1.0  0.73180  0.74420  0.39940  1.0000 0.110345945
H   H43       1.0  0.25580  0.26820  0.89940  1.0000 0.110345945
H   H44       1.0  0.26820  0.25580  0.60060  1.0000 0.110345945
H   H45       1.0  0.91460  0.76120  0.15090  1.0000 0.0991984931
H   H46       1.0  0.76120  0.91460  0.34910  1.0000 0.0991984931
H   H47       1.0  0.08540  0.23880  0.84910  1.0000 0.0991984931
H   H48       1.0  0.23880  0.08540  0.65090  1.0000 0.0991984931
H   H49       1.0  0.94830  0.88310  0.12810  1.0000 0.0919445184
H   H50       1.0  0.88310  0.94830  0.37190  1.0000 0.0919445184
H   H51       1.0  0.05170  0.11690  0.87190  1.0000 0.0919445184
H   H52       1.0  0.11690  0.05170  0.62810  1.0000 0.0919445184
H   H53       1.0  0.85490  0.76190  0.21580  1.0000 0.1278249251
H   H54       1.0  0.76190  0.85490  0.28420  1.0000 0.1278249251
H   H55       1.0  0.14510  0.23810  0.78420  1.0000 0.1278249251
H   H56       1.0  0.23810  0.14510  0.71580  1.0000 0.1278249251
H   H57       1.0  0.90640  0.88460  0.19960  1.0000 0.1203800339
H   H58       1.0  0.88460  0.90640  0.30040  1.0000 0.1203800339
H   H59       1.0  0.09360  0.11540  0.80040  1.0000 0.1203800339
H   H60       1.0  0.11540  0.09360  0.69960  1.0000 0.1203800339
H   H61       1.0  0.78900  0.82540  0.17200  1.0000 0.1203800339
H   H62       1.0  0.82540  0.78900  0.32800  1.0000 0.1203800339
H   H63       1.0  0.21100  0.17460  0.82800  1.0000 0.1203800339
H   H64       1.0  0.17460  0.21100  0.67200  1.0000 0.1203800339
H   H65       1.0  0.88090  0.82450  0.04510  1.0000 0.346073362
H   H66       1.0  0.82450  0.88090  0.45490  1.0000 0.346073362
H   H67       1.0  0.11910  0.17550  0.95490  1.0000 0.346073362
H   H68       1.0  0.17550  0.11910  0.54510  1.0000 0.346073362
C   C1        1.0  0.81990  0.04510  0.84560  1.0000 0.5581212518
C   C2        1.0  0.04510  0.81990  0.65440  1.0000 0.5581212518
C   C3        1.0  0.18010  0.95490  0.15440  1.0000 0.5581212518
C   C4        1.0  0.95490  0.18010  0.34560  1.0000 0.5581212518
C   C5        1.0  0.83620  0.11680  0.79390  1.0000 -0.0523572415
C   C6        1.0  0.11680  0.83620  0.70610  1.0000 -0.0523572415
C   C7        1.0  0.16380  0.88320  0.20610  1.0000 -0.0523572415
C   C8        1.0  0.88320  0.16380  0.29390  1.0000 -0.0523572415
C   C9        1.0  0.84710  0.09030  0.75240  1.0000 -0.1317744079
C   C10       1.0  0.09030  0.84710  0.74760  1.0000 -0.1317744079
C   C11       1.0  0.15290  0.90970  0.24760  1.0000 -0.1317744079
C   C12       1.0  0.90970  0.15290  0.25240  1.0000 -0.1317744079
C   C13       1.0  0.86520  0.15760  0.70280  1.0000 0.0121098039
C   C14       1.0  0.15760  0.86520  0.79720  1.0000 0.0121098039
C   C15       1.0  0.13480  0.84240  0.29720  1.0000 0.0121098039
C   C16       1.0  0.84240  0.13480  0.20280  1.0000 0.0121098039
C   C17       1.0  0.86870  0.25670  0.69160  1.0000 0.0331526705
C   C18       1.0  0.25670  0.86870  0.80840  1.0000 0.0331526705
C   C19       1.0  0.13130  0.74330  0.30840  1.0000 0.0331526705
C   C20       1.0  0.74330  0.13130  0.19160  1.0000 0.0331526705
C   C21       1.0  0.85840  0.28440  0.73380  1.0000 -0.1603313434
C   C22       1.0  0.28440  0.85840  0.76620  1.0000 -0.1603313434
C   C23       1.0  0.14160  0.71560  0.26620  1.0000 -0.1603313434
C   C24       1.0  0.71560  0.14160  0.23380  1.0000 -0.1603313434
C   C25       1.0  0.84030  0.21770  0.78230  1.0000 -0.0887735608
C   C26       1.0  0.21770  0.84030  0.71770  1.0000 -0.0887735608
C   C27       1.0  0.15970  0.78230  0.21770  1.0000 -0.0887735608
C   C28       1.0  0.78230  0.15970  0.28230  1.0000 -0.0887735608
C   C29       1.0  0.93610  0.04190  0.54200  1.0000 0.6565623907
C   C30       1.0  0.04190  0.93610  0.95800  1.0000 0.6565623907
C   C31       1.0  0.06390  0.95810  0.45800  1.0000 0.6565623907
C   C32       1.0  0.95810  0.06390  0.04200  1.0000 0.6565623907
C   C33       1.0  0.91510  0.07010  0.58340  1.0000 -0.0382190841
C   C34       1.0  0.07010  0.91510  0.91660  1.0000 -0.0382190841
C   C35       1.0  0.08490  0.92990  0.41660  1.0000 -0.0382190841
C   C36       1.0  0.92990  0.08490  0.08340  1.0000 -0.0382190841
C   C37       1.0  0.91680  0.16620  0.57200  1.0000 -0.1384818359
C   C38       1.0  0.16620  0.91680  0.92800  1.0000 -0.1384818359
C   C39       1.0  0.08320  0.83380  0.42800  1.0000 -0.1384818359
C   C40       1.0  0.83380  0.08320  0.07200  1.0000 -0.1384818359
C   C41       1.0  0.89870  0.19730  0.61110  1.0000 0.0177698476
C   C42       1.0  0.19730  0.89870  0.88890  1.0000 0.0177698476
C   C43       1.0  0.10130  0.80270  0.38890  1.0000 0.0177698476
C   C44       1.0  0.80270  0.10130  0.11110  1.0000 0.0177698476
C   C45       1.0  0.88300  0.12800  0.66130  1.0000 0.0331526705
C   C46       1.0  0.12800  0.88300  0.83870  1.0000 0.0331526705
C   C47       1.0  0.11700  0.87200  0.33870  1.0000 0.0331526705
C   C48       1.0  0.87200  0.11700  0.16130  1.0000 0.0331526705
C   C49       1.0  0.88260  0.02980  0.67110  1.0000 -0.1603313434
C   C50       1.0  0.02980  0.88260  0.82890  1.0000 -0.1603313434
C   C51       1.0  0.11740  0.97020  0.32890  1.0000 -0.1603313434
C   C52       1.0  0.97020  0.11740  0.17110  1.0000 -0.1603313434
C   C53       1.0  0.89530  0.99930  0.63190  1.0000 -0.0998836281
C   C54       1.0  0.99930  0.89530  0.86810  1.0000 -0.0998836281
C   C55       1.0  0.10470  0.00070  0.36810  1.0000 -0.0998836281
C   C56       1.0  0.00070  0.10470  0.13190  1.0000 -0.0998836281
C   C57       1.0  0.90100  0.59800  0.56700  1.0000 0.5581212518
C   C58       1.0  0.59800  0.90100  0.93300  1.0000 0.5581212518
C   C59       1.0  0.09900  0.40200  0.43300  1.0000 0.5581212518
C   C60       1.0  0.40200  0.09900  0.06700  1.0000 0.5581212518
C   C61       1.0  0.89810  0.49310  0.57840  1.0000 -0.0021538752
C   C62       1.0  0.49310  0.89810  0.92160  1.0000 -0.0021538752
C   C63       1.0  0.10190  0.50690  0.42160  1.0000 -0.0021538752
C   C64       1.0  0.50690  0.10190  0.07840  1.0000 -0.0021538752
C   C65       1.0  0.88420  0.42540  0.62710  1.0000 -0.1384818359
C   C66       1.0  0.42540  0.88420  0.87290  1.0000 -0.1384818359
C   C67       1.0  0.11580  0.57460  0.37290  1.0000 -0.1384818359
C   C68       1.0  0.57460  0.11580  0.12710  1.0000 -0.1384818359
C   C69       1.0  0.88560  0.32960  0.63940  1.0000 0.0177698476
C   C70       1.0  0.32960  0.88560  0.86060  1.0000 0.0177698476
C   C71       1.0  0.11440  0.67040  0.36060  1.0000 0.0177698476
C   C72       1.0  0.67040  0.11440  0.13940  1.0000 0.0177698476
C   C73       1.0  0.89800  0.29840  0.59910  1.0000 0.0357665372
C   C74       1.0  0.29840  0.89800  0.90090  1.0000 0.0357665372
C   C75       1.0  0.10200  0.70160  0.40090  1.0000 0.0357665372
C   C76       1.0  0.70160  0.10200  0.09910  1.0000 0.0357665372
C   C77       1.0  0.90890  0.36930  0.54880  1.0000 -0.1456443305
C   C78       1.0  0.36930  0.90890  0.95120  1.0000 -0.1456443305
C   C79       1.0  0.09110  0.63070  0.45120  1.0000 -0.1456443305
C   C80       1.0  0.63070  0.09110  0.04880  1.0000 -0.1456443305
C   C81       1.0  0.90900  0.46320  0.53690  1.0000 -0.0998836281
C   C82       1.0  0.46320  0.90900  0.96310  1.0000 -0.0998836281
C   C83       1.0  0.09100  0.53680  0.46310  1.0000 -0.0998836281
C   C84       1.0  0.53680  0.09100  0.03690  1.0000 -0.0998836281
C   C85       1.0  0.79730  0.80050  0.08990  1.0000 0.0177698476
C   C86       1.0  0.80050  0.79730  0.41010  1.0000 0.0177698476
C   C87       1.0  0.20270  0.19950  0.91010  1.0000 0.0177698476
C   C88       1.0  0.19950  0.20270  0.58990  1.0000 0.0177698476
C   C89       1.0  0.89110  0.81810  0.13880  1.0000 -0.1603313434
C   C90       1.0  0.81810  0.89110  0.36120  1.0000 -0.1603313434
C   C91       1.0  0.10890  0.18190  0.86120  1.0000 -0.1603313434
C   C92       1.0  0.18190  0.10890  0.63880  1.0000 -0.1603313434
C   C93       1.0  0.85720  0.82300  0.18590  1.0000 -0.3738527569
C   C94       1.0  0.82300  0.85720  0.31410  1.0000 -0.3738527569
C   C95       1.0  0.14280  0.17700  0.81410  1.0000 -0.3738527569
C   C96       1.0  0.17700  0.14280  0.68590  1.0000 -0.3738527569
O   O1        1.0  0.82660  0.07860  0.88600  1.0000 -0.649627951
O   O2        1.0  0.07860  0.82660  0.61400  1.0000 -0.649627951
O   O3        1.0  0.17340  0.92140  0.11400  1.0000 -0.649627951
O   O4        1.0  0.92140  0.17340  0.38600  1.0000 -0.649627951
O   O5        1.0  0.79820  0.95080  0.85270  1.0000 -0.6215756508
O   O6        1.0  0.95080  0.79820  0.64730  1.0000 -0.6215756508
O   O7        1.0  0.20180  0.04920  0.14730  1.0000 -0.6215756508
O   O8        1.0  0.04920  0.20180  0.35270  1.0000 -0.6215756508
O   O9        1.0  0.91580  0.94860  0.54712  1.0000 -0.7129223916
O   O10       1.0  0.94860  0.91580  0.95288  1.0000 -0.7129223916
O   O11       1.0  0.08420  0.05140  0.45288  1.0000 -0.7129223916
O   O12       1.0  0.05140  0.08420  0.04712  1.0000 -0.7129223916
O   O13       1.0  0.96390  0.10970  0.50170  1.0000 -0.6397753927
O   O14       1.0  0.10970  0.96390  0.99830  1.0000 -0.6397753927
O   O15       1.0  0.03610  0.89030  0.49830  1.0000 -0.6397753927
O   O16       1.0  0.89030  0.03610  0.00170  1.0000 -0.6397753927
O   O17       1.0  0.91310  0.65930  0.52340  1.0000 -0.5848140689
O   O18       1.0  0.65930  0.91310  0.97660  1.0000 -0.5848140689
O   O19       1.0  0.08690  0.34070  0.47660  1.0000 -0.5848140689
O   O20       1.0  0.34070  0.08690  0.02340  1.0000 -0.5848140689
O   O21       1.0  0.88650  0.62410  0.60220  1.0000 -0.6215756508
O   O22       1.0  0.62410  0.88650  0.89780  1.0000 -0.6215756508
O   O23       1.0  0.11350  0.37590  0.39780  1.0000 -0.6215756508
O   O24       1.0  0.37590  0.11350  0.10220  1.0000 -0.6215756508
O   O25       1.0  0.81740  0.80680  0.03950  1.0000 -0.5277928683
O   O26       1.0  0.80680  0.81740  0.46050  1.0000 -0.5277928683
O   O27       1.0  0.18260  0.19320  0.96050  1.0000 -0.5277928683
O   O28       1.0  0.19320  0.18260  0.53950  1.0000 -0.5277928683
