# DDEC6 charges by PACMAN v1.1 (https://github.com/mtap-research/PACMAN-charge/)
data_2013[Hf][bcu]3[ASR]2
_chemical_formula_sum              "Hf6 H24 C48 O24"
_cell_length_a       16.8098
_cell_length_b       16.8098
_cell_length_c       16.8098
_cell_angle_alpha    116.865
_cell_angle_beta     116.865
_cell_angle_gamma    95.5218

_symmetry_space_group_name_H-M    "P 1"
_symmetry_Int_Tables_number       1

loop_
  _symmetry_equiv_pos_as_xyz
  'x, y, z'

loop_
  _atom_site_type_symbol
  _atom_site_label
  _atom_site_symmetry_multiplicity
  _atom_site_fract_x
  _atom_site_fract_y
  _atom_site_fract_z
  _atom_site_occupancy
  _atom_site_charge
Hf  Hf1       1.0  0.39173  0.39173  0.00000  1.0000 1.4638094922
Hf  Hf2       1.0  0.60827  0.60827  0.00000  1.0000 1.4638094922
Hf  Hf3       1.0  0.59976  0.59976  0.19952  1.0000 1.4900637885
Hf  Hf4       1.0  0.59976  0.40024  0.00000  1.0000 1.5081803024
Hf  Hf5       1.0  0.40024  0.40024  0.80048  1.0000 1.5081803024
Hf  Hf6       1.0  0.40024  0.59976  0.00000  1.0000 1.5081803024
H   H1        1.0  0.35580  0.35580  0.22840  1.0000 0.1397830007
H   H2        1.0  0.35580  0.12740  0.00000  1.0000 0.1397830007
H   H3        1.0  0.12740  0.12740  0.77160  1.0000 0.1397830007
H   H4        1.0  0.12740  0.35580  0.00000  1.0000 0.1397830007
H   H5        1.0  0.64420  0.87260  0.00000  1.0000 0.1397830007
H   H6        1.0  0.87260  0.87260  0.22840  1.0000 0.1397830007
H   H7        1.0  0.87260  0.64420  0.00000  1.0000 0.1397830007
H   H8        1.0  0.64420  0.64420  0.77160  1.0000 0.1397830007
H   H9        1.0  0.34410  0.34410  0.35380  1.0000 0.1187020541
H   H10       1.0  0.34410  0.99030  0.00000  1.0000 0.1187020541
H   H11       1.0  0.99030  0.99030  0.64620  1.0000 0.1187020541
H   H12       1.0  0.99030  0.34410  0.00000  1.0000 0.1187020541
H   H13       1.0  0.65590  0.00970  0.00000  1.0000 0.1187020541
H   H14       1.0  0.00970  0.00970  0.35380  1.0000 0.1187020541
H   H15       1.0  0.00970  0.65590  0.00000  1.0000 0.1187020541
H   H16       1.0  0.65590  0.65590  0.64620  1.0000 0.1187020541
H   H17       1.0  0.59360  0.59360  0.46040  1.0000 0.1187020541
H   H18       1.0  0.59360  0.13320  0.00000  1.0000 0.1187020541
H   H19       1.0  0.13320  0.13320  0.53960  1.0000 0.1187020541
H   H20       1.0  0.13320  0.59360  0.00000  1.0000 0.1187020541
H   H21       1.0  0.40640  0.86680  0.00000  1.0000 0.1187020541
H   H22       1.0  0.86680  0.86680  0.46040  1.0000 0.1187020541
H   H23       1.0  0.86680  0.40640  0.00000  1.0000 0.1187020541
H   H24       1.0  0.40640  0.40640  0.53960  1.0000 0.1187020541
C   C1        1.0  0.48010  0.48010  0.24500  1.0000 0.5657327195
C   C2        1.0  0.48010  0.23510  0.00000  1.0000 0.5657327195
C   C3        1.0  0.23510  0.23510  0.75500  1.0000 0.5645166059
C   C4        1.0  0.23510  0.48010  0.00000  1.0000 0.5657327195
C   C5        1.0  0.51990  0.76490  0.00000  1.0000 0.5657327195
C   C6        1.0  0.76490  0.76490  0.24500  1.0000 0.5645166059
C   C7        1.0  0.76490  0.51990  0.00000  1.0000 0.5657327195
C   C8        1.0  0.51990  0.51990  0.75500  1.0000 0.5657327195
C   C9        1.0  0.47540  0.47540  0.32980  1.0000 -0.0311599349
C   C10       1.0  0.47540  0.14560  0.00000  1.0000 -0.0311599349
C   C11       1.0  0.14560  0.14560  0.67020  1.0000 -0.0311599349
C   C12       1.0  0.14560  0.47540  0.00000  1.0000 -0.0311599349
C   C13       1.0  0.52460  0.85440  0.00000  1.0000 -0.0311599349
C   C14       1.0  0.85440  0.85440  0.32980  1.0000 -0.0311599349
C   C15       1.0  0.85440  0.52460  0.00000  1.0000 -0.0311599349
C   C16       1.0  0.52460  0.52460  0.67020  1.0000 -0.0311599349
C   C17       1.0  0.40190  0.40190  0.30100  1.0000 -0.0942434734
C   C18       1.0  0.40190  0.10090  0.00000  1.0000 -0.095662346
C   C19       1.0  0.10090  0.10090  0.69900  1.0000 -0.0942434734
C   C20       1.0  0.10090  0.40190  0.00000  1.0000 -0.0942434734
C   C21       1.0  0.59810  0.89910  0.00000  1.0000 -0.0942434734
C   C22       1.0  0.89910  0.89910  0.30100  1.0000 -0.0942434734
C   C23       1.0  0.89910  0.59810  0.00000  1.0000 -0.0942434734
C   C24       1.0  0.59810  0.59810  0.69900  1.0000 -0.0942434734
C   C25       1.0  0.39450  0.39450  0.37620  1.0000 -0.1489755119
C   C26       1.0  0.39450  0.01830  0.00000  1.0000 -0.1489755119
C   C27       1.0  0.01830  0.01830  0.62380  1.0000 -0.1489755119
C   C28       1.0  0.01830  0.39450  0.00000  1.0000 -0.1489755119
C   C29       1.0  0.60550  0.98170  0.00000  1.0000 -0.1489755119
C   C30       1.0  0.98170  0.98170  0.37620  1.0000 -0.1489755119
C   C31       1.0  0.98170  0.60550  0.00000  1.0000 -0.1489755119
C   C32       1.0  0.60550  0.60550  0.62380  1.0000 -0.1489755119
C   C33       1.0  0.46250  0.46250  0.48560  1.0000 0.0659048647
C   C34       1.0  0.46250  0.97690  0.00000  1.0000 0.0659048647
C   C35       1.0  0.97690  0.97690  0.51440  1.0000 0.0659048647
C   C36       1.0  0.97690  0.46250  0.00000  1.0000 0.0659048647
C   C37       1.0  0.53750  0.02310  0.00000  1.0000 0.0659048647
C   C38       1.0  0.02310  0.02310  0.48560  1.0000 0.0659048647
C   C39       1.0  0.02310  0.53750  0.00000  1.0000 0.0659048647
C   C40       1.0  0.53750  0.53750  0.51440  1.0000 0.0659048647
C   C41       1.0  0.54340  0.54340  0.43880  1.0000 -0.1489755119
C   C42       1.0  0.54340  0.10460  0.00000  1.0000 -0.1489755119
C   C43       1.0  0.10460  0.10460  0.56120  1.0000 -0.1489755119
C   C44       1.0  0.10460  0.54340  0.00000  1.0000 -0.1489755119
C   C45       1.0  0.45660  0.89540  0.00000  1.0000 -0.1489755119
C   C46       1.0  0.89540  0.89540  0.43880  1.0000 -0.1489755119
C   C47       1.0  0.89540  0.45660  0.00000  1.0000 -0.1489755119
C   C48       1.0  0.45660  0.45660  0.56120  1.0000 -0.1489755119
O   O1        1.0  0.41770  0.41770  0.15060  1.0000 -0.4692008662
O   O2        1.0  0.41770  0.26710  0.00000  1.0000 -0.4692008662
O   O3        1.0  0.26710  0.26710  0.84940  1.0000 -0.4692008662
O   O4        1.0  0.26710  0.41770  0.00000  1.0000 -0.4692008662
O   O5        1.0  0.58230  0.73290  0.00000  1.0000 -0.4692008662
O   O6        1.0  0.73290  0.73290  0.15060  1.0000 -0.4692008662
O   O7        1.0  0.73290  0.58230  0.00000  1.0000 -0.4692008662
O   O8        1.0  0.58230  0.58230  0.84940  1.0000 -0.4692008662
O   O9        1.0  0.55040  0.55040  0.27800  1.0000 -0.5033725182
O   O10       1.0  0.55040  0.27240  0.00000  1.0000 -0.507097292
O   O11       1.0  0.27240  0.27240  0.72200  1.0000 -0.507097292
O   O12       1.0  0.27240  0.55040  0.00000  1.0000 -0.507097292
O   O13       1.0  0.44960  0.72760  0.00000  1.0000 -0.507097292
O   O14       1.0  0.72760  0.72760  0.27800  1.0000 -0.5033725182
O   O15       1.0  0.72760  0.44960  0.00000  1.0000 -0.507097292
O   O16       1.0  0.44960  0.44960  0.72200  1.0000 -0.507097292
O   O17       1.0  0.54800  0.44760  0.10040  1.0000 -0.7273998688
O   O18       1.0  0.44760  0.34720  0.89960  1.0000 -0.7273998688
O   O19       1.0  0.34720  0.44760  0.89960  1.0000 -0.7273998688
O   O20       1.0  0.44760  0.54800  0.10040  1.0000 -0.7273998688
O   O21       1.0  0.45200  0.55240  0.89960  1.0000 -0.7273998688
O   O22       1.0  0.55240  0.65280  0.10040  1.0000 -0.7273998688
O   O23       1.0  0.65280  0.55240  0.10040  1.0000 -0.7273998688
O   O24       1.0  0.55240  0.45200  0.89960  1.0000 -0.7273998688
