# DDEC6 charges by PACMAN v1.1 (https://github.com/mtap-research/PACMAN-charge/)
data_2013[Zr][sqc]3[ASR]1
_chemical_formula_sum              "Zr12 H112 C192 N16 O48"
_cell_length_a       40.8679
_cell_length_b       40.8679
_cell_length_c       40.8679
_cell_angle_alpha    156.591
_cell_angle_beta     156.591
_cell_angle_gamma    33.3435

_symmetry_space_group_name_H-M    "P 1"
_symmetry_Int_Tables_number       1

loop_
  _symmetry_equiv_pos_as_xyz
  'x, y, z'

loop_
  _atom_site_type_symbol
  _atom_site_label
  _atom_site_symmetry_multiplicity
  _atom_site_fract_x
  _atom_site_fract_y
  _atom_site_fract_z
  _atom_site_occupancy
  _atom_site_charge
Zr  Zr1       1.0  0.21888  0.71888  0.50000  1.0000 2.3321559055
Zr  Zr2       1.0  0.46888  0.46888  0.00000  1.0000 2.3321559055
Zr  Zr3       1.0  0.53112  0.53112  0.00000  1.0000 2.3321559055
Zr  Zr4       1.0  0.28112  0.78112  0.50000  1.0000 2.3321559055
Zr  Zr5       1.0  0.35652  0.64348  0.50000  1.0000 2.4483741744
Zr  Zr6       1.0  0.39348  0.39348  0.78696  1.0000 2.4483741744
Zr  Zr7       1.0  0.14348  0.85652  0.50000  1.0000 2.4483741744
Zr  Zr8       1.0  0.60652  0.60652  0.21304  1.0000 2.4483741744
Zr  Zr9       1.0  0.39348  0.60652  0.00000  1.0000 2.4483741744
Zr  Zr10      1.0  0.35652  0.85652  0.71304  1.0000 2.4483741744
Zr  Zr11      1.0  0.60652  0.39348  0.00000  1.0000 2.4483741744
Zr  Zr12      1.0  0.14348  0.64348  0.28696  1.0000 2.4483741744
H   H1        1.0  0.38830  0.14040  0.24790  1.0000 0.2302569149
H   H2        1.0  0.89040  0.14250  0.25210  1.0000 0.2302569149
H   H3        1.0  0.89250  0.14040  0.75210  1.0000 0.2302569149
H   H4        1.0  0.89040  0.63830  0.74790  1.0000 0.2302569149
H   H5        1.0  0.36170  0.10960  0.25210  1.0000 0.2302569149
H   H6        1.0  0.85750  0.10960  0.74790  1.0000 0.2302569149
H   H7        1.0  0.85960  0.10750  0.24790  1.0000 0.2302569149
H   H8        1.0  0.85960  0.61170  0.75210  1.0000 0.2302569149
H   H9        1.0  0.24360  0.52270  0.41110  1.0000 0.1117504287
H   H10       1.0  0.27270  0.36160  0.77910  1.0000 0.1117504287
H   H11       1.0  0.11160  0.83250  0.58890  1.0000 0.1117504287
H   H12       1.0  0.58250  0.49360  0.22090  1.0000 0.1117504287
H   H13       1.0  0.50640  0.41750  0.77910  1.0000 0.1117504287
H   H14       1.0  0.63840  0.72730  0.22090  1.0000 0.1117504287
H   H15       1.0  0.16750  0.88840  0.41110  1.0000 0.1117504287
H   H16       1.0  0.47730  0.75640  0.58890  1.0000 0.1117504287
H   H17       1.0  0.50640  0.72730  0.08890  1.0000 0.1117504287
H   H18       1.0  0.47730  0.88840  0.72090  1.0000 0.1117504287
H   H19       1.0  0.63840  0.41750  0.91110  1.0000 0.1117504287
H   H20       1.0  0.16750  0.75640  0.27910  1.0000 0.1117504287
H   H21       1.0  0.24360  0.83250  0.72090  1.0000 0.1117504287
H   H22       1.0  0.11160  0.52270  0.27910  1.0000 0.1117504287
H   H23       1.0  0.58250  0.36160  0.08890  1.0000 0.1117504287
H   H24       1.0  0.27270  0.49360  0.91110  1.0000 0.1117504287
H   H25       1.0  0.26330  0.41380  0.36530  1.0000 0.1117504287
H   H26       1.0  0.16380  0.29850  0.65050  1.0000 0.1117504287
H   H27       1.0  0.04850  0.89800  0.63470  1.0000 0.1117504287
H   H28       1.0  0.64800  0.51330  0.34950  1.0000 0.1117504287
H   H29       1.0  0.48670  0.35200  0.65050  1.0000 0.1117504287
H   H30       1.0  0.70150  0.83620  0.34950  1.0000 0.1117504287
H   H31       1.0  0.10200  0.95150  0.36530  1.0000 0.1117504287
H   H32       1.0  0.58620  0.73670  0.63470  1.0000 0.1117504287
H   H33       1.0  0.48670  0.83620  0.13470  1.0000 0.1117504287
H   H34       1.0  0.58620  0.95150  0.84950  1.0000 0.1117504287
H   H35       1.0  0.70150  0.35200  0.86530  1.0000 0.1117504287
H   H36       1.0  0.10200  0.73670  0.15050  1.0000 0.1117504287
H   H37       1.0  0.26330  0.89800  0.84950  1.0000 0.1117504287
H   H38       1.0  0.04850  0.41380  0.15050  1.0000 0.1117504287
H   H39       1.0  0.64800  0.29850  0.13470  1.0000 0.1117504287
H   H40       1.0  0.16380  0.51330  0.86530  1.0000 0.1117504287
H   H41       1.0  0.47590  0.36360  0.46830  1.0000 0.1196497018
H   H42       1.0  0.11360  0.14530  0.38770  1.0000 0.1196497018
H   H43       1.0  0.89530  0.00760  0.53170  1.0000 0.1196497018
H   H44       1.0  0.75760  0.72590  0.61230  1.0000 0.1196497018
H   H45       1.0  0.27410  0.24240  0.38770  1.0000 0.1196497018
H   H46       1.0  0.85470  0.88640  0.61230  1.0000 0.1196497018
H   H47       1.0  0.99240  0.10470  0.46830  1.0000 0.1196497018
H   H48       1.0  0.63640  0.52410  0.53170  1.0000 0.1196497018
H   H49       1.0  0.27410  0.88640  0.03170  1.0000 0.1196497018
H   H50       1.0  0.63640  0.10470  0.11230  1.0000 0.1196497018
H   H51       1.0  0.85470  0.24240  0.96830  1.0000 0.1196497018
H   H52       1.0  0.99240  0.52410  0.88770  1.0000 0.1196497018
H   H53       1.0  0.47590  0.00760  0.11230  1.0000 0.1196497018
H   H54       1.0  0.89530  0.36360  0.88770  1.0000 0.1196497018
H   H55       1.0  0.75760  0.14530  0.03170  1.0000 0.1196497018
H   H56       1.0  0.11360  0.72590  0.96830  1.0000 0.1196497018
H   H57       1.0  0.45430  0.47090  0.51000  1.0000 0.1117504287
H   H58       1.0  0.22090  0.21090  0.51660  1.0000 0.1117504287
H   H59       1.0  0.96090  0.94430  0.49000  1.0000 0.1117504287
H   H60       1.0  0.69430  0.70430  0.48340  1.0000 0.1117504287
H   H61       1.0  0.29570  0.30570  0.51660  1.0000 0.1117504287
H   H62       1.0  0.78910  0.77910  0.48340  1.0000 0.1117504287
H   H63       1.0  0.05570  0.03910  0.51000  1.0000 0.1117504287
H   H64       1.0  0.52910  0.54570  0.49000  1.0000 0.1117504287
H   H65       1.0  0.29570  0.77910  0.99000  1.0000 0.1117504287
H   H66       1.0  0.52910  0.03910  0.98340  1.0000 0.1117504287
H   H67       1.0  0.78910  0.30570  0.01000  1.0000 0.1117504287
H   H68       1.0  0.05570  0.54570  0.01660  1.0000 0.1117504287
H   H69       1.0  0.45430  0.94430  0.98340  1.0000 0.1117504287
H   H70       1.0  0.96090  0.47090  0.01660  1.0000 0.1117504287
H   H71       1.0  0.69430  0.21090  0.99000  1.0000 0.1117504287
H   H72       1.0  0.22090  0.70430  0.01000  1.0000 0.1117504287
H   H73       1.0  0.37570  0.44090  0.53580  1.0000 0.1299124433
H   H74       1.0  0.19090  0.15510  0.56520  1.0000 0.1299124433
H   H75       1.0  0.90510  0.83990  0.46420  1.0000 0.1299124433
H   H76       1.0  0.58990  0.62570  0.43480  1.0000 0.1299124433
H   H77       1.0  0.37430  0.41010  0.56520  1.0000 0.1299124433
H   H78       1.0  0.84490  0.80910  0.43480  1.0000 0.1299124433
H   H79       1.0  0.16010  0.09490  0.53580  1.0000 0.1299124433
H   H80       1.0  0.55910  0.62430  0.46420  1.0000 0.1299124433
H   H81       1.0  0.37430  0.80910  0.96420  1.0000 0.1299124433
H   H82       1.0  0.55910  0.09490  0.93480  1.0000 0.1299124433
H   H83       1.0  0.84490  0.41010  0.03580  1.0000 0.1299124433
H   H84       1.0  0.16010  0.62430  0.06520  1.0000 0.1299124433
H   H85       1.0  0.37570  0.83990  0.93480  1.0000 0.1299124433
H   H86       1.0  0.90510  0.44090  0.06520  1.0000 0.1299124433
H   H87       1.0  0.58990  0.15510  0.96420  1.0000 0.1299124433
H   H88       1.0  0.19090  0.62570  0.03580  1.0000 0.1299124433
H   H89       1.0  0.34740  0.25870  0.23510  1.0000 0.1299124433
H   H90       1.0  0.00870  0.27360  0.41130  1.0000 0.1299124433
H   H91       1.0  0.02360  0.11230  0.76490  1.0000 0.1299124433
H   H92       1.0  0.86230  0.59740  0.58870  1.0000 0.1299124433
H   H93       1.0  0.40260  0.13770  0.41130  1.0000 0.1299124433
H   H94       1.0  0.72640  0.99130  0.58870  1.0000 0.1299124433
H   H95       1.0  0.88770  0.97640  0.23510  1.0000 0.1299124433
H   H96       1.0  0.74130  0.65260  0.76490  1.0000 0.1299124433
H   H97       1.0  0.40260  0.99130  0.26490  1.0000 0.1299124433
H   H98       1.0  0.74130  0.97640  0.08870  1.0000 0.1299124433
H   H99       1.0  0.72640  0.13770  0.73510  1.0000 0.1299124433
H   H100      1.0  0.88770  0.65260  0.91130  1.0000 0.1299124433
H   H101      1.0  0.34740  0.11230  0.08870  1.0000 0.1299124433
H   H102      1.0  0.02360  0.25870  0.91130  1.0000 0.1299124433
H   H103      1.0  0.86230  0.27360  0.26490  1.0000 0.1299124433
H   H104      1.0  0.00870  0.59740  0.73510  1.0000 0.1299124433
H   H105      1.0  0.37500  0.19640  0.32140  1.0000 0.2302569149
H   H106      1.0  0.94640  0.12500  0.32140  1.0000 0.2302569149
H   H107      1.0  0.87500  0.05360  0.67860  1.0000 0.2302569149
H   H108      1.0  0.80360  0.62500  0.67860  1.0000 0.2302569149
H   H109      1.0  0.37500  0.05360  0.17860  1.0000 0.2302569149
H   H110      1.0  0.80360  0.12500  0.17860  1.0000 0.2302569149
H   H111      1.0  0.87500  0.19640  0.82140  1.0000 0.2302569149
H   H112      1.0  0.94640  0.62500  0.82140  1.0000 0.2302569149
C   C1        1.0  0.33174  0.57104  0.48530  1.0000 0.621750973
C   C2        1.0  0.32104  0.33574  0.73930  1.0000 0.621750973
C   C3        1.0  0.08574  0.84644  0.51470  1.0000 0.621750973
C   C4        1.0  0.59644  0.58174  0.26070  1.0000 0.621750973
C   C5        1.0  0.41826  0.40356  0.73930  1.0000 0.621750973
C   C6        1.0  0.66426  0.67896  0.26070  1.0000 0.621750973
C   C7        1.0  0.15356  0.91426  0.48530  1.0000 0.621750973
C   C8        1.0  0.42896  0.66826  0.51470  1.0000 0.621750973
C   C9        1.0  0.41826  0.67896  0.01470  1.0000 0.621750973
C   C10       1.0  0.42896  0.91426  0.76070  1.0000 0.621750973
C   C11       1.0  0.66426  0.40356  0.98530  1.0000 0.621750973
C   C12       1.0  0.15356  0.66826  0.23930  1.0000 0.621750973
C   C13       1.0  0.33174  0.84644  0.76070  1.0000 0.621750973
C   C14       1.0  0.08574  0.57104  0.23930  1.0000 0.621750973
C   C15       1.0  0.59644  0.33574  0.01470  1.0000 0.621750973
C   C16       1.0  0.32104  0.58174  0.98530  1.0000 0.621750973
C   C17       1.0  0.34785  0.50675  0.46550  1.0000 -0.0604908542
C   C18       1.0  0.25675  0.29125  0.65890  1.0000 -0.0604908542
C   C19       1.0  0.04125  0.88235  0.53450  1.0000 -0.0604908542
C   C20       1.0  0.63235  0.59785  0.34110  1.0000 -0.0604908542
C   C21       1.0  0.40215  0.36765  0.65890  1.0000 -0.0604908542
C   C22       1.0  0.70875  0.74325  0.34110  1.0000 -0.0604908542
C   C23       1.0  0.11765  0.95875  0.46550  1.0000 -0.0604908542
C   C24       1.0  0.49325  0.65215  0.53450  1.0000 -0.0604908542
C   C25       1.0  0.40215  0.74325  0.03450  1.0000 -0.0604908542
C   C26       1.0  0.49325  0.95875  0.84110  1.0000 -0.0604908542
C   C27       1.0  0.70875  0.36765  0.96550  1.0000 -0.0604908542
C   C28       1.0  0.11765  0.65215  0.15890  1.0000 -0.0604908542
C   C29       1.0  0.34785  0.88235  0.84110  1.0000 -0.0604908542
C   C30       1.0  0.04125  0.50675  0.15890  1.0000 -0.0604908542
C   C31       1.0  0.63235  0.29125  0.03450  1.0000 -0.0604908542
C   C32       1.0  0.25675  0.59785  0.96550  1.0000 -0.0604908542
C   C33       1.0  0.29056  0.49006  0.42210  1.0000 -0.0904722997
C   C34       1.0  0.24006  0.31796  0.69950  1.0000 -0.0904722997
C   C35       1.0  0.06796  0.86846  0.57790  1.0000 -0.0904722997
C   C36       1.0  0.61846  0.54056  0.30050  1.0000 -0.0904722997
C   C37       1.0  0.45944  0.38154  0.69950  1.0000 -0.0904722997
C   C38       1.0  0.68204  0.75994  0.30050  1.0000 -0.0904722997
C   C39       1.0  0.13154  0.93204  0.42210  1.0000 -0.0904722997
C   C40       1.0  0.50994  0.70944  0.57790  1.0000 -0.0904722997
C   C41       1.0  0.45944  0.75994  0.07790  1.0000 -0.0904722997
C   C42       1.0  0.50994  0.93204  0.80050  1.0000 -0.0904722997
C   C43       1.0  0.68204  0.38154  0.92210  1.0000 -0.0904722997
C   C44       1.0  0.13154  0.70944  0.19950  1.0000 -0.0904722997
C   C45       1.0  0.29056  0.86846  0.80050  1.0000 -0.0904722997
C   C46       1.0  0.06796  0.49006  0.19950  1.0000 -0.0904722997
C   C47       1.0  0.61846  0.31796  0.07790  1.0000 -0.0904722997
C   C48       1.0  0.24006  0.54056  0.92210  1.0000 -0.0904722997
C   C49       1.0  0.30219  0.42509  0.39450  1.0000 -0.1702917979
C   C50       1.0  0.17509  0.28059  0.62290  1.0000 -0.1702917979
C   C51       1.0  0.03059  0.90769  0.60550  1.0000 -0.1702917979
C   C52       1.0  0.65769  0.55219  0.37710  1.0000 -0.1702917979
C   C53       1.0  0.44781  0.34231  0.62290  1.0000 -0.1702917979
C   C54       1.0  0.71941  0.82491  0.37710  1.0000 -0.1702917979
C   C55       1.0  0.09231  0.96941  0.39450  1.0000 -0.1702917979
C   C56       1.0  0.57491  0.69781  0.60550  1.0000 -0.1702917979
C   C57       1.0  0.44781  0.82491  0.10550  1.0000 -0.1702917979
C   C58       1.0  0.57491  0.96941  0.87710  1.0000 -0.1702917979
C   C59       1.0  0.71941  0.34231  0.89450  1.0000 -0.1702917979
C   C60       1.0  0.09231  0.69781  0.12290  1.0000 -0.1702917979
C   C61       1.0  0.30219  0.90769  0.87710  1.0000 -0.1702917979
C   C62       1.0  0.03059  0.42509  0.12290  1.0000 -0.1702917979
C   C63       1.0  0.65769  0.28059  0.10550  1.0000 -0.1702917979
C   C64       1.0  0.17509  0.55219  0.89450  1.0000 -0.1702917979
C   C65       1.0  0.37012  0.37662  0.40930  1.0000 0.0840534455
C   C66       1.0  0.12662  0.21732  0.50650  1.0000 0.0840534455
C   C67       1.0  0.96732  0.96082  0.59070  1.0000 0.0840534455
C   C68       1.0  0.71082  0.62012  0.49350  1.0000 0.0840534455
C   C69       1.0  0.37988  0.28918  0.50650  1.0000 0.0840534455
C   C70       1.0  0.78268  0.87338  0.49350  1.0000 0.0840534455
C   C71       1.0  0.03918  0.03268  0.40930  1.0000 0.0840534455
C   C72       1.0  0.62338  0.62988  0.59070  1.0000 0.0840534455
C   C73       1.0  0.37988  0.87338  0.09070  1.0000 0.0840534455
C   C74       1.0  0.62338  0.03268  0.99350  1.0000 0.0840534455
C   C75       1.0  0.78268  0.28918  0.90930  1.0000 0.0840534455
C   C76       1.0  0.03918  0.62988  0.00650  1.0000 0.0840534455
C   C77       1.0  0.37012  0.96082  0.99350  1.0000 0.0840534455
C   C78       1.0  0.96732  0.37662  0.00650  1.0000 0.0840534455
C   C79       1.0  0.71082  0.21732  0.09070  1.0000 0.0840534455
C   C80       1.0  0.12662  0.62012  0.90930  1.0000 0.0840534455
C   C81       1.0  0.42799  0.39499  0.45500  1.0000 -0.1702917979
C   C82       1.0  0.14499  0.18999  0.46700  1.0000 -0.1702917979
C   C83       1.0  0.93999  0.97299  0.54500  1.0000 -0.1702917979
C   C84       1.0  0.72299  0.67799  0.53300  1.0000 -0.1702917979
C   C85       1.0  0.32201  0.27701  0.46700  1.0000 -0.1702917979
C   C86       1.0  0.81001  0.85501  0.53300  1.0000 -0.1702917979
C   C87       1.0  0.02701  0.06001  0.45500  1.0000 -0.1702917979
C   C88       1.0  0.60501  0.57201  0.54500  1.0000 -0.1702917979
C   C89       1.0  0.32201  0.85501  0.04500  1.0000 -0.1702917979
C   C90       1.0  0.60501  0.06001  0.03300  1.0000 -0.1702917979
C   C91       1.0  0.81001  0.27701  0.95500  1.0000 -0.1702917979
C   C92       1.0  0.02701  0.57201  0.96700  1.0000 -0.1702917979
C   C93       1.0  0.42799  0.97299  0.03300  1.0000 -0.1702917979
C   C94       1.0  0.93999  0.39499  0.96700  1.0000 -0.1702917979
C   C95       1.0  0.72299  0.18999  0.04500  1.0000 -0.1702917979
C   C96       1.0  0.14499  0.67799  0.95500  1.0000 -0.1702917979
C   C97       1.0  0.41573  0.45963  0.48130  1.0000 -0.0904722997
C   C98       1.0  0.20963  0.22833  0.54390  1.0000 -0.0904722997
C   C99       1.0  0.97833  0.93443  0.51870  1.0000 -0.0904722997
C   C100      1.0  0.68443  0.66573  0.45610  1.0000 -0.0904722997
C   C101      1.0  0.33427  0.31557  0.54390  1.0000 -0.0904722997
C   C102      1.0  0.77167  0.79037  0.45610  1.0000 -0.0904722997
C   C103      1.0  0.06557  0.02167  0.48130  1.0000 -0.0904722997
C   C104      1.0  0.54037  0.58427  0.51870  1.0000 -0.0904722997
C   C105      1.0  0.33427  0.79037  0.01870  1.0000 -0.0904722997
C   C106      1.0  0.54037  0.02167  0.95610  1.0000 -0.0904722997
C   C107      1.0  0.77167  0.31557  0.98130  1.0000 -0.0904722997
C   C108      1.0  0.06557  0.58427  0.04390  1.0000 -0.0904722997
C   C109      1.0  0.41573  0.93443  0.95610  1.0000 -0.0904722997
C   C110      1.0  0.97833  0.45963  0.04390  1.0000 -0.0904722997
C   C111      1.0  0.68443  0.22833  0.01870  1.0000 -0.0904722997
C   C112      1.0  0.20963  0.66573  0.98130  1.0000 -0.0904722997
C   C113      1.0  0.37732  0.30322  0.36910  1.0000 -0.1032328407
C   C114      1.0  0.05322  0.18412  0.42590  1.0000 -0.1032328407
C   C115      1.0  0.93412  0.00822  0.63090  1.0000 -0.1032328407
C   C116      1.0  0.75822  0.62732  0.57410  1.0000 -0.1032328407
C   C117      1.0  0.37268  0.24178  0.42590  1.0000 -0.1032328407
C   C118      1.0  0.81588  0.94678  0.57410  1.0000 -0.1032328407
C   C119      1.0  0.99178  0.06588  0.36910  1.0000 -0.1032328407
C   C120      1.0  0.69678  0.62268  0.63090  1.0000 -0.1032328407
C   C121      1.0  0.37268  0.94678  0.13090  1.0000 -0.1032328407
C   C122      1.0  0.69678  0.06588  0.07410  1.0000 -0.1032328407
C   C123      1.0  0.81588  0.24178  0.86910  1.0000 -0.1032328407
C   C124      1.0  0.99178  0.62268  0.92590  1.0000 -0.1032328407
C   C125      1.0  0.37732  0.00822  0.07410  1.0000 -0.1032328407
C   C126      1.0  0.93412  0.30322  0.92590  1.0000 -0.1032328407
C   C127      1.0  0.75822  0.18412  0.13090  1.0000 -0.1032328407
C   C128      1.0  0.05322  0.62732  0.86910  1.0000 -0.1032328407
C   C129      1.0  0.37488  0.31278  0.41010  1.0000 0.1196497018
C   C130      1.0  0.06278  0.15268  0.43790  1.0000 0.1196497018
C   C131      1.0  0.90268  0.96478  0.58990  1.0000 0.1196497018
C   C132      1.0  0.71478  0.62488  0.56210  1.0000 0.1196497018
C   C133      1.0  0.37512  0.28522  0.43790  1.0000 0.1196497018
C   C134      1.0  0.84732  0.93722  0.56210  1.0000 0.1196497018
C   C135      1.0  0.03522  0.09732  0.41010  1.0000 0.1196497018
C   C136      1.0  0.68722  0.62512  0.58990  1.0000 0.1196497018
C   C137      1.0  0.37512  0.93722  0.08990  1.0000 0.1196497018
C   C138      1.0  0.68722  0.09732  0.06210  1.0000 0.1196497018
C   C139      1.0  0.84732  0.28522  0.91010  1.0000 0.1196497018
C   C140      1.0  0.03522  0.62512  0.93790  1.0000 0.1196497018
C   C141      1.0  0.37488  0.96478  0.06210  1.0000 0.1196497018
C   C142      1.0  0.90268  0.31278  0.93790  1.0000 0.1196497018
C   C143      1.0  0.71478  0.15268  0.08990  1.0000 0.1196497018
C   C144      1.0  0.06278  0.62488  0.91010  1.0000 0.1196497018
C   C145      1.0  0.37520  0.38760  0.49600  1.0000 -0.2005951108
C   C146      1.0  0.13760  0.14160  0.51240  1.0000 -0.2005951108
C   C147      1.0  0.89160  0.87920  0.50400  1.0000 -0.2005951108
C   C148      1.0  0.62920  0.62520  0.48760  1.0000 -0.2005951108
C   C149      1.0  0.37480  0.37080  0.51240  1.0000 -0.2005951108
C   C150      1.0  0.85840  0.86240  0.48760  1.0000 -0.2005951108
C   C151      1.0  0.12080  0.10840  0.49600  1.0000 -0.2005951108
C   C152      1.0  0.61240  0.62480  0.50400  1.0000 -0.2005951108
C   C153      1.0  0.37480  0.86240  0.00400  1.0000 -0.2005951108
C   C154      1.0  0.61240  0.10840  0.98760  1.0000 -0.2005951108
C   C155      1.0  0.85840  0.37080  0.99600  1.0000 -0.2005951108
C   C156      1.0  0.12080  0.62480  0.01240  1.0000 -0.2005951108
C   C157      1.0  0.37520  0.87920  0.98760  1.0000 -0.2005951108
C   C158      1.0  0.89160  0.38760  0.01240  1.0000 -0.2005951108
C   C159      1.0  0.62920  0.14160  0.00400  1.0000 -0.2005951108
C   C160      1.0  0.13760  0.62520  0.99600  1.0000 -0.2005951108
C   C161      1.0  0.37411  0.22761  0.28050  1.0000 0.1299124433
C   C162      1.0  0.97761  0.19711  0.35350  1.0000 0.1299124433
C   C163      1.0  0.94711  0.09361  0.71950  1.0000 0.1299124433
C   C164      1.0  0.84361  0.62411  0.64650  1.0000 0.1299124433
C   C165      1.0  0.37589  0.15639  0.35350  1.0000 0.1299124433
C   C166      1.0  0.80289  0.02239  0.64650  1.0000 0.1299124433
C   C167      1.0  0.90639  0.05289  0.28050  1.0000 0.1299124433
C   C168      1.0  0.77239  0.62589  0.71950  1.0000 0.1299124433
C   C169      1.0  0.37589  0.02239  0.21950  1.0000 0.1299124433
C   C170      1.0  0.77239  0.05289  0.14650  1.0000 0.1299124433
C   C171      1.0  0.80289  0.15639  0.78050  1.0000 0.1299124433
C   C172      1.0  0.90639  0.62589  0.85350  1.0000 0.1299124433
C   C173      1.0  0.37411  0.09361  0.14650  1.0000 0.1299124433
C   C174      1.0  0.94711  0.22761  0.85350  1.0000 0.1299124433
C   C175      1.0  0.84361  0.19711  0.21950  1.0000 0.1299124433
C   C176      1.0  0.97761  0.62411  0.78050  1.0000 0.1299124433
C   C177      1.0  0.35708  0.21618  0.22030  1.0000 -0.1888359814
C   C178      1.0  0.96618  0.24588  0.35910  1.0000 -0.1888359814
C   C179      1.0  0.99588  0.13678  0.77970  1.0000 -0.1888359814
C   C180      1.0  0.88678  0.60708  0.64090  1.0000 -0.1888359814
C   C181      1.0  0.39292  0.11322  0.35910  1.0000 -0.1888359814
C   C182      1.0  0.75412  0.03382  0.64090  1.0000 -0.1888359814
C   C183      1.0  0.86322  0.00412  0.22030  1.0000 -0.1888359814
C   C184      1.0  0.78382  0.64292  0.77970  1.0000 -0.1888359814
C   C185      1.0  0.39292  0.03382  0.27970  1.0000 -0.1888359814
C   C186      1.0  0.78382  0.00412  0.14090  1.0000 -0.1888359814
C   C187      1.0  0.75412  0.11322  0.72030  1.0000 -0.1888359814
C   C188      1.0  0.86322  0.64292  0.85910  1.0000 -0.1888359814
C   C189      1.0  0.35708  0.13678  0.14090  1.0000 -0.1888359814
C   C190      1.0  0.99588  0.21618  0.85910  1.0000 -0.1888359814
C   C191      1.0  0.88678  0.24588  0.27970  1.0000 -0.1888359814
C   C192      1.0  0.96618  0.60708  0.72030  1.0000 -0.1888359814
N   N1        1.0  0.38085  0.15095  0.22990  1.0000 -0.3044593708
N   N2        1.0  0.90095  0.17105  0.27010  1.0000 -0.3044593708
N   N3        1.0  0.92105  0.15095  0.77010  1.0000 -0.3044593708
N   N4        1.0  0.90095  0.63085  0.72990  1.0000 -0.3044593708
N   N5        1.0  0.36915  0.09905  0.27010  1.0000 -0.3044593708
N   N6        1.0  0.82895  0.09905  0.72990  1.0000 -0.3044593708
N   N7        1.0  0.84905  0.07895  0.22990  1.0000 -0.3044593708
N   N8        1.0  0.84905  0.61915  0.77010  1.0000 -0.3044593708
N   N9        1.0  0.37500  0.24940  0.37440  1.0000 -0.3053384201
N   N10       1.0  0.99940  0.12500  0.37440  1.0000 -0.3053384201
N   N11       1.0  0.87500  0.00060  0.62560  1.0000 -0.3044593708
N   N12       1.0  0.75060  0.62500  0.62560  1.0000 -0.3053384201
N   N13       1.0  0.37500  0.00060  0.12560  1.0000 -0.3053384201
N   N14       1.0  0.75060  0.12500  0.12560  1.0000 -0.3053384201
N   N15       1.0  0.87500  0.24940  0.87440  1.0000 -0.3053384201
N   N16       1.0  0.99940  0.62500  0.87440  1.0000 -0.3053384201
O   O1        1.0  0.36531  0.56779  0.48548  1.0000 -0.6090635175
O   O2        1.0  0.31779  0.33231  0.70248  1.0000 -0.6090635175
O   O3        1.0  0.08231  0.87983  0.51452  1.0000 -0.6090635175
O   O4        1.0  0.62983  0.61531  0.29752  1.0000 -0.6090635175
O   O5        1.0  0.38469  0.37017  0.70248  1.0000 -0.6090635175
O   O6        1.0  0.66769  0.68221  0.29752  1.0000 -0.6090635175
O   O7        1.0  0.12017  0.91769  0.48548  1.0000 -0.6090635175
O   O8        1.0  0.43221  0.63469  0.51452  1.0000 -0.6090635175
O   O9        1.0  0.38469  0.68221  0.01452  1.0000 -0.6090635175
O   O10       1.0  0.43221  0.91769  0.79752  1.0000 -0.6090635175
O   O11       1.0  0.66769  0.37017  0.98548  1.0000 -0.6090635175
O   O12       1.0  0.12017  0.63469  0.20248  1.0000 -0.6090635175
O   O13       1.0  0.36531  0.87983  0.79752  1.0000 -0.6090635175
O   O14       1.0  0.08231  0.56779  0.20248  1.0000 -0.6090635175
O   O15       1.0  0.62983  0.33231  0.01452  1.0000 -0.6090635175
O   O16       1.0  0.31779  0.61531  0.98548  1.0000 -0.6090635175
O   O17       1.0  0.28267  0.62356  0.49737  1.0000 -0.5550504701
O   O18       1.0  0.37356  0.37619  0.84089  1.0000 -0.554525234
O   O19       1.0  0.12619  0.78530  0.50263  1.0000 -0.5550504701
O   O20       1.0  0.53530  0.53267  0.15911  1.0000 -0.554525234
O   O21       1.0  0.46733  0.46470  0.84089  1.0000 -0.5550504701
O   O22       1.0  0.62381  0.62644  0.15911  1.0000 -0.554525234
O   O23       1.0  0.21470  0.87381  0.49737  1.0000 -0.5550504701
O   O24       1.0  0.37644  0.71733  0.50263  1.0000 -0.5550504701
O   O25       1.0  0.46733  0.62644  0.00263  1.0000 -0.5550504701
O   O26       1.0  0.37644  0.87381  0.65911  1.0000 -0.5550504701
O   O27       1.0  0.62381  0.46470  0.99737  1.0000 -0.5550504701
O   O28       1.0  0.21470  0.71733  0.34089  1.0000 -0.5550504701
O   O29       1.0  0.28267  0.78530  0.65911  1.0000 -0.5550504701
O   O30       1.0  0.12619  0.62356  0.34089  1.0000 -0.5550504701
O   O31       1.0  0.53530  0.37619  0.00263  1.0000 -0.554525234
O   O32       1.0  0.37356  0.53267  0.99737  1.0000 -0.554525234
O   O33       1.0  0.23650  0.64628  0.40978  1.0000 -1.1701580958
O   O34       1.0  0.39628  0.48650  0.90978  1.0000 -1.1701580958
O   O35       1.0  0.23650  0.82672  0.59022  1.0000 -1.1701580958
O   O36       1.0  0.57672  0.48650  0.09022  1.0000 -1.1701580958
O   O37       1.0  0.51350  0.42328  0.90978  1.0000 -1.1701580958
O   O38       1.0  0.51350  0.60372  0.09022  1.0000 -1.1701580958
O   O39       1.0  0.17328  0.76350  0.40978  1.0000 -1.1701580958
O   O40       1.0  0.35372  0.76350  0.59022  1.0000 -1.1701580958
O   O41       1.0  0.35508  0.73279  0.62229  1.0000 -1.1580391602
O   O42       1.0  0.48279  0.36050  0.87771  1.0000 -1.1580391602
O   O43       1.0  0.11050  0.73279  0.37771  1.0000 -1.1580391602
O   O44       1.0  0.48279  0.60508  0.12229  1.0000 -1.1580391602
O   O45       1.0  0.39492  0.51721  0.87771  1.0000 -1.1580391602
O   O46       1.0  0.63950  0.51721  0.12229  1.0000 -1.1580391602
O   O47       1.0  0.26721  0.88950  0.62229  1.0000 -1.1580391602
O   O48       1.0  0.26721  0.64492  0.37771  1.0000 -1.1580391602
