# DDEC6 charges by PACMAN v1.1 (https://github.com/mtap-research/PACMAN-charge/)
data_2013[Cu][pts]3[ASR]4
_chemical_formula_sum              "Cu4 H72 C94 O20"
_cell_length_a       15.01
_cell_length_b       16.62
_cell_length_c       19.29
_cell_angle_alpha    102.288
_cell_angle_beta     91.786
_cell_angle_gamma    93.3

_symmetry_space_group_name_H-M    "P 1"
_symmetry_Int_Tables_number       1

loop_
  _symmetry_equiv_pos_as_xyz
  'x, y, z'

loop_
  _atom_site_type_symbol
  _atom_site_label
  _atom_site_symmetry_multiplicity
  _atom_site_fract_x
  _atom_site_fract_y
  _atom_site_fract_z
  _atom_site_occupancy
  _atom_site_charge
Cu  Cu1       1.0  0.54358  0.50664  0.44229  1.0000 0.8991438889
Cu  Cu2       1.0  0.45642  0.49336  0.55771  1.0000 0.8991438889
Cu  Cu3       1.0  0.52726  0.54286  0.95284  1.0000 0.8991438889
Cu  Cu4       1.0  0.47274  0.45714  0.04716  1.0000 0.8991438889
H   H1        1.0  0.42820  0.28030  0.29680  1.0000 0.1281992347
H   H2        1.0  0.57180  0.71970  0.70320  1.0000 0.1281992347
H   H3        1.0  0.35700  0.15230  0.24310  1.0000 0.1281992347
H   H4        1.0  0.64300  0.84770  0.75690  1.0000 0.1210228912
H   H5        1.0  0.27220  0.12400  0.43440  1.0000 0.1210228912
H   H6        1.0  0.72780  0.87600  0.56560  1.0000 0.1210228912
H   H7        1.0  0.34350  0.25200  0.48810  1.0000 0.1281992347
H   H8        1.0  0.65650  0.74800  0.51190  1.0000 0.1281992347
H   H9        1.0  0.14510  0.83660  0.23590  1.0000 0.1210228912
H   H10       1.0  0.85490  0.16340  0.76410  1.0000 0.1210228912
H   H11       1.0  0.14960  0.06700  0.35940  1.0000 0.1210228912
H   H12       1.0  0.85040  0.93300  0.64060  1.0000 0.1210228912
H   H13       1.0  0.34940  0.88970  0.10950  1.0000 0.1281992347
H   H14       1.0  0.65060  0.11030  0.89050  1.0000 0.1281992347
H   H15       1.0  0.41240  0.77410  0.04280  1.0000 0.1281992347
H   H16       1.0  0.58760  0.22590  0.95720  1.0000 0.1281992347
H   H17       1.0  0.33410  0.64020  0.18560  1.0000 0.1210228912
H   H18       1.0  0.66590  0.35980  0.81440  1.0000 0.1210228912
H   H19       1.0  0.27120  0.75590  0.25230  1.0000 0.1095696196
H   H20       1.0  0.72880  0.24410  0.74770  1.0000 0.1095696196
H   H21       1.0  0.06910  0.94200  0.43450  1.0000 0.1210228912
H   H22       1.0  0.93090  0.05800  0.56550  1.0000 0.1210228912
H   H23       1.0  0.96690  0.95620  0.41760  1.0000 0.1364512735
H   H24       1.0  0.03310  0.04380  0.58240  1.0000 0.1364512735
H   H25       1.0  0.04340  0.02560  0.41260  1.0000 0.1210228912
H   H26       1.0  0.95660  0.97440  0.58740  1.0000 0.1210228912
H   H27       1.0  0.90660  0.95420  0.29690  1.0000 0.1281992347
H   H28       1.0  0.09340  0.04580  0.70310  1.0000 0.1281992347
H   H29       1.0  0.97140  0.93870  0.23180  1.0000 0.1281992347
H   H30       1.0  0.02860  0.06130  0.76820  1.0000 0.1281992347
H   H31       1.0  0.98020  0.02460  0.28850  1.0000 0.1281992347
H   H32       1.0  0.01980  0.97540  0.71150  1.0000 0.1281992347
H   H33       1.0  0.12380  0.82560  0.38320  1.0000 0.1210228912
H   H34       1.0  0.87620  0.17440  0.61680  1.0000 0.1210228912
H   H35       1.0  0.90630  0.82060  0.25220  1.0000 0.1210228912
H   H36       1.0  0.09370  0.17940  0.74780  1.0000 0.1210228912
H   H37       1.0  0.21050  0.65570  0.28400  1.0000 0.1095696196
H   H38       1.0  0.78950  0.34430  0.71600  1.0000 0.1095696196
H   H39       1.0  0.33470  0.59970  0.32730  1.0000 0.1281992347
H   H40       1.0  0.66530  0.40030  0.67270  1.0000 0.1281992347
H   H41       1.0  0.21610  0.60710  0.51420  1.0000 0.1210228912
H   H42       1.0  0.78390  0.39290  0.48580  1.0000 0.1210228912
H   H43       1.0  0.09200  0.66320  0.47090  1.0000 0.1281992347
H   H44       1.0  0.90800  0.33680  0.52910  1.0000 0.1281992347
H   H45       1.0  0.81120  0.59530  0.28070  1.0000 0.1281992347
H   H46       1.0  0.18880  0.40470  0.71930  1.0000 0.1281992347
H   H47       1.0  0.69050  0.53290  0.20480  1.0000 0.1281992347
H   H48       1.0  0.30950  0.46710  0.79520  1.0000 0.1281992347
H   H49       1.0  0.76930  0.66180  0.05870  1.0000 0.1281992347
H   H50       1.0  0.23070  0.33820  0.94130  1.0000 0.1281992347
H   H51       1.0  0.88990  0.72430  0.13460  1.0000 0.1210228912
H   H52       1.0  0.11010  0.27570  0.86540  1.0000 0.1210228912
H   H53       1.0  0.46210  0.92570  0.27690  1.0000 0.1005409037
H   H54       1.0  0.53790  0.07430  0.72310  1.0000 0.1005409037
H   H55       1.0  0.44600  0.01240  0.33040  1.0000 0.0881902767
H   H56       1.0  0.55400  0.98760  0.66960  1.0000 0.0881902767
H   H57       1.0  0.59810  0.02460  0.27180  1.0000 0.1210228912
H   H58       1.0  0.40190  0.97540  0.72820  1.0000 0.1210228912
H   H59       1.0  0.53360  0.09060  0.25190  1.0000 0.1210228912
H   H60       1.0  0.46640  0.90940  0.74810  1.0000 0.1210228912
H   H61       1.0  0.54580  0.00630  0.19590  1.0000 0.1210228912
H   H62       1.0  0.45420  0.99370  0.80410  1.0000 0.1210228912
H   H63       1.0  0.08480  0.56100  0.22490  1.0000 0.1005409037
H   H64       1.0  0.91520  0.43900  0.77510  1.0000 0.1005409037
H   H65       1.0  0.98430  0.54920  0.18860  1.0000 0.1005409037
H   H66       1.0  0.01570  0.45080  0.81140  1.0000 0.1005409037
H   H67       1.0  0.03740  0.40400  0.20430  1.0000 0.1210228912
H   H68       1.0  0.96260  0.59600  0.79570  1.0000 0.1210228912
H   H69       1.0  0.94830  0.42520  0.24600  1.0000 0.1210228912
H   H70       1.0  0.05170  0.57480  0.75400  1.0000 0.1210228912
H   H71       1.0  0.04330  0.43970  0.28820  1.0000 0.1281992347
H   H72       1.0  0.95670  0.56030  0.71180  1.0000 0.1281992347
C   C1        1.0  0.43100  0.36230  0.43480  1.0000 0.5767257654
C   C2        1.0  0.56900  0.63770  0.56520  1.0000 0.5767257654
C   C3        1.0  0.39250  0.27820  0.39750  1.0000 -0.0169275596
C   C4        1.0  0.60750  0.72180  0.60250  1.0000 -0.0169275596
C   C5        1.0  0.39660  0.24860  0.32470  1.0000 -0.09105961
C   C6        1.0  0.60340  0.75140  0.67530  1.0000 -0.09105961
C   C7        1.0  0.35420  0.17250  0.29280  1.0000 -0.1492627866
C   C8        1.0  0.64580  0.82750  0.70720  1.0000 -0.1492627866
C   C9        1.0  0.30790  0.12610  0.33370  1.0000 0.0881902767
C   C10       1.0  0.69210  0.87390  0.66630  1.0000 0.0881902767
C   C11       1.0  0.30390  0.15570  0.40640  1.0000 -0.1593245722
C   C12       1.0  0.69610  0.84430  0.59360  1.0000 -0.1593245722
C   C13       1.0  0.34620  0.23180  0.43830  1.0000 -0.09105961
C   C14       1.0  0.65380  0.76820  0.56170  1.0000 -0.09105961
C   C15       1.0  0.26140  0.04440  0.30300  1.0000 -0.0315093256
C   C16       1.0  0.73860  0.95560  0.69700  1.0000 -0.0315093256
C   C17       1.0  0.30200  0.98490  0.25460  1.0000 0.1534233533
C   C18       1.0  0.69800  0.01510  0.74540  1.0000 0.1534233533
C   C19       1.0  0.25870  0.90750  0.22960  1.0000 -0.0144935965
C   C20       1.0  0.74130  0.09250  0.77040  1.0000 -0.0169275596
C   C21       1.0  0.17470  0.88950  0.25300  1.0000 -0.2101108401
C   C22       1.0  0.82530  0.11050  0.74700  1.0000 -0.2101108401
C   C23       1.0  0.13400  0.94900  0.30130  1.0000 0.0740889751
C   C24       1.0  0.86600  0.05100  0.69870  1.0000 0.0740889751
C   C25       1.0  0.17740  0.02640  0.32630  1.0000 -0.1868691183
C   C26       1.0  0.82260  0.97360  0.67370  1.0000 -0.1868691183
C   C27       1.0  0.30440  0.83370  0.18720  1.0000 0.1095696196
C   C28       1.0  0.69560  0.16630  0.81280  1.0000 0.1095696196
C   C29       1.0  0.34630  0.83910  0.12500  1.0000 -0.1492627866
C   C30       1.0  0.65370  0.16090  0.87500  1.0000 -0.1492627866
C   C31       1.0  0.38370  0.77040  0.08530  1.0000 -0.0709983918
C   C32       1.0  0.61630  0.22960  0.91470  1.0000 -0.0709983918
C   C33       1.0  0.37920  0.69630  0.10790  1.0000 -0.0601372742
C   C34       1.0  0.62080  0.30370  0.89210  1.0000 -0.0601372742
C   C35       1.0  0.33730  0.69090  0.17020  1.0000 -0.080031798
C   C36       1.0  0.66270  0.30910  0.82980  1.0000 -0.080031798
C   C37       1.0  0.29990  0.75950  0.20980  1.0000 -0.1679705127
C   C38       1.0  0.70010  0.24050  0.79020  1.0000 -0.1679705127
C   C39       1.0  0.42050  0.62660  0.06860  1.0000 0.5520464026
C   C40       1.0  0.57950  0.37340  0.93140  1.0000 0.5520464026
C   C41       1.0  0.03850  0.92750  0.32940  1.0000 0.1737521359
C   C42       1.0  0.96150  0.07250  0.67060  1.0000 0.1737521359
C   C43       1.0  0.02870  0.96610  0.40490  1.0000 -0.4582062967
C   C44       1.0  0.97130  0.03390  0.59510  1.0000 -0.4582062967
C   C45       1.0  0.96710  0.96500  0.28200  1.0000 -0.4408310212
C   C46       1.0  0.03290  0.03500  0.71800  1.0000 -0.4408310212
C   C47       1.0  0.01650  0.83660  0.31930  1.0000 0.0622814812
C   C48       1.0  0.98350  0.16340  0.68070  1.0000 0.0622814812
C   C49       1.0  0.07650  0.79540  0.35310  1.0000 -0.2101108401
C   C50       1.0  0.92350  0.20460  0.64690  1.0000 -0.2101108401
C   C51       1.0  0.06740  0.70990  0.34280  1.0000 0.000938017
C   C52       1.0  0.93260  0.29010  0.65720  1.0000 0.000938017
C   C53       1.0  0.99830  0.66570  0.29870  1.0000 0.1005409037
C   C54       1.0  0.00170  0.33430  0.70130  1.0000 0.1005409037
C   C55       1.0  0.93820  0.70700  0.26490  1.0000 0.000938017
C   C56       1.0  0.06180  0.29300  0.73510  1.0000 0.000938017
C   C57       1.0  0.94730  0.79240  0.27520  1.0000 -0.20224692
C   C58       1.0  0.05270  0.20760  0.72480  1.0000 -0.20224692
C   C59       1.0  0.13960  0.66470  0.37340  1.0000 0.1095696196
C   C60       1.0  0.86040  0.33530  0.62660  1.0000 0.1095696196
C   C61       1.0  0.21170  0.64590  0.33070  1.0000 -0.1679705127
C   C62       1.0  0.78830  0.35410  0.66930  1.0000 -0.1679705127
C   C63       1.0  0.28540  0.61260  0.35640  1.0000 -0.0601372742
C   C64       1.0  0.71460  0.38740  0.64360  1.0000 -0.0601372742
C   C65       1.0  0.28710  0.59810  0.42480  1.0000 -0.0601372742
C   C66       1.0  0.71290  0.40190  0.57520  1.0000 -0.0601372742
C   C67       1.0  0.21500  0.61700  0.46740  1.0000 -0.0709983918
C   C68       1.0  0.78500  0.38300  0.53260  1.0000 -0.0709983918
C   C69       1.0  0.14120  0.65030  0.44170  1.0000 -0.1593245722
C   C70       1.0  0.85880  0.34970  0.55830  1.0000 -0.1593245722
C   C71       1.0  0.36120  0.56510  0.45170  1.0000 0.5140742802
C   C72       1.0  0.63880  0.43490  0.54830  1.0000 0.5140742802
C   C73       1.0  0.86190  0.66560  0.21480  1.0000 0.0881902767
C   C74       1.0  0.13810  0.33440  0.78520  1.0000 0.0881902767
C   C75       1.0  0.80270  0.60880  0.23560  1.0000 -0.13875264
C   C76       1.0  0.19730  0.39120  0.76440  1.0000 -0.13875264
C   C77       1.0  0.73100  0.57170  0.19050  1.0000 -0.09105961
C   C78       1.0  0.26900  0.42830  0.80950  1.0000 -0.09105961
C   C79       1.0  0.71850  0.59150  0.12460  1.0000 0.000938017
C   C80       1.0  0.28150  0.40850  0.87540  1.0000 0.000938017
C   C81       1.0  0.77780  0.64830  0.10380  1.0000 -0.09105961
C   C82       1.0  0.22220  0.35170  0.89620  1.0000 -0.09105961
C   C83       1.0  0.84940  0.68540  0.14890  1.0000 -0.1593245722
C   C84       1.0  0.15060  0.31460  0.85110  1.0000 -0.1593245722
C   C85       1.0  0.64030  0.55770  0.07230  1.0000 0.5664907836
C   C86       1.0  0.35970  0.44230  0.92770  1.0000 0.5664907836
C   C87       1.0  0.45520  0.98540  0.28050  1.0000 -0.0601372742
C   C88       1.0  0.54480  0.01460  0.71950  1.0000 -0.0542886823
C   C89       1.0  0.54240  0.03160  0.24640  1.0000 -0.3927240378
C   C90       1.0  0.45760  0.96840  0.75360  1.0000 -0.3927240378
C   C91       1.0  0.02210  0.54160  0.22940  1.0000 -0.080031798
C   C92       1.0  0.97790  0.45840  0.77060  1.0000 -0.080031798
C   C93       1.0  0.01160  0.44180  0.24350  1.0000 -0.3725659705
C   C94       1.0  0.98840  0.55820  0.75650  1.0000 -0.3725659705
O   O1        1.0  0.48720  0.39880  0.39600  1.0000 -0.5439019657
O   O2        1.0  0.51280  0.60120  0.60400  1.0000 -0.5439019657
O   O3        1.0  0.63050  0.57870  0.01710  1.0000 -0.4408310212
O   O4        1.0  0.36950  0.42130  0.98290  1.0000 -0.4408310212
O   O5        1.0  0.43580  0.55560  0.41650  1.0000 -0.5475230075
O   O6        1.0  0.56420  0.44440  0.58350  1.0000 -0.5475230075
O   O7        1.0  0.35670  0.54260  0.51710  1.0000 -0.5870087303
O   O8        1.0  0.64330  0.45740  0.48290  1.0000 -0.5870087303
O   O9        1.0  0.46200  0.63490  0.00910  1.0000 -0.5577953911
O   O10       1.0  0.53800  0.36510  0.99090  1.0000 -0.5577953911
O   O11       1.0  0.41960  0.55790  0.09030  1.0000 -0.5270841873
O   O12       1.0  0.58040  0.44210  0.90970  1.0000 -0.5270841873
O   O13       1.0  0.41750  0.38710  0.49560  1.0000 -0.4408310212
O   O14       1.0  0.58250  0.61290  0.50440  1.0000 -0.4408310212
O   O15       1.0  0.58510  0.50260  0.10370  1.0000 -0.6113208092
O   O16       1.0  0.41490  0.49740  0.89630  1.0000 -0.6113208092
O   O17       1.0  0.38440  0.00010  0.23230  1.0000 -0.1868691183
O   O18       1.0  0.61560  0.99990  0.76770  1.0000 -0.1868691183
O   O19       1.0  0.98780  0.57650  0.29570  1.0000 -0.1868691183
O   O20       1.0  0.01220  0.42350  0.70430  1.0000 -0.1849295802
