# DDEC6 charges by PACMAN v1.1 (https://github.com/mtap-research/PACMAN-charge/)
data_2013[Cd][ths]3[ASR]2
_chemical_formula_sum              "Cd4 H60 C108 O24"
_cell_length_a       14.915
_cell_length_b       8.986
_cell_length_c       29.177
_cell_angle_alpha    90
_cell_angle_beta     114.267
_cell_angle_gamma    90

_symmetry_space_group_name_H-M    "P 1"
_symmetry_Int_Tables_number       1

loop_
  _symmetry_equiv_pos_as_xyz
  'x, y, z'

loop_
  _atom_site_type_symbol
  _atom_site_label
  _atom_site_symmetry_multiplicity
  _atom_site_fract_x
  _atom_site_fract_y
  _atom_site_fract_z
  _atom_site_occupancy
  _atom_site_charge
Cd  Cd1       1.0  0.70032  0.68776  0.64148  1.0000 1.0130794938
Cd  Cd2       1.0  0.70032  0.81224  0.14148  1.0000 1.0130794938
Cd  Cd3       1.0  0.29968  0.18776  0.85852  1.0000 1.0130794938
Cd  Cd4       1.0  0.29968  0.31224  0.35852  1.0000 1.015079786
H   H1        1.0  0.70730  0.09790  0.52500  1.0000 0.1298824017
H   H2        1.0  0.70730  0.40210  0.02500  1.0000 0.1298824017
H   H3        1.0  0.78570  0.24250  0.48750  1.0000 0.1194568061
H   H4        1.0  0.78570  0.25750  0.98750  1.0000 0.1194568061
H   H5        1.0  0.04010  0.03480  0.56920  1.0000 0.1194568061
H   H6        1.0  0.04010  0.46520  0.06920  1.0000 0.1194568061
H   H7        1.0  0.96060  0.89160  0.60680  1.0000 0.1194568061
H   H8        1.0  0.96060  0.60840  0.10680  1.0000 0.1194568061
H   H9        1.0  0.85340  0.26840  0.43180  1.0000 0.1194568061
H   H10       1.0  0.85340  0.23160  0.93180  1.0000 0.1194568061
H   H11       1.0  0.09580  0.46810  0.43420  1.0000 0.1194568061
H   H12       1.0  0.09580  0.03190  0.93420  1.0000 0.1194568061
H   H13       1.0  0.10650  0.24440  0.55530  1.0000 0.1194568061
H   H14       1.0  0.10650  0.25560  0.05530  1.0000 0.1194568061
H   H15       1.0  0.81480  0.27030  0.34360  1.0000 0.1298824017
H   H16       1.0  0.81480  0.22970  0.84360  1.0000 0.1298824017
H   H17       1.0  0.73040  0.37480  0.26550  1.0000 0.1298824017
H   H18       1.0  0.73040  0.12520  0.76550  1.0000 0.1298824017
H   H19       1.0  0.89610  0.74130  0.30930  1.0000 0.1298824017
H   H20       1.0  0.89610  0.75870  0.80930  1.0000 0.1298824017
H   H21       1.0  0.98260  0.63680  0.38670  1.0000 0.1194568061
H   H22       1.0  0.98260  0.86320  0.88670  1.0000 0.1194568061
H   H23       1.0  0.25550  0.40850  0.46450  1.0000 0.1298824017
H   H24       1.0  0.25550  0.09150  0.96450  1.0000 0.1298824017
H   H25       1.0  0.22670  0.42320  0.59510  1.0000 0.1194568061
H   H26       1.0  0.22670  0.07680  0.09510  1.0000 0.1194568061
H   H27       1.0  0.41290  0.50300  0.50410  1.0000 0.137561568
H   H28       1.0  0.41290  0.99700  0.00410  1.0000 0.137561568
H   H29       1.0  0.38360  0.51780  0.63450  1.0000 0.1298824017
H   H30       1.0  0.38360  0.98220  0.13450  1.0000 0.1298824017
H   H31       1.0  0.29270  0.59790  0.97500  1.0000 0.1298824017
H   H32       1.0  0.29270  0.90210  0.47500  1.0000 0.1298824017
H   H33       1.0  0.21430  0.74250  0.01250  1.0000 0.1194568061
H   H34       1.0  0.21430  0.75750  0.51250  1.0000 0.1194568061
H   H35       1.0  0.95990  0.53480  0.93080  1.0000 0.1194568061
H   H36       1.0  0.95990  0.96520  0.43080  1.0000 0.1194568061
H   H37       1.0  0.03940  0.39160  0.89320  1.0000 0.1194568061
H   H38       1.0  0.03940  0.10840  0.39320  1.0000 0.1194568061
H   H39       1.0  0.14660  0.76840  0.06820  1.0000 0.1194568061
H   H40       1.0  0.14660  0.73160  0.56820  1.0000 0.1194568061
H   H41       1.0  0.90420  0.96810  0.06580  1.0000 0.1194568061
H   H42       1.0  0.90420  0.53190  0.56580  1.0000 0.1194568061
H   H43       1.0  0.89350  0.74440  0.94470  1.0000 0.1194568061
H   H44       1.0  0.89350  0.75560  0.44470  1.0000 0.1194568061
H   H45       1.0  0.18520  0.77030  0.15640  1.0000 0.1298824017
H   H46       1.0  0.18520  0.72970  0.65640  1.0000 0.1298824017
H   H47       1.0  0.26960  0.87480  0.23450  1.0000 0.1298824017
H   H48       1.0  0.26960  0.62520  0.73450  1.0000 0.1298824017
H   H49       1.0  0.10390  0.24130  0.19070  1.0000 0.1298824017
H   H50       1.0  0.10390  0.25870  0.69070  1.0000 0.1298824017
H   H51       1.0  0.01740  0.13680  0.11330  1.0000 0.1194568061
H   H52       1.0  0.01740  0.36320  0.61330  1.0000 0.1194568061
H   H53       1.0  0.74450  0.90850  0.03550  1.0000 0.1298824017
H   H54       1.0  0.74450  0.59150  0.53550  1.0000 0.1298824017
H   H55       1.0  0.77330  0.92320  0.90490  1.0000 0.1194568061
H   H56       1.0  0.77330  0.57680  0.40490  1.0000 0.1194568061
H   H57       1.0  0.58710  0.00300  0.99590  1.0000 0.137561568
H   H58       1.0  0.58710  0.49700  0.49590  1.0000 0.137561568
H   H59       1.0  0.61640  0.01780  0.86550  1.0000 0.1298824017
H   H60       1.0  0.61640  0.48220  0.36550  1.0000 0.1298824017
C   C1        1.0  0.82529  0.97830  0.56904  1.0000 -0.0060742606
C   C2        1.0  0.82529  0.52170  0.06904  1.0000 -0.0060742606
C   C3        1.0  0.77420  0.08450  0.53370  1.0000 -0.0907908409
C   C4        1.0  0.77420  0.41550  0.03370  1.0000 -0.0907908409
C   C5        1.0  0.82116  0.17120  0.51109  1.0000 -0.1490270196
C   C6        1.0  0.82116  0.32880  0.01109  1.0000 -0.1490270196
C   C7        1.0  0.92124  0.15250  0.52341  1.0000 0.0690003977
C   C8        1.0  0.92124  0.34750  0.02341  1.0000 0.0690003977
C   C9        1.0  0.97299  0.04730  0.55992  1.0000 -0.1490270196
C   C10       1.0  0.97299  0.45270  0.05992  1.0000 -0.1490270196
C   C11       1.0  0.92532  0.96120  0.58251  1.0000 -0.0907908409
C   C12       1.0  0.92532  0.53880  0.08251  1.0000 -0.0907908409
C   C13       1.0  0.97158  0.24220  0.49759  1.0000 0.0876191726
C   C14       1.0  0.97158  0.25780  0.99759  1.0000 0.0876191726
C   C15       1.0  0.91972  0.29230  0.44876  1.0000 -0.188555251
C   C16       1.0  0.91972  0.20770  0.94876  1.0000 -0.188555251
C   C17       1.0  0.96553  0.37850  0.42452  1.0000 0.0876191726
C   C18       1.0  0.96553  0.12150  0.92452  1.0000 0.0848240823
C   C19       1.0  0.06478  0.41150  0.45008  1.0000 -0.1803880698
C   C20       1.0  0.06478  0.08850  0.95008  1.0000 -0.1803880698
C   C21       1.0  0.11904  0.36180  0.49900  1.0000 0.0960312066
C   C22       1.0  0.11904  0.13820  0.99900  1.0000 0.0960312066
C   C23       1.0  0.07137  0.27750  0.52256  1.0000 -0.1803880698
C   C24       1.0  0.07137  0.22250  0.02256  1.0000 -0.1803880698
C   C25       1.0  0.90946  0.44140  0.37386  1.0000 0.0690003977
C   C26       1.0  0.90946  0.05860  0.87386  1.0000 0.0690003977
C   C27       1.0  0.83211  0.36450  0.33680  1.0000 -0.1490270196
C   C28       1.0  0.83211  0.13550  0.83680  1.0000 -0.1490270196
C   C29       1.0  0.78103  0.42780  0.28997  1.0000 -0.0907908409
C   C30       1.0  0.78103  0.07220  0.78997  1.0000 -0.0907908409
C   C31       1.0  0.80424  0.56890  0.27905  1.0000 -0.0039618317
C   C32       1.0  0.80424  0.93110  0.77905  1.0000 -0.0039618317
C   C33       1.0  0.88003  0.64610  0.31598  1.0000 -0.0907908409
C   C34       1.0  0.88003  0.85390  0.81598  1.0000 -0.0907908409
C   C35       1.0  0.93173  0.58340  0.36240  1.0000 -0.1490270196
C   C36       1.0  0.93173  0.91660  0.86240  1.0000 -0.1490270196
C   C37       1.0  0.22289  0.40870  0.52530  1.0000 0.0690003977
C   C38       1.0  0.22289  0.09130  0.02530  1.0000 0.0690003977
C   C39       1.0  0.28062  0.43140  0.49858  1.0000 -0.1261846526
C   C40       1.0  0.28062  0.06860  0.99858  1.0000 -0.1261846526
C   C41       1.0  0.26351  0.44030  0.57649  1.0000 -0.1490270196
C   C42       1.0  0.26351  0.05970  0.07649  1.0000 -0.1490270196
C   C43       1.0  0.37530  0.48800  0.52243  1.0000 -0.0755135148
C   C44       1.0  0.37530  0.01200  0.02243  1.0000 -0.0755135148
C   C45       1.0  0.41432  0.52220  0.57316  1.0000 -0.0161300796
C   C46       1.0  0.41432  0.97780  0.07316  1.0000 -0.0161300796
C   C47       1.0  0.35789  0.49680  0.60032  1.0000 -0.0907908409
C   C48       1.0  0.35789  0.00320  0.10032  1.0000 -0.0907908409
C   C49       1.0  0.51585  0.58180  0.59870  1.0000 0.5408077882
C   C50       1.0  0.51585  0.91820  0.09870  1.0000 0.5408077882
C   C51       1.0  0.75170  0.63900  0.22791  1.0000 0.5408077882
C   C52       1.0  0.75170  0.86100  0.72791  1.0000 0.5408077882
C   C53       1.0  0.77496  0.88010  0.59296  1.0000 0.5482314871
C   C54       1.0  0.77496  0.61990  0.09296  1.0000 0.5482314871
C   C55       1.0  0.17471  0.47830  0.93096  1.0000 -0.0060742606
C   C56       1.0  0.17471  0.02170  0.43096  1.0000 -0.0039618317
C   C57       1.0  0.22580  0.58450  0.96630  1.0000 -0.0907908409
C   C58       1.0  0.22580  0.91550  0.46630  1.0000 -0.0907908409
C   C59       1.0  0.17884  0.67120  0.98891  1.0000 -0.1490270196
C   C60       1.0  0.17884  0.82880  0.48891  1.0000 -0.1490270196
C   C61       1.0  0.07876  0.65250  0.97659  1.0000 0.0690003977
C   C62       1.0  0.07876  0.84750  0.47659  1.0000 0.0690003977
C   C63       1.0  0.02701  0.54730  0.94008  1.0000 -0.1490270196
C   C64       1.0  0.02701  0.95270  0.44008  1.0000 -0.1490270196
C   C65       1.0  0.07468  0.46120  0.91749  1.0000 -0.0907908409
C   C66       1.0  0.07468  0.03880  0.41749  1.0000 -0.0907908409
C   C67       1.0  0.02842  0.74220  0.00241  1.0000 0.0876191726
C   C68       1.0  0.02842  0.75780  0.50241  1.0000 0.0876191726
C   C69       1.0  0.08028  0.79230  0.05124  1.0000 -0.188555251
C   C70       1.0  0.08028  0.70770  0.55124  1.0000 -0.188555251
C   C71       1.0  0.03447  0.87850  0.07548  1.0000 0.0876191726
C   C72       1.0  0.03447  0.62150  0.57548  1.0000 0.0848240823
C   C73       1.0  0.93522  0.91150  0.04992  1.0000 -0.1803880698
C   C74       1.0  0.93522  0.58850  0.54992  1.0000 -0.1803880698
C   C75       1.0  0.88096  0.86180  0.00100  1.0000 0.0960312066
C   C76       1.0  0.88096  0.63820  0.50100  1.0000 0.0960312066
C   C77       1.0  0.92863  0.77750  0.97744  1.0000 -0.1803880698
C   C78       1.0  0.92863  0.72250  0.47744  1.0000 -0.1803880698
C   C79       1.0  0.09054  0.94140  0.12614  1.0000 0.0690003977
C   C80       1.0  0.09054  0.55860  0.62614  1.0000 0.0690003977
C   C81       1.0  0.16789  0.86450  0.16320  1.0000 -0.1490270196
C   C82       1.0  0.16789  0.63550  0.66320  1.0000 -0.1490270196
C   C83       1.0  0.21897  0.92780  0.21003  1.0000 -0.0907908409
C   C84       1.0  0.21897  0.57220  0.71003  1.0000 -0.0907908409
C   C85       1.0  0.19576  0.06890  0.22095  1.0000 -0.0039618317
C   C86       1.0  0.19576  0.43110  0.72095  1.0000 -0.0039618317
C   C87       1.0  0.11997  0.14610  0.18402  1.0000 -0.0907908409
C   C88       1.0  0.11997  0.35390  0.68402  1.0000 -0.0907908409
C   C89       1.0  0.06827  0.08340  0.13760  1.0000 -0.1490270196
C   C90       1.0  0.06827  0.41660  0.63760  1.0000 -0.1490270196
C   C91       1.0  0.77711  0.90870  0.97470  1.0000 0.0690003977
C   C92       1.0  0.77711  0.59130  0.47470  1.0000 0.0690003977
C   C93       1.0  0.71938  0.93140  0.00142  1.0000 -0.1261846526
C   C94       1.0  0.71938  0.56860  0.50142  1.0000 -0.1261846526
C   C95       1.0  0.73649  0.94030  0.92351  1.0000 -0.1490270196
C   C96       1.0  0.73649  0.55970  0.42351  1.0000 -0.1490270196
C   C97       1.0  0.62470  0.98800  0.97757  1.0000 -0.0755135148
C   C98       1.0  0.62470  0.51200  0.47757  1.0000 -0.0755135148
C   C99       1.0  0.58568  0.02220  0.92684  1.0000 -0.0161300796
C   C100      1.0  0.58568  0.47780  0.42684  1.0000 -0.0161300796
C   C101      1.0  0.64211  0.99680  0.89968  1.0000 -0.0907908409
C   C102      1.0  0.64211  0.50320  0.39968  1.0000 -0.0907908409
C   C103      1.0  0.48415  0.08180  0.90130  1.0000 0.5408077882
C   C104      1.0  0.48415  0.41820  0.40130  1.0000 0.5408077882
C   C105      1.0  0.24830  0.13900  0.27209  1.0000 0.5408077882
C   C106      1.0  0.24830  0.36100  0.77209  1.0000 0.5408077882
C   C107      1.0  0.22504  0.38010  0.90704  1.0000 0.5482314871
C   C108      1.0  0.22504  0.11990  0.40704  1.0000 0.5482314871
O   O1        1.0  0.82240  0.77860  0.62168  1.0000 -0.5418878748
O   O2        1.0  0.82240  0.72140  0.12168  1.0000 -0.5418878748
O   O3        1.0  0.68463  0.90300  0.58281  1.0000 -0.5111837822
O   O4        1.0  0.68463  0.59700  0.08281  1.0000 -0.5111837822
O   O5        1.0  0.68945  0.56810  0.19363  1.0000 -0.4209045052
O   O6        1.0  0.68945  0.93190  0.69363  1.0000 -0.4209045052
O   O7        1.0  0.77713  0.76970  0.22307  1.0000 -0.5166271092
O   O8        1.0  0.77713  0.73030  0.72307  1.0000 -0.5111837822
O   O9        1.0  0.54883  0.61640  0.64385  1.0000 -0.5111837822
O   O10       1.0  0.54883  0.88360  0.14385  1.0000 -0.5111837822
O   O11       1.0  0.56717  0.59630  0.57375  1.0000 -0.5166271092
O   O12       1.0  0.56717  0.90370  0.07375  1.0000 -0.5166271092
O   O13       1.0  0.17760  0.27860  0.87832  1.0000 -0.5418878748
O   O14       1.0  0.17760  0.22140  0.37832  1.0000 -0.5418878748
O   O15       1.0  0.31537  0.40300  0.91719  1.0000 -0.5111837822
O   O16       1.0  0.31537  0.09700  0.41719  1.0000 -0.5166271092
O   O17       1.0  0.31055  0.06810  0.30637  1.0000 -0.4209045052
O   O18       1.0  0.31055  0.43190  0.80637  1.0000 -0.4209045052
O   O19       1.0  0.22287  0.26970  0.27693  1.0000 -0.5166271092
O   O20       1.0  0.22287  0.23030  0.77693  1.0000 -0.5111837822
O   O21       1.0  0.45117  0.11640  0.85615  1.0000 -0.5111837822
O   O22       1.0  0.45117  0.38360  0.35615  1.0000 -0.5111837822
O   O23       1.0  0.43283  0.09630  0.92625  1.0000 -0.5166271092
O   O24       1.0  0.43283  0.40370  0.42625  1.0000 -0.5166271092
