# DDEC6 charges by PACMAN v1.1 (https://github.com/mtap-research/PACMAN-charge/)
data_2013[Cu][pts]3[ASR]3
_chemical_formula_sum              "Cu4 H72 C94 O20"
_cell_length_a       14.6031
_cell_length_b       14.6031
_cell_length_c       18.804
_cell_angle_alpha    89.3357
_cell_angle_beta     90.6643
_cell_angle_gamma    89.3258

_symmetry_space_group_name_H-M    "P 1"
_symmetry_Int_Tables_number       1

loop_
  _symmetry_equiv_pos_as_xyz
  'x, y, z'

loop_
  _atom_site_type_symbol
  _atom_site_label
  _atom_site_symmetry_multiplicity
  _atom_site_fract_x
  _atom_site_fract_y
  _atom_site_fract_z
  _atom_site_occupancy
  _atom_site_charge
Cu  Cu1       1.0  0.45194  0.52508  0.55532  1.0000 0.8450235703
Cu  Cu2       1.0  0.52508  0.45194  0.94468  1.0000 0.8450235703
Cu  Cu3       1.0  0.54806  0.47492  0.44468  1.0000 0.8450235703
Cu  Cu4       1.0  0.47492  0.54806  0.05532  1.0000 0.8450235703
H   H1        1.0  0.32500  0.76620  0.46930  1.0000 0.1289344024
H   H2        1.0  0.76620  0.32500  0.03070  1.0000 0.1289344024
H   H3        1.0  0.67500  0.23380  0.53070  1.0000 0.1289344024
H   H4        1.0  0.23380  0.67500  0.96930  1.0000 0.1289344024
H   H5        1.0  0.25130  0.88130  0.40110  1.0000 0.1212614519
H   H6        1.0  0.88130  0.25130  0.09890  1.0000 0.1212614519
H   H7        1.0  0.74870  0.11870  0.59890  1.0000 0.1212614519
H   H8        1.0  0.11870  0.74870  0.90110  1.0000 0.1212614519
H   H9        1.0  0.38870  0.80110  0.22930  1.0000 0.1212614519
H   H10       1.0  0.80110  0.38870  0.27070  1.0000 0.1212614519
H   H11       1.0  0.61130  0.19890  0.77070  1.0000 0.1212614519
H   H12       1.0  0.19890  0.61130  0.72930  1.0000 0.1212614519
H   H13       1.0  0.45920  0.68480  0.29590  1.0000 0.1289344024
H   H14       1.0  0.68480  0.45920  0.20410  1.0000 0.1289344024
H   H15       1.0  0.54080  0.31520  0.70410  1.0000 0.1289344024
H   H16       1.0  0.31520  0.54080  0.79590  1.0000 0.1289344024
H   H17       1.0  0.13520  0.88860  0.30660  1.0000 0.1212614519
H   H18       1.0  0.88860  0.13520  0.19340  1.0000 0.1212614519
H   H19       1.0  0.86480  0.11140  0.69340  1.0000 0.1212614519
H   H20       1.0  0.11140  0.86480  0.80660  1.0000 0.1212614519
H   H21       1.0  0.12100  0.09480  0.16410  1.0000 0.1212614519
H   H22       1.0  0.09480  0.12100  0.33590  1.0000 0.1212614519
H   H23       1.0  0.87900  0.90520  0.83590  1.0000 0.1212614519
H   H24       1.0  0.90520  0.87900  0.66410  1.0000 0.1212614519
H   H25       1.0  0.97750  0.89050  0.30340  1.0000 0.1212614519
H   H26       1.0  0.89050  0.97750  0.19660  1.0000 0.1212614519
H   H27       1.0  0.02250  0.10950  0.69660  1.0000 0.1212614519
H   H28       1.0  0.10950  0.02250  0.80340  1.0000 0.1212614519
H   H29       1.0  0.01890  0.96690  0.35450  1.0000 0.108951857
H   H30       1.0  0.96690  0.01890  0.14550  1.0000 0.108951857
H   H31       1.0  0.98110  0.03310  0.64550  1.0000 0.108951857
H   H32       1.0  0.03310  0.98110  0.85450  1.0000 0.108951857
H   H33       1.0  0.91540  0.97600  0.32630  1.0000 0.1289344024
H   H34       1.0  0.97600  0.91540  0.17370  1.0000 0.1289344024
H   H35       1.0  0.08460  0.02400  0.67370  1.0000 0.1289344024
H   H36       1.0  0.02400  0.08460  0.82630  1.0000 0.1289344024
H   H37       1.0  0.43940  0.08460  0.26100  1.0000 0.0806393031
H   H38       1.0  0.08460  0.43940  0.23900  1.0000 0.0806393031
H   H39       1.0  0.56060  0.91540  0.73900  1.0000 0.0806393031
H   H40       1.0  0.91540  0.56060  0.76100  1.0000 0.0806393031
H   H41       1.0  0.41660  0.99940  0.31260  1.0000 0.0714339238
H   H42       1.0  0.99940  0.41660  0.18740  1.0000 0.0714339238
H   H43       1.0  0.58340  0.00060  0.68740  1.0000 0.0714339238
H   H44       1.0  0.00060  0.58340  0.81260  1.0000 0.0714339238
H   H45       1.0  0.55390  0.96450  0.20870  1.0000 0.1289344024
H   H46       1.0  0.96450  0.55390  0.29130  1.0000 0.1289344024
H   H47       1.0  0.44610  0.03550  0.79130  1.0000 0.1289344024
H   H48       1.0  0.03550  0.44610  0.70870  1.0000 0.1289344024
H   H49       1.0  0.58550  0.02790  0.27310  1.0000 0.1212614519
H   H50       1.0  0.02790  0.58550  0.22690  1.0000 0.1212614519
H   H51       1.0  0.41450  0.97210  0.72690  1.0000 0.1212614519
H   H52       1.0  0.97210  0.41450  0.77310  1.0000 0.1212614519
H   H53       1.0  0.55160  0.92580  0.28860  1.0000 0.1289344024
H   H54       1.0  0.92580  0.55160  0.21140  1.0000 0.1212614519
H   H55       1.0  0.44840  0.07420  0.71140  1.0000 0.1289344024
H   H56       1.0  0.07420  0.44840  0.78860  1.0000 0.1289344024
H   H57       1.0  0.22500  0.22840  0.20370  1.0000 0.1044515797
H   H58       1.0  0.22840  0.22500  0.29630  1.0000 0.1044515797
H   H59       1.0  0.77500  0.77160  0.79630  1.0000 0.1044515797
H   H60       1.0  0.77160  0.77500  0.70370  1.0000 0.1044515797
H   H61       1.0  0.29020  0.35160  0.14310  1.0000 0.1212614519
H   H62       1.0  0.35160  0.29020  0.35690  1.0000 0.1212614519
H   H63       1.0  0.70980  0.64840  0.85690  1.0000 0.1212614519
H   H64       1.0  0.64840  0.70980  0.64310  1.0000 0.1212614519
H   H65       1.0  0.43060  0.17920  0.01850  1.0000 0.1212614519
H   H66       1.0  0.17920  0.43060  0.48150  1.0000 0.1212614519
H   H67       1.0  0.56940  0.82080  0.98150  1.0000 0.1212614519
H   H68       1.0  0.82080  0.56940  0.51850  1.0000 0.1212614519
H   H69       1.0  0.36490  0.05410  0.07710  1.0000 0.1212614519
H   H70       1.0  0.05410  0.36490  0.42290  1.0000 0.1212614519
H   H71       1.0  0.63510  0.94590  0.92290  1.0000 0.1212614519
H   H72       1.0  0.94590  0.63510  0.57710  1.0000 0.1212614519
C   C1        1.0  0.44099  0.63751  0.43188  1.0000 0.5786841937
C   C2        1.0  0.63751  0.44099  0.06812  1.0000 0.5786841937
C   C3        1.0  0.55901  0.36249  0.56812  1.0000 0.5786841937
C   C4        1.0  0.36249  0.55901  0.93188  1.0000 0.5786841937
C   C5        1.0  0.39814  0.71416  0.38828  1.0000 -0.0242982133
C   C6        1.0  0.71416  0.39814  0.11172  1.0000 -0.0242982133
C   C7        1.0  0.60186  0.28584  0.61172  1.0000 -0.0242982133
C   C8        1.0  0.28584  0.60186  0.88828  1.0000 -0.0242982133
C   C9        1.0  0.33732  0.77222  0.42000  1.0000 -0.0988064015
C   C10       1.0  0.77222  0.33732  0.08000  1.0000 -0.0988064015
C   C11       1.0  0.66268  0.22778  0.58000  1.0000 -0.0988064015
C   C12       1.0  0.22778  0.66268  0.92000  1.0000 -0.0988064015
C   C13       1.0  0.29320  0.84092  0.37870  1.0000 -0.1565728657
C   C14       1.0  0.84092  0.29320  0.12130  1.0000 -0.1565728657
C   C15       1.0  0.70680  0.15908  0.62130  1.0000 -0.1565728657
C   C16       1.0  0.15908  0.70680  0.87870  1.0000 -0.1565728657
C   C17       1.0  0.30835  0.85133  0.30850  1.0000 0.0806393031
C   C18       1.0  0.85133  0.30835  0.19150  1.0000 0.0806393031
C   C19       1.0  0.69165  0.14867  0.69150  1.0000 0.0806393031
C   C20       1.0  0.14867  0.69165  0.80850  1.0000 0.0806393031
C   C21       1.0  0.37370  0.79330  0.27800  1.0000 -0.1528763495
C   C22       1.0  0.79330  0.37370  0.22200  1.0000 -0.1528763495
C   C23       1.0  0.62630  0.20670  0.72200  1.0000 -0.1528763495
C   C24       1.0  0.20670  0.62630  0.77800  1.0000 -0.1528763495
C   C25       1.0  0.41651  0.72469  0.31790  1.0000 -0.0988064015
C   C26       1.0  0.72469  0.41651  0.18210  1.0000 -0.0988064015
C   C27       1.0  0.58349  0.27531  0.68210  1.0000 -0.0988064015
C   C28       1.0  0.27531  0.58349  0.81790  1.0000 -0.0988064015
C   C29       1.0  0.25900  0.92160  0.26700  1.0000 -0.0242982133
C   C30       1.0  0.92160  0.25900  0.23300  1.0000 -0.0242982133
C   C31       1.0  0.74100  0.07840  0.73300  1.0000 -0.0242982133
C   C32       1.0  0.07840  0.74100  0.76700  1.0000 -0.0242982133
C   C33       1.0  0.16490  0.92950  0.27490  1.0000 -0.2042690612
C   C34       1.0  0.92950  0.16490  0.22510  1.0000 -0.2042690612
C   C35       1.0  0.83510  0.07050  0.72510  1.0000 -0.2042690612
C   C36       1.0  0.07050  0.83510  0.77490  1.0000 -0.2042690612
C   C37       1.0  0.11250  0.99410  0.23870  1.0000 0.0565040947
C   C38       1.0  0.99410  0.11250  0.26130  1.0000 0.0565040947
C   C39       1.0  0.88750  0.00590  0.76130  1.0000 0.0565040947
C   C40       1.0  0.00590  0.88750  0.73870  1.0000 0.0565040947
C   C41       1.0  0.15630  0.05230  0.19170  1.0000 -0.2092307977
C   C42       1.0  0.05230  0.15630  0.30830  1.0000 -0.2092307977
C   C43       1.0  0.84370  0.94770  0.80830  1.0000 -0.2092307977
C   C44       1.0  0.94770  0.84370  0.69170  1.0000 -0.2092307977
C   C45       1.0  0.25040  0.04980  0.18400  1.0000 -0.0076164146
C   C46       1.0  0.04980  0.25040  0.31600  1.0000 -0.0076164146
C   C47       1.0  0.74960  0.95020  0.81600  1.0000 -0.0076164146
C   C48       1.0  0.95020  0.74960  0.68400  1.0000 -0.0076164146
C   C49       1.0  0.30160  0.98240  0.22080  1.0000 0.1371634097
C   C50       1.0  0.98240  0.30160  0.27920  1.0000 0.1371634097
C   C51       1.0  0.69840  0.01760  0.77920  1.0000 0.1371634097
C   C52       1.0  0.01760  0.69840  0.72080  1.0000 0.1371634097
C   C53       1.0  0.00950  0.00950  0.25000  1.0000 0.1724567615
C   C54       1.0  0.99050  0.99050  0.75000  1.0000 0.1724567615
C   C55       1.0  0.97750  0.95610  0.31420  1.0000 -0.4389770499
C   C56       1.0  0.95610  0.97750  0.18580  1.0000 -0.4389770499
C   C57       1.0  0.02250  0.04390  0.68580  1.0000 -0.4389770499
C   C58       1.0  0.04390  0.02250  0.81420  1.0000 -0.4389770499
C   C59       1.0  0.44170  0.01710  0.26580  1.0000 0.0322055031
C   C60       1.0  0.01710  0.44170  0.23420  1.0000 0.0322055031
C   C61       1.0  0.55830  0.98290  0.73420  1.0000 0.0322055031
C   C62       1.0  0.98290  0.55830  0.76580  1.0000 0.0322055031
C   C63       1.0  0.54270  0.98030  0.25830  1.0000 -0.3941440604
C   C64       1.0  0.98030  0.54270  0.24170  1.0000 -0.3941440604
C   C65       1.0  0.45730  0.01970  0.74170  1.0000 -0.3941440604
C   C66       1.0  0.01970  0.45730  0.75830  1.0000 -0.3941440604
C   C67       1.0  0.29230  0.12710  0.14490  1.0000 0.0806393031
C   C68       1.0  0.12710  0.29230  0.35510  1.0000 0.0806393031
C   C69       1.0  0.70770  0.87290  0.85510  1.0000 0.0806393031
C   C70       1.0  0.87290  0.70770  0.64490  1.0000 0.0806393031
C   C71       1.0  0.26720  0.21820  0.16650  1.0000 -0.1707858912
C   C72       1.0  0.21820  0.26720  0.33350  1.0000 -0.1707858912
C   C73       1.0  0.73280  0.78180  0.83350  1.0000 -0.1707858912
C   C74       1.0  0.78180  0.73280  0.66650  1.0000 -0.1707858912
C   C75       1.0  0.30730  0.29090  0.13050  1.0000 -0.0988064015
C   C76       1.0  0.29090  0.30730  0.36950  1.0000 -0.0988064015
C   C77       1.0  0.69270  0.70910  0.86950  1.0000 -0.0988064015
C   C78       1.0  0.70910  0.69270  0.63050  1.0000 -0.0988064015
C   C79       1.0  0.37205  0.27935  0.07620  1.0000 -0.0413762017
C   C80       1.0  0.27935  0.37205  0.42380  1.0000 -0.0413762017
C   C81       1.0  0.62795  0.72065  0.92380  1.0000 -0.0413762017
C   C82       1.0  0.72065  0.62795  0.57620  1.0000 -0.0413762017
C   C83       1.0  0.39010  0.19010  0.05670  1.0000 -0.0988064015
C   C84       1.0  0.19010  0.39010  0.44330  1.0000 -0.0988064015
C   C85       1.0  0.60990  0.80990  0.94330  1.0000 -0.0988064015
C   C86       1.0  0.80990  0.60990  0.55670  1.0000 -0.0988064015
C   C87       1.0  0.35010  0.11450  0.09170  1.0000 -0.1438935719
C   C88       1.0  0.11450  0.35010  0.40830  1.0000 -0.1438935719
C   C89       1.0  0.64990  0.88550  0.90830  1.0000 -0.1438935719
C   C90       1.0  0.88550  0.64990  0.59170  1.0000 -0.1438935719
C   C91       1.0  0.41881  0.36011  0.04420  1.0000 0.5786841937
C   C92       1.0  0.36011  0.41881  0.45580  1.0000 0.5786841937
C   C93       1.0  0.58119  0.63989  0.95580  1.0000 0.5786841937
C   C94       1.0  0.63989  0.58119  0.54420  1.0000 0.5786841937
O   O1        1.0  0.41654  0.62828  0.49407  1.0000 -0.4935641683
O   O2        1.0  0.62828  0.41654  0.00593  1.0000 -0.4935641683
O   O3        1.0  0.58346  0.37172  0.50593  1.0000 -0.4935641683
O   O4        1.0  0.37172  0.58346  0.99407  1.0000 -0.4935641683
O   O5        1.0  0.49898  0.58728  0.40115  1.0000 -0.5168866984
O   O6        1.0  0.58728  0.49898  0.09885  1.0000 -0.5168866984
O   O7        1.0  0.50102  0.41272  0.59885  1.0000 -0.5168866984
O   O8        1.0  0.41272  0.50102  0.90115  1.0000 -0.5168866984
O   O9        1.0  0.41519  0.43253  0.07936  1.0000 -0.5280005953
O   O10       1.0  0.43253  0.41519  0.42064  1.0000 -0.5280005953
O   O11       1.0  0.58481  0.56747  0.92064  1.0000 -0.5280005953
O   O12       1.0  0.56747  0.58481  0.57936  1.0000 -0.5280005953
O   O13       1.0  0.45576  0.35044  0.98582  1.0000 -0.5025538079
O   O14       1.0  0.35044  0.45576  0.51418  1.0000 -0.5025538079
O   O15       1.0  0.54424  0.64956  0.01418  1.0000 -0.5025538079
O   O16       1.0  0.64956  0.54424  0.48582  1.0000 -0.5025538079
O   O17       1.0  0.39326  0.97798  0.21254  1.0000 -0.1707858912
O   O18       1.0  0.97798  0.39326  0.28746  1.0000 -0.1707858912
O   O19       1.0  0.60674  0.02202  0.78746  1.0000 -0.1707858912
O   O20       1.0  0.02202  0.60674  0.71254  1.0000 -0.1707858912
