# DDEC6 charges by PACMAN v1.1 (https://github.com/mtap-research/PACMAN-charge/)
data_2013[Zn][nan]3[ASR]30
_chemical_formula_sum              "Zn8 C64 O32 F32"
_cell_length_a       11.9339
_cell_length_b       12.4369
_cell_length_c       18.9997
_cell_angle_alpha    90
_cell_angle_beta     113.489
_cell_angle_gamma    90

_symmetry_space_group_name_H-M    "P 1"
_symmetry_Int_Tables_number       1

loop_
  _symmetry_equiv_pos_as_xyz
  'x, y, z'

loop_
  _atom_site_type_symbol
  _atom_site_label
  _atom_site_symmetry_multiplicity
  _atom_site_fract_x
  _atom_site_fract_y
  _atom_site_fract_z
  _atom_site_occupancy
  _atom_site_charge
Zn  Zn1       1.0  0.27783  0.25834  0.23174  1.0000 0.9874189413
Zn  Zn2       1.0  0.72217  0.75834  0.26826  1.0000 0.9874189413
Zn  Zn3       1.0  0.72217  0.74166  0.76826  1.0000 0.9874189413
Zn  Zn4       1.0  0.27783  0.24166  0.73174  1.0000 0.9874189413
Zn  Zn5       1.0  0.47766  0.06295  0.22126  1.0000 0.9667619682
Zn  Zn6       1.0  0.52234  0.56295  0.27874  1.0000 0.9667619682
Zn  Zn7       1.0  0.52234  0.93705  0.77874  1.0000 0.9667619682
Zn  Zn8       1.0  0.47766  0.43705  0.72126  1.0000 0.9667619682
C   C1        1.0  0.40140  0.30810  0.04870  1.0000 -0.2065608864
C   C2        1.0  0.59860  0.80810  0.45130  1.0000 -0.2065608864
C   C3        1.0  0.59860  0.69190  0.95130  1.0000 -0.2065608864
C   C4        1.0  0.40140  0.19190  0.54870  1.0000 -0.2065608864
C   C5        1.0  0.29860  0.33090  0.98240  1.0000 0.1629097676
C   C6        1.0  0.70140  0.83090  0.51760  1.0000 0.1629097676
C   C7        1.0  0.70140  0.66910  0.01760  1.0000 0.1629097676
C   C8        1.0  0.29860  0.16910  0.48240  1.0000 0.1629097676
C   C9        1.0  0.30900  0.36720  0.91710  1.0000 0.1498149364
C   C10       1.0  0.69100  0.86720  0.58290  1.0000 0.1498149364
C   C11       1.0  0.69100  0.63280  0.08290  1.0000 0.1498149364
C   C12       1.0  0.30900  0.13280  0.41710  1.0000 0.1498149364
C   C13       1.0  0.42120  0.38720  0.91450  1.0000 -0.1940923416
C   C14       1.0  0.57880  0.88720  0.58550  1.0000 -0.1940923416
C   C15       1.0  0.57880  0.61280  0.08550  1.0000 -0.1940923416
C   C16       1.0  0.42120  0.11280  0.41450  1.0000 -0.1940923416
C   C17       1.0  0.52160  0.36980  0.98090  1.0000 0.1336270338
C   C18       1.0  0.47840  0.86980  0.51910  1.0000 0.1336270338
C   C19       1.0  0.47840  0.63020  0.01910  1.0000 0.1336270338
C   C20       1.0  0.52160  0.13020  0.48090  1.0000 0.1336270338
C   C21       1.0  0.51490  0.32820  0.04560  1.0000 0.1722234535
C   C22       1.0  0.48510  0.82820  0.45440  1.0000 0.1722234535
C   C23       1.0  0.48510  0.67180  0.95440  1.0000 0.1722234535
C   C24       1.0  0.51490  0.17180  0.54560  1.0000 0.1722234535
C   C25       1.0  0.39330  0.25740  0.11810  1.0000 0.6753949738
C   C26       1.0  0.60670  0.75740  0.38190  1.0000 0.6753949738
C   C27       1.0  0.60670  0.74260  0.88190  1.0000 0.6753949738
C   C28       1.0  0.39330  0.24260  0.61810  1.0000 0.6753949738
C   C29       1.0  0.43910  0.41610  0.84240  1.0000 0.6292628861
C   C30       1.0  0.56090  0.91610  0.65760  1.0000 0.6292628861
C   C31       1.0  0.56090  0.58390  0.15760  1.0000 0.6292628861
C   C32       1.0  0.43910  0.08390  0.34240  1.0000 0.6292628861
C   C33       1.0  0.60050  0.90590  0.15410  1.0000 0.6483428023
C   C34       1.0  0.39950  0.40590  0.34590  1.0000 0.6483428023
C   C35       1.0  0.39950  0.09410  0.84590  1.0000 0.6483428023
C   C36       1.0  0.60050  0.59410  0.65410  1.0000 0.6483428023
C   C37       1.0  0.54780  0.95500  0.07420  1.0000 -0.2065608864
C   C38       1.0  0.45220  0.45500  0.42580  1.0000 -0.2065608864
C   C39       1.0  0.45220  0.04500  0.92580  1.0000 -0.2065608864
C   C40       1.0  0.54780  0.54500  0.57420  1.0000 -0.2065608864
C   C41       1.0  0.61190  0.03230  0.05280  1.0000 0.1722234535
C   C42       1.0  0.38810  0.53230  0.44720  1.0000 0.1722234535
C   C43       1.0  0.38810  0.96770  0.94720  1.0000 0.1722234535
C   C44       1.0  0.61190  0.46770  0.55280  1.0000 0.1722234535
C   C45       1.0  0.56370  0.07530  0.97940  1.0000 0.1498149364
C   C46       1.0  0.43630  0.57530  0.52060  1.0000 0.1498149364
C   C47       1.0  0.43630  0.92470  0.02060  1.0000 0.1498149364
C   C48       1.0  0.56370  0.42470  0.47940  1.0000 0.1498149364
C   C49       1.0  0.20440  0.05480  0.14500  1.0000 0.6483428023
C   C50       1.0  0.79560  0.55480  0.35500  1.0000 0.6483428023
C   C51       1.0  0.79560  0.94520  0.85500  1.0000 0.6483428023
C   C52       1.0  0.20440  0.44520  0.64500  1.0000 0.6483428023
C   C53       1.0  0.09920  0.02540  0.06990  1.0000 -0.1836534747
C   C54       1.0  0.90080  0.52540  0.43010  1.0000 -0.1836534747
C   C55       1.0  0.90080  0.97460  0.93010  1.0000 -0.1836534747
C   C56       1.0  0.09920  0.47460  0.56990  1.0000 -0.1836534747
C   C57       1.0  0.98720  0.98810  0.06760  1.0000 0.1498149364
C   C58       1.0  0.01280  0.48810  0.43240  1.0000 0.1498149364
C   C59       1.0  0.01280  0.01190  0.93240  1.0000 0.1498149364
C   C60       1.0  0.98720  0.51190  0.56760  1.0000 0.1498149364
C   C61       1.0  0.89290  0.96290  0.00060  1.0000 0.1498149364
C   C62       1.0  0.10710  0.46290  0.49940  1.0000 0.1498149364
C   C63       1.0  0.10710  0.03710  0.99940  1.0000 0.1498149364
C   C64       1.0  0.89290  0.53710  0.50060  1.0000 0.1498149364
O   O1        1.0  0.46280  0.17740  0.14360  1.0000 -0.560802319
O   O2        1.0  0.53720  0.67740  0.35640  1.0000 -0.560802319
O   O3        1.0  0.53720  0.82260  0.85640  1.0000 -0.560802319
O   O4        1.0  0.46280  0.32260  0.64360  1.0000 -0.560802319
O   O5        1.0  0.32070  0.29720  0.14400  1.0000 -0.5284135797
O   O6        1.0  0.67930  0.79720  0.35600  1.0000 -0.5284135797
O   O7        1.0  0.67930  0.70280  0.85600  1.0000 -0.5284135797
O   O8        1.0  0.32070  0.20280  0.64400  1.0000 -0.5284135797
O   O9        1.0  0.47590  0.50580  0.83430  1.0000 -0.4633807847
O   O10       1.0  0.52410  0.00580  0.66570  1.0000 -0.4633807847
O   O11       1.0  0.52410  0.49420  0.16570  1.0000 -0.4633807847
O   O12       1.0  0.47590  0.99420  0.33430  1.0000 -0.4633807847
O   O13       1.0  0.42190  0.34040  0.79350  1.0000 -0.57376621
O   O14       1.0  0.57810  0.84040  0.70650  1.0000 -0.57376621
O   O15       1.0  0.57810  0.65960  0.20650  1.0000 -0.57376621
O   O16       1.0  0.42190  0.15960  0.29350  1.0000 -0.57376621
O   O17       1.0  0.55610  0.93100  0.20150  1.0000 -0.5284135797
O   O18       1.0  0.44390  0.43100  0.29850  1.0000 -0.5284135797
O   O19       1.0  0.44390  0.06900  0.79850  1.0000 -0.5284135797
O   O20       1.0  0.55610  0.56900  0.70150  1.0000 -0.5284135797
O   O21       1.0  0.68610  0.84050  0.16900  1.0000 -0.5216912859
O   O22       1.0  0.31390  0.34050  0.33100  1.0000 -0.5216912859
O   O23       1.0  0.31390  0.15950  0.83100  1.0000 -0.5216912859
O   O24       1.0  0.68610  0.65950  0.66900  1.0000 -0.5216912859
O   O25       1.0  0.30340  0.01030  0.15690  1.0000 -0.5104751223
O   O26       1.0  0.69660  0.51030  0.34310  1.0000 -0.5104751223
O   O27       1.0  0.69660  0.98970  0.84310  1.0000 -0.5104751223
O   O28       1.0  0.30340  0.48970  0.65690  1.0000 -0.5104751223
O   O29       1.0  0.17880  0.12370  0.18360  1.0000 -0.545030036
O   O30       1.0  0.82120  0.62370  0.31640  1.0000 -0.545030036
O   O31       1.0  0.82120  0.87630  0.81640  1.0000 -0.545030036
O   O32       1.0  0.17880  0.37630  0.68360  1.0000 -0.5443491125
F   F1        1.0  0.18610  0.31320  0.98070  1.0000 -0.0974210721
F   F2        1.0  0.81390  0.81320  0.51930  1.0000 -0.0974210721
F   F3        1.0  0.81390  0.68680  0.01930  1.0000 -0.0974210721
F   F4        1.0  0.18610  0.18680  0.48070  1.0000 -0.0974210721
F   F5        1.0  0.20573  0.37970  0.85253  1.0000 -0.0974210721
F   F6        1.0  0.79427  0.87970  0.64747  1.0000 -0.0974210721
F   F7        1.0  0.79427  0.62030  0.14747  1.0000 -0.0974210721
F   F8        1.0  0.20573  0.12030  0.35253  1.0000 -0.0974210721
F   F9        1.0  0.63480  0.38930  0.98240  1.0000 -0.0974210721
F   F10       1.0  0.36520  0.88930  0.51760  1.0000 -0.0974210721
F   F11       1.0  0.36520  0.61070  0.01760  1.0000 -0.0974210721
F   F12       1.0  0.63480  0.11070  0.48240  1.0000 -0.0974210721
F   F13       1.0  0.61800  0.30840  0.10700  1.0000 -0.0932403886
F   F14       1.0  0.38200  0.80840  0.39300  1.0000 -0.0932403886
F   F15       1.0  0.38200  0.69160  0.89300  1.0000 -0.0932403886
F   F16       1.0  0.61800  0.19160  0.60700  1.0000 -0.0932403886
F   F17       1.0  0.72066  0.06730  0.10356  1.0000 -0.0974210721
F   F18       1.0  0.27934  0.56730  0.39644  1.0000 -0.0974210721
F   F19       1.0  0.27934  0.93270  0.89644  1.0000 -0.0974210721
F   F20       1.0  0.72066  0.43270  0.60356  1.0000 -0.0974210721
F   F21       1.0  0.62970  0.15090  0.96150  1.0000 -0.0974210721
F   F22       1.0  0.37030  0.65090  0.53850  1.0000 -0.0974210721
F   F23       1.0  0.37030  0.84910  0.03850  1.0000 -0.0974210721
F   F24       1.0  0.62970  0.34910  0.46150  1.0000 -0.0974210721
F   F25       1.0  0.97430  0.97170  0.13430  1.0000 -0.0932403886
F   F26       1.0  0.02570  0.47170  0.36570  1.0000 -0.0974210721
F   F27       1.0  0.02570  0.02830  0.86570  1.0000 -0.0974210721
F   F28       1.0  0.97430  0.52830  0.63430  1.0000 -0.0932403886
F   F29       1.0  0.78870  0.92300  0.00240  1.0000 -0.0974210721
F   F30       1.0  0.21130  0.42300  0.49760  1.0000 -0.0974210721
F   F31       1.0  0.21130  0.07700  0.99760  1.0000 -0.0974210721
F   F32       1.0  0.78870  0.57700  0.50240  1.0000 -0.0974210721
