# DDEC6 charges by PACMAN v1.1 (https://github.com/mtap-research/PACMAN-charge/)
data_2013[Cd][nan]3[ASR]16
_chemical_formula_sum              "Cd12 H96 C162 N18 O48"
_cell_length_a       10.5925
_cell_length_b       19.4409
_cell_length_c       23.682
_cell_angle_alpha    106.256
_cell_angle_beta     96.339
_cell_angle_gamma    89.712

_symmetry_space_group_name_H-M    "P 1"
_symmetry_Int_Tables_number       1

loop_
  _symmetry_equiv_pos_as_xyz
  'x, y, z'

loop_
  _atom_site_type_symbol
  _atom_site_label
  _atom_site_symmetry_multiplicity
  _atom_site_fract_x
  _atom_site_fract_y
  _atom_site_fract_z
  _atom_site_occupancy
  _atom_site_charge
Cd  Cd1       1.0  0.75356  0.54527  0.22671  1.0000 0.8795769612
Cd  Cd2       1.0  0.24644  0.45473  0.77329  1.0000 0.8795769612
Cd  Cd3       1.0  0.30306  0.84345  0.25871  1.0000 0.9311494331
Cd  Cd4       1.0  0.69694  0.15655  0.74129  1.0000 0.9311494331
Cd  Cd5       1.0  0.91438  0.34242  0.25296  1.0000 0.9218435387
Cd  Cd6       1.0  0.08562  0.65758  0.74704  1.0000 0.9218435387
Cd  Cd7       1.0  0.32148  0.28748  0.26708  1.0000 0.9084506134
Cd  Cd8       1.0  0.67852  0.71252  0.73292  1.0000 0.9084506134
Cd  Cd9       1.0  0.45006  0.04090  0.23950  1.0000 0.8795769612
Cd  Cd10      1.0  0.54994  0.95910  0.76050  1.0000 0.8795769612
Cd  Cd11      1.0  0.89360  0.77619  0.24030  1.0000 0.9894880752
Cd  Cd12      1.0  0.10640  0.22381  0.75970  1.0000 0.9894880752
H   H1        1.0  0.40300  0.47090  0.25590  1.0000 0.1108703593
H   H2        1.0  0.59700  0.52910  0.74410  1.0000 0.1108703593
H   H3        1.0  0.50010  0.57320  0.24810  1.0000 0.0990816473
H   H4        1.0  0.49990  0.42680  0.75190  1.0000 0.0990816473
H   H5        1.0  0.38020  0.67090  0.24450  1.0000 0.1108703593
H   H6        1.0  0.61980  0.32910  0.75550  1.0000 0.1108703593
H   H7        1.0  0.81130  0.97130  0.25540  1.0000 0.1177998095
H   H8        1.0  0.18870  0.02870  0.74460  1.0000 0.1177998095
H   H9        1.0  0.71620  0.07350  0.25530  1.0000 0.1108703593
H   H10       1.0  0.28380  0.92650  0.74470  1.0000 0.1108703593
H   H11       1.0  0.83410  0.17640  0.26270  1.0000 0.1177998095
H   H12       1.0  0.16590  0.82360  0.73730  1.0000 0.1177998095
H   H13       1.0  0.63790  0.48450  0.32690  1.0000 0.1177998095
H   H14       1.0  0.36210  0.51550  0.67310  1.0000 0.1177998095
H   H15       1.0  0.61470  0.51520  0.42550  1.0000 0.136014238
H   H16       1.0  0.38530  0.48480  0.57450  1.0000 0.136014238
H   H17       1.0  0.72750  0.71410  0.43400  1.0000 0.1301186884
H   H18       1.0  0.27250  0.28590  0.56600  1.0000 0.1301186884
H   H19       1.0  0.74410  0.67650  0.33650  1.0000 0.1177998095
H   H20       1.0  0.25590  0.32350  0.66350  1.0000 0.1177998095
H   H21       1.0  0.65940  0.57730  0.62030  1.0000 0.1108703593
H   H22       1.0  0.34060  0.42270  0.37970  1.0000 0.1108703593
H   H23       1.0  0.66700  0.54170  0.51960  1.0000 0.1301186884
H   H24       1.0  0.33300  0.45830  0.48040  1.0000 0.1301186884
H   H25       1.0  0.67310  0.74630  0.52220  1.0000 0.1301186884
H   H26       1.0  0.32690  0.25370  0.47780  1.0000 0.1301186884
H   H27       1.0  0.67940  0.77780  0.62270  1.0000 0.1108703593
H   H28       1.0  0.32060  0.22220  0.37730  1.0000 0.1108703593
H   H29       1.0  0.44220  0.83970  0.64960  1.0000 0.1108703593
H   H30       1.0  0.55780  0.16030  0.35040  1.0000 0.1108703593
H   H31       1.0  0.40030  0.81490  0.54950  1.0000 0.1301186884
H   H32       1.0  0.59970  0.18510  0.45050  1.0000 0.1301186884
H   H33       1.0  0.37570  0.02360  0.57070  1.0000 0.136014238
H   H34       1.0  0.62430  0.97640  0.42930  1.0000 0.136014238
H   H35       1.0  0.42500  0.04180  0.66950  1.0000 0.1177998095
H   H36       1.0  0.57500  0.95820  0.33050  1.0000 0.1177998095
H   H37       1.0  0.41060  0.78610  0.36240  1.0000 0.1177998095
H   H38       1.0  0.58940  0.21390  0.63760  1.0000 0.1177998095
H   H39       1.0  0.43510  0.80500  0.46180  1.0000 0.1301186884
H   H40       1.0  0.56490  0.19500  0.53820  1.0000 0.1301186884
H   H41       1.0  0.28630  0.99530  0.47840  1.0000 0.1301186884
H   H42       1.0  0.71370  0.00470  0.52160  1.0000 0.1301186884
H   H43       1.0  0.26180  0.97060  0.37840  1.0000 0.1177998095
H   H44       1.0  0.73820  0.02940  0.62160  1.0000 0.1177998095
H   H45       1.0  0.97710  0.32000  0.38110  1.0000 0.1108703593
H   H46       1.0  0.02290  0.68000  0.61890  1.0000 0.1108703593
H   H47       1.0  0.00030  0.38180  0.47920  1.0000 0.1301186884
H   H48       1.0  0.99970  0.61820  0.52080  1.0000 0.1301186884
H   H49       1.0  0.97650  0.56250  0.43400  1.0000 0.1301186884
H   H50       1.0  0.02350  0.43750  0.56600  1.0000 0.1301186884
H   H51       1.0  0.95390  0.49690  0.33780  1.0000 0.1177998095
H   H52       1.0  0.04610  0.50310  0.66220  1.0000 0.1177998095
H   H53       1.0  0.20300  0.17530  0.14620  1.0000 0.1108703593
H   H54       1.0  0.79700  0.82470  0.85380  1.0000 0.1108703593
H   H55       1.0  0.15700  0.15750  0.04660  1.0000 0.1301186884
H   H56       1.0  0.84300  0.84250  0.95340  1.0000 0.1301186884
H   H57       1.0  0.27600  0.35700  0.06880  1.0000 0.136014238
H   H58       1.0  0.72400  0.64300  0.93120  1.0000 0.136014238
H   H59       1.0  0.32860  0.36830  0.16610  1.0000 0.0990816473
H   H60       1.0  0.67140  0.63170  0.83390  1.0000 0.0990816473
H   H61       1.0  0.20180  0.14230  0.95260  1.0000 0.1301186884
H   H62       1.0  0.79820  0.85770  0.04740  1.0000 0.1301186884
H   H63       1.0  0.17000  0.13400  0.85480  1.0000 0.1108703593
H   H64       1.0  0.83000  0.86600  0.14520  1.0000 0.1108703593
H   H65       1.0  0.08810  0.33350  0.88720  1.0000 0.1108703593
H   H66       1.0  0.91190  0.66650  0.11280  1.0000 0.1108703593
H   H67       1.0  0.12420  0.34980  0.98640  1.0000 0.1301186884
H   H68       1.0  0.87580  0.65020  0.01360  1.0000 0.1301186884
H   H69       1.0  0.26940  0.70340  0.14410  1.0000 0.0990816473
H   H70       1.0  0.73060  0.29660  0.85590  1.0000 0.0990816473
H   H71       1.0  0.21200  0.66820  0.04400  1.0000 0.1301186884
H   H72       1.0  0.78800  0.33180  0.95600  1.0000 0.1301186884
H   H73       1.0  0.13140  0.87250  0.05360  1.0000 0.1301186884
H   H74       1.0  0.86860  0.12750  0.94640  1.0000 0.1301186884
H   H75       1.0  0.19630  0.90060  0.15180  1.0000 0.1177998095
H   H76       1.0  0.80370  0.09940  0.84820  1.0000 0.1177998095
H   H77       1.0  0.05700  0.61140  0.85890  1.0000 0.1177998095
H   H78       1.0  0.94300  0.38860  0.14110  1.0000 0.1177998095
H   H79       1.0  0.09150  0.64150  0.95860  1.0000 0.1301186884
H   H80       1.0  0.90850  0.35850  0.04140  1.0000 0.1301186884
H   H81       1.0  0.16510  0.84340  0.95930  1.0000 0.1301186884
H   H82       1.0  0.83490  0.15660  0.04070  1.0000 0.1301186884
H   H83       1.0  0.12900  0.80590  0.85710  1.0000 0.1108703593
H   H84       1.0  0.87100  0.19410  0.14290  1.0000 0.1108703593
H   H85       1.0  0.60330  0.33240  0.07910  1.0000 0.1108703593
H   H86       1.0  0.39670  0.66760  0.92090  1.0000 0.1108703593
H   H87       1.0  0.51060  0.14110  0.09440  1.0000 0.1177998095
H   H88       1.0  0.48940  0.85890  0.90560  1.0000 0.1177998095
H   H89       1.0  0.58220  0.63640  0.07370  1.0000 0.1177998095
H   H90       1.0  0.41780  0.36360  0.92630  1.0000 0.1177998095
H   H91       1.0  0.47870  0.83500  0.07110  1.0000 0.1108703593
H   H92       1.0  0.52130  0.16500  0.92890  1.0000 0.1108703593
H   H93       1.0  0.51070  0.71580  0.02020  1.0000 0.0990816473
H   H94       1.0  0.48930  0.28420  0.97980  1.0000 0.0990816473
H   H95       1.0  0.53790  0.21430  0.03720  1.0000 0.0990816473
H   H96       1.0  0.46210  0.78570  0.96280  1.0000 0.0990816473
C   C1        1.0  0.51690  0.16730  0.20930  1.0000 0.5491075317
C   C2        1.0  0.48310  0.83270  0.79070  1.0000 0.5491075317
C   C3        1.0  0.55420  0.21490  0.17320  1.0000 -0.0546096501
C   C4        1.0  0.44580  0.78510  0.82680  1.0000 -0.0546096501
C   C5        1.0  0.61760  0.32890  0.16380  1.0000 -0.0610573108
C   C6        1.0  0.38240  0.67110  0.83620  1.0000 -0.0610573108
C   C7        1.0  0.59730  0.28560  0.19930  1.0000 -0.0888749882
C   C8        1.0  0.40270  0.71440  0.80070  1.0000 -0.0888749882
C   C9        1.0  0.66690  0.40430  0.18960  1.0000 0.5406257311
C   C10       1.0  0.33310  0.59570  0.81040  1.0000 0.5406257311
C   C11       1.0  0.61870  0.31460  0.26540  1.0000 0.5995745758
C   C12       1.0  0.38130  0.68540  0.73460  1.0000 0.5995745758
C   C13       1.0  0.66170  0.65750  0.18440  1.0000 0.5491075317
C   C14       1.0  0.33830  0.34250  0.81560  1.0000 0.5491075317
C   C15       1.0  0.60000  0.70860  0.15360  1.0000 -0.0610573108
C   C16       1.0  0.40000  0.29140  0.84640  1.0000 -0.0610573108
C   C17       1.0  0.52810  0.82500  0.15260  1.0000 -0.0546096501
C   C18       1.0  0.47190  0.17500  0.84740  1.0000 -0.0546096501
C   C19       1.0  0.57560  0.77780  0.18400  1.0000 -0.0888749882
C   C20       1.0  0.42440  0.22220  0.81600  1.0000 -0.0888749882
C   C21       1.0  0.59980  0.80340  0.25040  1.0000 0.5995745758
C   C22       1.0  0.40020  0.19660  0.74960  1.0000 0.5995745758
C   C23       1.0  0.50100  0.90130  0.18340  1.0000 0.5406257311
C   C24       1.0  0.49900  0.09870  0.81660  1.0000 0.5406257311
C   C25       1.0  0.16700  0.43510  0.25370  1.0000 0.5683815281
C   C26       1.0  0.83300  0.56490  0.74630  1.0000 0.5683815281
C   C27       1.0  0.22180  0.50290  0.24740  1.0000 -0.0610573108
C   C28       1.0  0.77820  0.49710  0.75260  1.0000 -0.0610573108
C   C29       1.0  0.35370  0.50900  0.25110  1.0000 -0.109999041
C   C30       1.0  0.64630  0.49100  0.74890  1.0000 -0.109999041
C   C31       1.0  0.41240  0.57070  0.24780  1.0000 -0.0888749882
C   C32       1.0  0.58760  0.42930  0.75220  1.0000 -0.0888749882
C   C33       1.0  0.34000  0.62840  0.24420  1.0000 -0.109999041
C   C34       1.0  0.66000  0.37160  0.75580  1.0000 -0.109999041
C   C35       1.0  0.20780  0.62480  0.24000  1.0000 -0.0610573108
C   C36       1.0  0.79220  0.37520  0.76000  1.0000 -0.0610573108
C   C37       1.0  0.14800  0.55950  0.23880  1.0000 -0.0197109141
C   C38       1.0  0.85200  0.44050  0.76120  1.0000 -0.0197109141
C   C39       1.0  0.00620  0.55400  0.23330  1.0000 0.5775073419
C   C40       1.0  0.99380  0.44600  0.76670  1.0000 0.5775073419
C   C41       1.0  0.13540  0.69090  0.24160  1.0000 0.5683815281
C   C42       1.0  0.86460  0.30910  0.75840  1.0000 0.5683815281
C   C43       1.0  0.04770  0.93510  0.25970  1.0000 0.5683815281
C   C44       1.0  0.95230  0.06490  0.74030  1.0000 0.5683815281
C   C45       1.0  0.99170  0.00560  0.25890  1.0000 -0.0610573108
C   C46       1.0  0.00830  0.99440  0.74110  1.0000 -0.0610573108
C   C47       1.0  0.86060  0.01140  0.25690  1.0000 -0.1022194798
C   C48       1.0  0.13940  0.98860  0.74310  1.0000 -0.1022194798
C   C49       1.0  0.80430  0.07180  0.25720  1.0000 -0.0830106487
C   C50       1.0  0.19570  0.92820  0.74280  1.0000 -0.0830106487
C   C51       1.0  0.87440  0.13330  0.26040  1.0000 -0.109999041
C   C52       1.0  0.12560  0.86670  0.73960  1.0000 -0.109999041
C   C53       1.0  0.00600  0.12970  0.26010  1.0000 -0.0610573108
C   C54       1.0  0.99400  0.87030  0.73990  1.0000 -0.0546096501
C   C55       1.0  0.06430  0.06510  0.25900  1.0000 -0.0197109141
C   C56       1.0  0.93570  0.93490  0.74100  1.0000 -0.0197109141
C   C57       1.0  0.20400  0.05970  0.25780  1.0000 0.5775073419
C   C58       1.0  0.79600  0.94030  0.74220  1.0000 0.5775073419
C   C59       1.0  0.07850  0.19710  0.26290  1.0000 0.558009098
C   C60       1.0  0.92150  0.80290  0.73710  1.0000 0.558009098
C   C61       1.0  0.65680  0.53150  0.34940  1.0000 0.0883312702
C   C62       1.0  0.34320  0.46850  0.65060  1.0000 0.0883312702
C   C63       1.0  0.64310  0.54940  0.40880  1.0000 -0.2099348321
C   C64       1.0  0.35690  0.45060  0.59120  1.0000 -0.2099348321
C   C65       1.0  0.67210  0.61920  0.44350  1.0000 0.1108703593
C   C66       1.0  0.32790  0.38080  0.55650  1.0000 0.1108703593
C   C67       1.0  0.70920  0.66630  0.41360  1.0000 -0.2099348321
C   C68       1.0  0.29080  0.33370  0.58640  1.0000 -0.2099348321
C   C69       1.0  0.71890  0.64340  0.35510  1.0000 0.0822624757
C   C70       1.0  0.28110  0.35660  0.64490  1.0000 0.0822624757
C   C71       1.0  0.66590  0.61190  0.60040  1.0000 0.0883312702
C   C72       1.0  0.33410  0.38810  0.39960  1.0000 0.0883312702
C   C73       1.0  0.66760  0.59020  0.53970  1.0000 -0.2099348321
C   C74       1.0  0.33240  0.40980  0.46030  1.0000 -0.2099348321
C   C75       1.0  0.67000  0.64110  0.50920  1.0000 0.0990816473
C   C76       1.0  0.33000  0.35890  0.49080  1.0000 0.0990816473
C   C77       1.0  0.67300  0.71060  0.54140  1.0000 -0.2014492555
C   C78       1.0  0.32700  0.28940  0.45860  1.0000 -0.2014492555
C   C79       1.0  0.67570  0.72940  0.60190  1.0000 0.0883312702
C   C80       1.0  0.32430  0.27060  0.39810  1.0000 0.0883312702
C   C81       1.0  0.43120  0.87780  0.63320  1.0000 0.0883312702
C   C82       1.0  0.56880  0.12220  0.36680  1.0000 0.0883312702
C   C83       1.0  0.40440  0.86230  0.57270  1.0000 -0.2099348321
C   C84       1.0  0.59560  0.13770  0.42730  1.0000 -0.2099348321
C   C85       1.0  0.38370  0.91710  0.54660  1.0000 0.1108703593
C   C86       1.0  0.61630  0.08290  0.45340  1.0000 0.1108703593
C   C87       1.0  0.39100  0.98430  0.58530  1.0000 -0.2014492555
C   C88       1.0  0.60900  0.01570  0.41470  1.0000 -0.2014492555
C   C89       1.0  0.42030  0.99510  0.64490  1.0000 0.0883312702
C   C90       1.0  0.57970  0.00490  0.35510  1.0000 0.0883312702
C   C91       1.0  0.38400  0.82920  0.38600  1.0000 0.0822624757
C   C92       1.0  0.61600  0.17080  0.61400  1.0000 0.0822624757
C   C93       1.0  0.39980  0.84050  0.44600  1.0000 -0.2099348321
C   C94       1.0  0.60020  0.15950  0.55400  1.0000 -0.2099348321
C   C95       1.0  0.36420  0.90380  0.48350  1.0000 0.0990816473
C   C96       1.0  0.63580  0.09620  0.51650  1.0000 0.0990816473
C   C97       1.0  0.31250  0.95140  0.45580  1.0000 -0.2014492555
C   C98       1.0  0.68750  0.04860  0.54420  1.0000 -0.2014492555
C   C99       1.0  0.29820  0.93630  0.39520  1.0000 0.0883312702
C   C100      1.0  0.70180  0.06370  0.60480  1.0000 0.0883312702
C   C101      1.0  0.97470  0.36970  0.39180  1.0000 0.0883312702
C   C102      1.0  0.02530  0.63030  0.60820  1.0000 0.0883312702
C   C103      1.0  0.99000  0.40690  0.45090  1.0000 -0.2099348321
C   C104      1.0  0.01000  0.59310  0.54910  1.0000 -0.2099348321
C   C105      1.0  0.99010  0.47960  0.46870  1.0000 0.0990816473
C   C106      1.0  0.00990  0.52040  0.53130  1.0000 0.0990816473
C   C107      1.0  0.97610  0.51270  0.42460  1.0000 -0.2014492555
C   C108      1.0  0.02390  0.48730  0.57540  1.0000 -0.2014492555
C   C109      1.0  0.96130  0.47300  0.36690  1.0000 0.0822624757
C   C110      1.0  0.03870  0.52700  0.63310  1.0000 0.0822624757
C   C111      1.0  0.22030  0.21240  0.13030  1.0000 0.0822624757
C   C112      1.0  0.77970  0.78760  0.86970  1.0000 0.0822624757
C   C113      1.0  0.18930  0.20180  0.07030  1.0000 -0.2014492555
C   C114      1.0  0.81070  0.79820  0.92970  1.0000 -0.2014492555
C   C115      1.0  0.20580  0.25630  0.04570  1.0000 0.0990816473
C   C116      1.0  0.79420  0.74370  0.95430  1.0000 0.0990816473
C   C117      1.0  0.26050  0.31860  0.08360  1.0000 -0.1911765511
C   C118      1.0  0.73950  0.68140  0.91640  1.0000 -0.1911765511
C   C119      1.0  0.29220  0.32520  0.14190  1.0000 0.0822624757
C   C120      1.0  0.70780  0.67480  0.85810  1.0000 0.0822624757
C   C121      1.0  0.17200  0.24660  0.98200  1.0000 0.0990816473
C   C122      1.0  0.82800  0.75340  0.01800  1.0000 0.0990816473
C   C123      1.0  0.18090  0.18300  0.94070  1.0000 -0.1911765511
C   C124      1.0  0.81910  0.81700  0.05930  1.0000 -0.1911765511
C   C125      1.0  0.15930  0.17820  0.88180  1.0000 0.0733355731
C   C126      1.0  0.84070  0.82180  0.11820  1.0000 0.0733355731
C   C127      1.0  0.11270  0.29430  0.90070  1.0000 0.0733355731
C   C128      1.0  0.88730  0.70570  0.09930  1.0000 0.0733355731
C   C129      1.0  0.13430  0.30490  0.96040  1.0000 -0.2099348321
C   C130      1.0  0.86570  0.69510  0.03960  1.0000 -0.2014492555
C   C131      1.0  0.24130  0.73770  0.12540  1.0000 0.0990816473
C   C132      1.0  0.75870  0.26230  0.87460  1.0000 0.0990816473
C   C133      1.0  0.20790  0.71620  0.06520  1.0000 -0.2014492555
C   C134      1.0  0.79210  0.28380  0.93480  1.0000 -0.2014492555
C   C135      1.0  0.16740  0.76750  0.03590  1.0000 0.0990816473
C   C136      1.0  0.83260  0.23250  0.96410  1.0000 0.0990816473
C   C137      1.0  0.16080  0.83680  0.07050  1.0000 -0.1911765511
C   C138      1.0  0.83920  0.16320  0.92950  1.0000 -0.1911765511
C   C139      1.0  0.19750  0.85290  0.12960  1.0000 0.0733355731
C   C140      1.0  0.80250  0.14710  0.87040  1.0000 0.0733355731
C   C141      1.0  0.08040  0.65860  0.87940  1.0000 0.0822624757
C   C142      1.0  0.91960  0.34140  0.12060  1.0000 0.0822624757
C   C143      1.0  0.10100  0.67620  0.93910  1.0000 -0.2014492555
C   C144      1.0  0.89900  0.32380  0.06090  1.0000 -0.2014492555
C   C145      1.0  0.13660  0.74670  0.97160  1.0000 0.0990816473
C   C146      1.0  0.86340  0.25330  0.02840  1.0000 0.0990816473
C   C147      1.0  0.14480  0.79550  0.93990  1.0000 -0.2014492555
C   C148      1.0  0.85520  0.20450  0.06010  1.0000 -0.2014492555
C   C149      1.0  0.12230  0.77250  0.87810  1.0000 0.0990816473
C   C150      1.0  0.87770  0.22750  0.12190  1.0000 0.0990816473
C   C151      1.0  0.59300  0.30270  0.10310  1.0000 -0.1182370999
C   C152      1.0  0.40700  0.69730  0.89690  1.0000 -0.1182370999
C   C153      1.0  0.53540  0.18880  0.11200  1.0000 -0.1022194798
C   C154      1.0  0.46460  0.81120  0.88800  1.0000 -0.1022194798
C   C155      1.0  0.57160  0.68440  0.09330  1.0000 -0.1022194798
C   C156      1.0  0.42840  0.31560  0.90670  1.0000 -0.1022194798
C   C157      1.0  0.50670  0.80260  0.09200  1.0000 -0.1182370999
C   C158      1.0  0.49330  0.19740  0.90800  1.0000 -0.1182370999
C   C159      1.0  0.52690  0.73140  0.06130  1.0000 -0.109999041
C   C160      1.0  0.47310  0.26860  0.93870  1.0000 -0.109999041
C   C161      1.0  0.55300  0.23210  0.07820  1.0000 -0.109999041
C   C162      1.0  0.44700  0.76790  0.92180  1.0000 -0.109999041
N   N1        1.0  0.69490  0.57690  0.32260  1.0000 -0.2300462922
N   N2        1.0  0.30510  0.42310  0.67740  1.0000 -0.2300462922
N   N3        1.0  0.67340  0.68100  0.63130  1.0000 -0.2099348321
N   N4        1.0  0.32660  0.31900  0.36870  1.0000 -0.2099348321
N   N5        1.0  0.44200  0.94230  0.66880  1.0000 -0.2234982003
N   N6        1.0  0.55800  0.05770  0.33120  1.0000 -0.2234982003
N   N7        1.0  0.33270  0.87640  0.35970  1.0000 -0.2234982003
N   N8        1.0  0.66730  0.12360  0.64030  1.0000 -0.2234982003
N   N9        1.0  0.23530  0.80420  0.15760  1.0000 -0.2471915483
N   N10       1.0  0.76470  0.19580  0.84240  1.0000 -0.2471915483
N   N11       1.0  0.09220  0.70560  0.84850  1.0000 -0.2471915483
N   N12       1.0  0.90780  0.29440  0.15150  1.0000 -0.2471915483
N   N13       1.0  0.27320  0.27230  0.16630  1.0000 -0.2388888498
N   N14       1.0  0.72680  0.72770  0.83370  1.0000 -0.2388888498
N   N15       1.0  0.12410  0.23260  0.86060  1.0000 -0.2471915483
N   N16       1.0  0.87590  0.76740  0.13940  1.0000 -0.2471915483
N   N17       1.0  0.95710  0.40220  0.35030  1.0000 -0.2099348321
N   N18       1.0  0.04290  0.59780  0.64970  1.0000 -0.2099348321
O   O1        1.0  0.46780  0.19260  0.25520  1.0000 -0.5406817247
O   O2        1.0  0.53220  0.80740  0.74480  1.0000 -0.5406817247
O   O3        1.0  0.53640  0.10270  0.18870  1.0000 -0.4912651528
O   O4        1.0  0.46360  0.89730  0.81130  1.0000 -0.4912651528
O   O5        1.0  0.72700  0.30670  0.29000  1.0000 -0.5620712017
O   O6        1.0  0.27300  0.69330  0.71000  1.0000 -0.5620712017
O   O7        1.0  0.52760  0.34510  0.29080  1.0000 -0.5542700489
O   O8        1.0  0.47240  0.65490  0.70920  1.0000 -0.5542700489
O   O9        1.0  0.75480  0.41820  0.23210  1.0000 -0.5542700489
O   O10       1.0  0.24520  0.58180  0.76790  1.0000 -0.5542700489
O   O11       1.0  0.62420  0.45020  0.16820  1.0000 -0.4517139097
O   O12       1.0  0.37580  0.54980  0.83180  1.0000 -0.4517139097
O   O13       1.0  0.63040  0.59420  0.16480  1.0000 -0.4627557894
O   O14       1.0  0.36960  0.40580  0.83520  1.0000 -0.4627557894
O   O15       1.0  0.74460  0.68020  0.22860  1.0000 -0.5710996489
O   O16       1.0  0.25540  0.31980  0.77140  1.0000 -0.5710996489
O   O17       1.0  0.70490  0.83050  0.27340  1.0000 -0.5406817247
O   O18       1.0  0.29510  0.16950  0.72660  1.0000 -0.5406817247
O   O19       1.0  0.50930  0.79670  0.27810  1.0000 -0.5542700489
O   O20       1.0  0.49070  0.20330  0.72190  1.0000 -0.5542700489
O   O21       1.0  0.44680  0.91440  0.23030  1.0000 -0.5710996489
O   O22       1.0  0.55320  0.08560  0.76970  1.0000 -0.5710996489
O   O23       1.0  0.53220  0.94930  0.16300  1.0000 -0.4784815808
O   O24       1.0  0.46780  0.05070  0.83700  1.0000 -0.4784815808
O   O25       1.0  0.16480  0.93170  0.26510  1.0000 -0.52895992
O   O26       1.0  0.83520  0.06830  0.73490  1.0000 -0.52895992
O   O27       1.0  0.97440  0.88420  0.25540  1.0000 -0.5620712017
O   O28       1.0  0.02560  0.11580  0.74460  1.0000 -0.5620712017
O   O29       1.0  0.27630  0.07490  0.30380  1.0000 -0.52895992
O   O30       1.0  0.72370  0.92510  0.69620  1.0000 -0.52895992
O   O31       1.0  0.24280  0.03940  0.20770  1.0000 -0.5234555503
O   O32       1.0  0.75720  0.96060  0.79230  1.0000 -0.5234555503
O   O33       1.0  0.19220  0.19260  0.25850  1.0000 -0.5040429135
O   O34       1.0  0.80780  0.80740  0.74150  1.0000 -0.5040429135
O   O35       1.0  0.01740  0.25210  0.27110  1.0000 -0.5620712017
O   O36       1.0  0.98260  0.74790  0.72890  1.0000 -0.5620712017
O   O37       1.0  0.02250  0.68410  0.22160  1.0000 -0.5116542776
O   O38       1.0  0.97750  0.31590  0.77840  1.0000 -0.5116542776
O   O39       1.0  0.19260  0.74830  0.26430  1.0000 -0.5620712017
O   O40       1.0  0.80740  0.25170  0.73570  1.0000 -0.5620712017
O   O41       1.0  0.94360  0.53050  0.18490  1.0000 -0.5116542776
O   O42       1.0  0.05640  0.46950  0.81510  1.0000 -0.5116542776
O   O43       1.0  0.95430  0.57450  0.27980  1.0000 -0.5406817247
O   O44       1.0  0.04570  0.42550  0.72020  1.0000 -0.5406817247
O   O45       1.0  0.05040  0.42430  0.23990  1.0000 -0.5406817247
O   O46       1.0  0.94960  0.57570  0.76010  1.0000 -0.5406817247
O   O47       1.0  0.24230  0.39750  0.27530  1.0000 -0.5710996489
O   O48       1.0  0.75770  0.60250  0.72470  1.0000 -0.5710996489
