# DDEC6 charges by PACMAN v1.1 (https://github.com/mtap-research/PACMAN-charge/)
data_2013[Ce][nan]3[ASR]7
_chemical_formula_sum              "Ce2 H12 C8 S1 O18"
_cell_length_a       11.628
_cell_length_b       11.628
_cell_length_c       6.167
_cell_angle_alpha    88.6119
_cell_angle_beta     91.3881
_cell_angle_gamma    141.564

_symmetry_space_group_name_H-M    "P 1"
_symmetry_Int_Tables_number       1

loop_
  _symmetry_equiv_pos_as_xyz
  'x, y, z'

loop_
  _atom_site_type_symbol
  _atom_site_label
  _atom_site_symmetry_multiplicity
  _atom_site_fract_x
  _atom_site_fract_y
  _atom_site_fract_z
  _atom_site_occupancy
  _atom_site_charge
Ce  Ce1       1.0  0.10042  0.39110  0.94982  1.0000 1.9161377074
Ce  Ce2       1.0  0.39110  0.10042  0.05018  1.0000 1.9146347167
H   H1        1.0  0.50870  0.72190  0.05590  1.0000 0.3775970163
H   H2        1.0  0.72190  0.50870  0.94410  1.0000 0.3775970163
H   H3        1.0  0.25990  0.77950  0.20000  1.0000 0.3490147115
H   H4        1.0  0.77950  0.25990  0.80000  1.0000 0.3490147115
H   H5        1.0  0.55900  0.79360  0.37020  1.0000 0.1326918425
H   H6        1.0  0.79360  0.55900  0.62980  1.0000 0.1326918425
H   H7        1.0  0.55940  0.98380  0.45360  1.0000 0.1431468548
H   H8        1.0  0.98380  0.55940  0.54640  1.0000 0.1431468548
H   H9        1.0  0.95050  0.09950  0.63890  1.0000 0.3728204788
H   H10       1.0  0.09950  0.95050  0.36110  1.0000 0.3728204788
H   H11       1.0  0.99680  0.24220  0.55070  1.0000 0.3637230964
H   H12       1.0  0.24220  0.99680  0.44930  1.0000 0.3637230964
C   C1        1.0  0.28310  0.59450  0.44510  1.0000 0.6089539649
C   C2        1.0  0.59450  0.28310  0.55490  1.0000 0.6089539649
C   C3        1.0  0.45420  0.75600  0.31130  1.0000 0.0036234716
C   C4        1.0  0.75600  0.45420  0.68870  1.0000 0.0036234716
C   C5        1.0  0.50330  0.92330  0.31260  1.0000 0.0111461123
C   C6        1.0  0.92330  0.50330  0.68740  1.0000 0.0111461123
C   C7        1.0  0.64580  0.06040  0.13780  1.0000 0.6089539649
C   C8        1.0  0.06040  0.64580  0.86220  1.0000 0.6089539649
S   S1        1.0  0.24530  0.24530  0.00000  1.0000 1.4001934649
O   O1        1.0  0.09374  0.18186  0.11440  1.0000 -0.7037048219
O   O2        1.0  0.18186  0.09374  0.88560  1.0000 -0.7037048219
O   O3        1.0  0.31792  0.39308  0.85170  1.0000 -0.7224903582
O   O4        1.0  0.39308  0.31792  0.14830  1.0000 -0.7224903582
O   O5        1.0  0.14079  0.45181  0.34650  1.0000 -0.5883797882
O   O6        1.0  0.45181  0.14079  0.65350  1.0000 -0.5883797882
O   O7        1.0  0.29541  0.61419  0.64680  1.0000 -0.6102523683
O   O8        1.0  0.61419  0.29541  0.35320  1.0000 -0.6102523683
O   O9        1.0  0.41775  0.69305  0.09450  1.0000 -0.5189446487
O   O10       1.0  0.69305  0.41775  0.90550  1.0000 -0.5189446487
O   O11       1.0  0.34503  0.87097  0.28280  1.0000 -0.5255752681
O   O12       1.0  0.87097  0.34503  0.71720  1.0000 -0.5189446487
O   O13       1.0  0.79582  0.12458  0.13770  1.0000 -0.5883797882
O   O14       1.0  0.12458  0.79582  0.86230  1.0000 -0.5883797882
O   O15       1.0  0.60234  0.10226  0.99450  1.0000 -0.6102523683
O   O16       1.0  0.10226  0.60234  0.00550  1.0000 -0.6102523683
O   O17       1.0  0.93460  0.15940  0.64510  1.0000 -0.7224903582
O   O18       1.0  0.15940  0.93460  0.35490  1.0000 -0.7224903582
