# DDEC6 charges by PACMAN v1.1 (https://github.com/mtap-research/PACMAN-charge/)
data_2013[Ga][bpq]3[ASR]1
_chemical_formula_sum              "Ga2 H10 C16 O10"
_cell_length_a       10.5468
_cell_length_b       10.5468
_cell_length_c       6.6716
_cell_angle_alpha    77.0777
_cell_angle_beta     102.922
_cell_angle_gamma    137.504

_symmetry_space_group_name_H-M    "P 1"
_symmetry_Int_Tables_number       1

loop_
  _symmetry_equiv_pos_as_xyz
  'x, y, z'

loop_
  _atom_site_type_symbol
  _atom_site_label
  _atom_site_symmetry_multiplicity
  _atom_site_fract_x
  _atom_site_fract_y
  _atom_site_fract_z
  _atom_site_occupancy
  _atom_site_charge
Ga  Ga1       1.0  0.11220  0.88820  0.42600  1.0000 1.4334880498
Ga  Ga2       1.0  0.11180  0.88780  0.92600  1.0000 1.4334880498
H   H1        1.0  0.22470  0.33010  0.20430  1.0000 0.119297962
H   H2        1.0  0.66990  0.77530  0.70430  1.0000 0.119297962
H   H3        1.0  0.99530  0.44670  0.61890  1.0000 0.119297962
H   H4        1.0  0.55330  0.00470  0.11890  1.0000 0.119297962
H   H5        1.0  0.16550  0.51850  0.05350  1.0000 0.119297962
H   H6        1.0  0.48150  0.83450  0.55350  1.0000 0.119297962
H   H7        1.0  0.05440  0.25820  0.77070  1.0000 0.119297962
H   H8        1.0  0.74180  0.94560  0.27070  1.0000 0.119297962
H   H9        1.0  0.32600  0.13880  0.16100  1.0000 0.424818584
H   H10       1.0  0.86120  0.67400  0.66100  1.0000 0.4250440386
C   C1        1.0  0.17570  0.16790  0.58930  1.0000 0.6010872659
C   C2        1.0  0.83210  0.82430  0.08930  1.0000 0.6010872659
C   C3        1.0  0.14490  0.28550  0.49810  1.0000 -0.0272669967
C   C4        1.0  0.71450  0.85510  0.99810  1.0000 -0.0272669967
C   C5        1.0  0.07850  0.31490  0.61710  1.0000 -0.0984931353
C   C6        1.0  0.68510  0.92150  0.11710  1.0000 -0.0984931353
C   C7        1.0  0.17680  0.35620  0.29360  1.0000 -0.0984931353
C   C8        1.0  0.64380  0.82320  0.79360  1.0000 -0.0984931353
C   C9        1.0  0.04300  0.42020  0.53010  1.0000 -0.0899821769
C   C10       1.0  0.57980  0.95700  0.03010  1.0000 -0.0899821769
C   C11       1.0  0.14170  0.46210  0.20720  1.0000 -0.0984931353
C   C12       1.0  0.53790  0.85830  0.70720  1.0000 -0.0984931353
C   C13       1.0  0.07510  0.49110  0.32610  1.0000 -0.0247715551
C   C14       1.0  0.50890  0.92490  0.82610  1.0000 -0.0247715551
C   C15       1.0  0.04560  0.60900  0.22900  1.0000 0.6010872659
C   C16       1.0  0.39100  0.95440  0.72900  1.0000 0.6010872659
O   O1        1.0  0.23500  0.14340  0.47210  1.0000 -0.5699128423
O   O2        1.0  0.85660  0.76500  0.97210  1.0000 -0.5603567872
O   O3        1.0  0.13860  0.09200  0.77320  1.0000 -0.554554126
O   O4        1.0  0.90800  0.86140  0.27320  1.0000 -0.5603567872
O   O5        1.0  0.99610  0.64570  0.34230  1.0000 -0.5754260633
O   O6        1.0  0.35430  0.00390  0.84230  1.0000 -0.5699128423
O   O7        1.0  0.07350  0.66990  0.04100  1.0000 -0.5374682757
O   O8        1.0  0.33010  0.92650  0.54100  1.0000 -0.5374682757
O   O9        1.0  0.21470  0.00150  0.17260  1.0000 -0.8675576064
O   O10       1.0  0.99850  0.78530  0.67260  1.0000 -0.8675576064
