# DDEC6 charges by PACMAN v1.1 (https://github.com/mtap-research/PACMAN-charge/)
data_2013[Cu][ant]3[ASR]1
_chemical_formula_sum              "Cu32 H56 C88 S24 N16 O120"
_cell_length_a       13.6542
_cell_length_b       13.6542
_cell_length_c       42.16
_cell_angle_alpha    90
_cell_angle_beta     90
_cell_angle_gamma    90

_symmetry_space_group_name_H-M    "P 1"
_symmetry_Int_Tables_number       1

loop_
  _symmetry_equiv_pos_as_xyz
  'x, y, z'

loop_
  _atom_site_type_symbol
  _atom_site_label
  _atom_site_symmetry_multiplicity
  _atom_site_fract_x
  _atom_site_fract_y
  _atom_site_fract_z
  _atom_site_occupancy
  _atom_site_charge
Cu  Cu1       1.0  0.55767  0.51279  0.27928  1.0000 1.0169901608
Cu  Cu2       1.0  0.44233  0.48721  0.77928  1.0000 1.0140230575
Cu  Cu3       1.0  0.98721  0.05767  0.02928  1.0000 1.0169901608
Cu  Cu4       1.0  0.01279  0.94233  0.52928  1.0000 1.0169901608
Cu  Cu5       1.0  0.94233  0.01279  0.47072  1.0000 1.0169901608
Cu  Cu6       1.0  0.05767  0.98721  0.97072  1.0000 1.0140230575
Cu  Cu7       1.0  0.51279  0.55767  0.72072  1.0000 1.0140230575
Cu  Cu8       1.0  0.48721  0.44233  0.22072  1.0000 1.0169901608
Cu  Cu9       1.0  0.72394  0.42180  0.23633  1.0000 0.9594898342
Cu  Cu10      1.0  0.27606  0.57820  0.73633  1.0000 0.9594898342
Cu  Cu11      1.0  0.07820  0.22394  0.98633  1.0000 0.9594898342
Cu  Cu12      1.0  0.92180  0.77606  0.48633  1.0000 0.9594898342
Cu  Cu13      1.0  0.77606  0.92180  0.51367  1.0000 0.9594898342
Cu  Cu14      1.0  0.22394  0.07820  0.01367  1.0000 0.9594898342
Cu  Cu15      1.0  0.42180  0.72394  0.76367  1.0000 0.9594898342
Cu  Cu16      1.0  0.57820  0.27606  0.26367  1.0000 0.9594898342
Cu  Cu17      1.0  0.32772  0.54182  0.27036  1.0000 1.0316624461
Cu  Cu18      1.0  0.67228  0.45818  0.77036  1.0000 1.0316624461
Cu  Cu19      1.0  0.95818  0.82772  0.02036  1.0000 1.0316624461
Cu  Cu20      1.0  0.04182  0.17228  0.52036  1.0000 1.0316624461
Cu  Cu21      1.0  0.17228  0.04182  0.47964  1.0000 1.0316624461
Cu  Cu22      1.0  0.82772  0.95818  0.97964  1.0000 1.0316624461
Cu  Cu23      1.0  0.54182  0.32772  0.72964  1.0000 1.0316624461
Cu  Cu24      1.0  0.45818  0.67228  0.22964  1.0000 1.0316624461
Cu  Cu25      1.0  0.63234  0.84817  0.25398  1.0000 0.8873526125
Cu  Cu26      1.0  0.36766  0.15183  0.75398  1.0000 0.8825204043
Cu  Cu27      1.0  0.65183  0.13234  0.00398  1.0000 0.8873526125
Cu  Cu28      1.0  0.34817  0.86766  0.50398  1.0000 0.8825204043
Cu  Cu29      1.0  0.86766  0.34817  0.49602  1.0000 0.8873526125
Cu  Cu30      1.0  0.13234  0.65183  0.99602  1.0000 0.8825204043
Cu  Cu31      1.0  0.84817  0.63234  0.74602  1.0000 0.8873526125
Cu  Cu32      1.0  0.15183  0.36766  0.24602  1.0000 0.8825204043
H   H1        1.0  0.89120  0.56360  0.50590  1.0000 0.1469686447
H   H2        1.0  0.10880  0.43640  0.00590  1.0000 0.1469686447
H   H3        1.0  0.93640  0.39120  0.25590  1.0000 0.1469686447
H   H4        1.0  0.06360  0.60880  0.75590  1.0000 0.1469686447
H   H5        1.0  0.60880  0.06360  0.24410  1.0000 0.1469686447
H   H6        1.0  0.39120  0.93640  0.74410  1.0000 0.1469686447
H   H7        1.0  0.56360  0.89120  0.49410  1.0000 0.1469686447
H   H8        1.0  0.43640  0.10880  0.99410  1.0000 0.1469686447
H   H9        1.0  0.97640  0.68740  0.42760  1.0000 0.1347795575
H   H10       1.0  0.02360  0.31260  0.92760  1.0000 0.1347795575
H   H11       1.0  0.81260  0.47640  0.17760  1.0000 0.1347795575
H   H12       1.0  0.18740  0.52360  0.67760  1.0000 0.1347795575
H   H13       1.0  0.52360  0.18740  0.32240  1.0000 0.1347795575
H   H14       1.0  0.47640  0.81260  0.82240  1.0000 0.1347795575
H   H15       1.0  0.68740  0.97640  0.57240  1.0000 0.1347795575
H   H16       1.0  0.31260  0.02360  0.07240  1.0000 0.1347795575
H   H17       1.0  0.94480  0.39880  0.43300  1.0000 0.1406479929
H   H18       1.0  0.05520  0.60120  0.93300  1.0000 0.1406479929
H   H19       1.0  0.10120  0.44480  0.18300  1.0000 0.1406479929
H   H20       1.0  0.89880  0.55520  0.68300  1.0000 0.1406479929
H   H21       1.0  0.55520  0.89880  0.31700  1.0000 0.1406479929
H   H22       1.0  0.44480  0.10120  0.81700  1.0000 0.1406479929
H   H23       1.0  0.39880  0.94480  0.56700  1.0000 0.1406479929
H   H24       1.0  0.60120  0.05520  0.06700  1.0000 0.1406479929
H   H25       1.0  0.10790  0.63960  0.39520  1.0000 0.1406479929
H   H26       1.0  0.89210  0.36040  0.89520  1.0000 0.1406479929
H   H27       1.0  0.86040  0.60790  0.14520  1.0000 0.1406479929
H   H28       1.0  0.13960  0.39210  0.64520  1.0000 0.1406479929
H   H29       1.0  0.39210  0.13960  0.35480  1.0000 0.1406479929
H   H30       1.0  0.60790  0.86040  0.85480  1.0000 0.1406479929
H   H31       1.0  0.63960  0.10790  0.60480  1.0000 0.1406479929
H   H32       1.0  0.36040  0.89210  0.10480  1.0000 0.1406479929
H   H33       1.0  0.17020  0.62370  0.34560  1.0000 0.1469686447
H   H34       1.0  0.82980  0.37630  0.84560  1.0000 0.1469686447
H   H35       1.0  0.87630  0.67020  0.09560  1.0000 0.1469686447
H   H36       1.0  0.12370  0.32980  0.59560  1.0000 0.1469686447
H   H37       1.0  0.32980  0.12370  0.40440  1.0000 0.1469686447
H   H38       1.0  0.67020  0.87630  0.90440  1.0000 0.1469686447
H   H39       1.0  0.62370  0.17020  0.65440  1.0000 0.1469686447
H   H40       1.0  0.37630  0.82980  0.15440  1.0000 0.1469686447
H   H41       1.0  0.98640  0.40240  0.32760  1.0000 0.1406479929
H   H42       1.0  0.01360  0.59760  0.82760  1.0000 0.1406479929
H   H43       1.0  0.09760  0.48640  0.07760  1.0000 0.1406479929
H   H44       1.0  0.90240  0.51360  0.57760  1.0000 0.1406479929
H   H45       1.0  0.51360  0.90240  0.42240  1.0000 0.1406479929
H   H46       1.0  0.48640  0.09760  0.92240  1.0000 0.1406479929
H   H47       1.0  0.40240  0.98640  0.67240  1.0000 0.1406479929
H   H48       1.0  0.59760  0.01360  0.17240  1.0000 0.1406479929
H   H49       1.0  0.92080  0.42130  0.37780  1.0000 0.1406479929
H   H50       1.0  0.07920  0.57870  0.87780  1.0000 0.1347795575
H   H51       1.0  0.07870  0.42080  0.12780  1.0000 0.1347795575
H   H52       1.0  0.92130  0.57920  0.62780  1.0000 0.1347795575
H   H53       1.0  0.57920  0.92130  0.37220  1.0000 0.1347795575
H   H54       1.0  0.42080  0.07870  0.87220  1.0000 0.1347795575
H   H55       1.0  0.42130  0.92080  0.62220  1.0000 0.1347795575
H   H56       1.0  0.57870  0.07920  0.12220  1.0000 0.1347795575
C   C1        1.0  0.91000  0.55780  0.48476  1.0000 0.2787346399
C   C2        1.0  0.09000  0.44220  0.98476  1.0000 0.2787346399
C   C3        1.0  0.94220  0.41000  0.23476  1.0000 0.2787346399
C   C4        1.0  0.05780  0.59000  0.73476  1.0000 0.2787346399
C   C5        1.0  0.59000  0.05780  0.26524  1.0000 0.2787346399
C   C6        1.0  0.41000  0.94220  0.76524  1.0000 0.2787346399
C   C7        1.0  0.55780  0.91000  0.51524  1.0000 0.2787346399
C   C8        1.0  0.44220  0.09000  0.01524  1.0000 0.2787346399
C   C9        1.0  0.96160  0.63090  0.43897  1.0000 0.1115020165
C   C10       1.0  0.03840  0.36910  0.93897  1.0000 0.1115020165
C   C11       1.0  0.86910  0.46160  0.18897  1.0000 0.1115020165
C   C12       1.0  0.13090  0.53840  0.68897  1.0000 0.1115020165
C   C13       1.0  0.53840  0.13090  0.31103  1.0000 0.1115020165
C   C14       1.0  0.46160  0.86910  0.81103  1.0000 0.1115020165
C   C15       1.0  0.63090  0.96160  0.56103  1.0000 0.1115020165
C   C16       1.0  0.36910  0.03840  0.06103  1.0000 0.1115020165
C   C17       1.0  0.96970  0.54080  0.42445  1.0000 0.0017937041
C   C18       1.0  0.03030  0.45920  0.92445  1.0000 -0.0001136641
C   C19       1.0  0.95920  0.46970  0.17445  1.0000 -0.0001136641
C   C20       1.0  0.04080  0.53030  0.67445  1.0000 0.0017937041
C   C21       1.0  0.53030  0.04080  0.32555  1.0000 0.0017937041
C   C22       1.0  0.46970  0.95920  0.82555  1.0000 -0.0001136641
C   C23       1.0  0.54080  0.96970  0.57555  1.0000 -0.0001136641
C   C24       1.0  0.45920  0.03030  0.07555  1.0000 0.0017937041
C   C25       1.0  0.94230  0.46060  0.44218  1.0000 0.0934477422
C   C26       1.0  0.05770  0.53940  0.94218  1.0000 0.0934477422
C   C27       1.0  0.03940  0.44230  0.19218  1.0000 0.0934477422
C   C28       1.0  0.96060  0.55770  0.69218  1.0000 0.0934477422
C   C29       1.0  0.55770  0.96060  0.30782  1.0000 0.0934477422
C   C30       1.0  0.44230  0.03940  0.80782  1.0000 0.0934477422
C   C31       1.0  0.46060  0.94230  0.55782  1.0000 0.0934477422
C   C32       1.0  0.53940  0.05770  0.05782  1.0000 0.0934477422
C   C33       1.0  0.00870  0.53050  0.39205  1.0000 0.0934477422
C   C34       1.0  0.99130  0.46950  0.89205  1.0000 0.0934477422
C   C35       1.0  0.96950  0.50870  0.14205  1.0000 0.0934477422
C   C36       1.0  0.03050  0.49130  0.64205  1.0000 0.0934477422
C   C37       1.0  0.49130  0.03050  0.35795  1.0000 0.0934477422
C   C38       1.0  0.50870  0.96950  0.85795  1.0000 0.0934477422
C   C39       1.0  0.53050  0.00870  0.60795  1.0000 0.0934477422
C   C40       1.0  0.46950  0.99130  0.10795  1.0000 0.0934477422
C   C41       1.0  0.08340  0.59150  0.38171  1.0000 -0.1213964702
C   C42       1.0  0.91660  0.40850  0.88171  1.0000 -0.1213964702
C   C43       1.0  0.90850  0.58340  0.13171  1.0000 -0.1213964702
C   C44       1.0  0.09150  0.41660  0.63171  1.0000 -0.1213964702
C   C45       1.0  0.41660  0.09150  0.36829  1.0000 -0.1213964702
C   C46       1.0  0.58340  0.90850  0.86829  1.0000 -0.1213964702
C   C47       1.0  0.59150  0.08340  0.61829  1.0000 -0.1213964702
C   C48       1.0  0.40850  0.91660  0.11829  1.0000 -0.1213964702
C   C49       1.0  0.12070  0.58160  0.35221  1.0000 -0.0624763876
C   C50       1.0  0.87930  0.41840  0.85221  1.0000 -0.0624763876
C   C51       1.0  0.91840  0.62070  0.10221  1.0000 -0.0624763876
C   C52       1.0  0.08160  0.37930  0.60221  1.0000 -0.0624763876
C   C53       1.0  0.37930  0.08160  0.39779  1.0000 -0.0624763876
C   C54       1.0  0.62070  0.91840  0.89779  1.0000 -0.0624763876
C   C55       1.0  0.58160  0.12070  0.64779  1.0000 -0.0624763876
C   C56       1.0  0.41840  0.87930  0.14779  1.0000 -0.0624763876
C   C57       1.0  0.08670  0.50980  0.33139  1.0000 -0.0374610102
C   C58       1.0  0.91330  0.49020  0.83139  1.0000 -0.0374610102
C   C59       1.0  0.99020  0.58670  0.08139  1.0000 -0.0374610102
C   C60       1.0  0.00980  0.41330  0.58139  1.0000 -0.0374610102
C   C61       1.0  0.41330  0.00980  0.41861  1.0000 -0.0374610102
C   C62       1.0  0.58670  0.99020  0.91861  1.0000 -0.0374610102
C   C63       1.0  0.50980  0.08670  0.66861  1.0000 -0.0374610102
C   C64       1.0  0.49020  0.91330  0.16861  1.0000 -0.0374610102
C   C65       1.0  0.01120  0.45000  0.34120  1.0000 -0.0624763876
C   C66       1.0  0.98880  0.55000  0.84120  1.0000 -0.0624763876
C   C67       1.0  0.05000  0.51120  0.09120  1.0000 -0.0624763876
C   C68       1.0  0.95000  0.48880  0.59120  1.0000 -0.0624763876
C   C69       1.0  0.48880  0.95000  0.40880  1.0000 -0.0624763876
C   C70       1.0  0.51120  0.05000  0.90880  1.0000 -0.0624763876
C   C71       1.0  0.45000  0.01120  0.65880  1.0000 -0.0624763876
C   C72       1.0  0.55000  0.98880  0.15880  1.0000 -0.0624763876
C   C73       1.0  0.97230  0.46120  0.37136  1.0000 -0.1051994892
C   C74       1.0  0.02770  0.53880  0.87136  1.0000 -0.1051994892
C   C75       1.0  0.03880  0.47230  0.12136  1.0000 -0.104187745
C   C76       1.0  0.96120  0.52770  0.62136  1.0000 -0.104187745
C   C77       1.0  0.52770  0.96120  0.37864  1.0000 -0.1051994892
C   C78       1.0  0.47230  0.03880  0.87864  1.0000 -0.1051994892
C   C79       1.0  0.46120  0.97230  0.62864  1.0000 -0.1051994892
C   C80       1.0  0.53880  0.02770  0.12864  1.0000 -0.1051994892
C   C81       1.0  0.13500  0.49490  0.30046  1.0000 0.6201698898
C   C82       1.0  0.86500  0.50510  0.80046  1.0000 0.6201698898
C   C83       1.0  0.00510  0.63500  0.05046  1.0000 0.6201698898
C   C84       1.0  0.99490  0.36500  0.55046  1.0000 0.6201698898
C   C85       1.0  0.36500  0.99490  0.44954  1.0000 0.6201698898
C   C86       1.0  0.63500  0.00510  0.94954  1.0000 0.6201698898
C   C87       1.0  0.49490  0.13500  0.69954  1.0000 0.6201698898
C   C88       1.0  0.50510  0.86500  0.19954  1.0000 0.6201698898
S   S1        1.0  0.71554  0.38635  0.30821  1.0000 1.4199790238
S   S2        1.0  0.28446  0.61365  0.80821  1.0000 1.4199790238
S   S3        1.0  0.11365  0.21554  0.05821  1.0000 1.4199790238
S   S4        1.0  0.88635  0.78446  0.55821  1.0000 1.4199790238
S   S5        1.0  0.78446  0.88635  0.44179  1.0000 1.4199790238
S   S6        1.0  0.21554  0.11365  0.94179  1.0000 1.4199790238
S   S7        1.0  0.38635  0.71554  0.69179  1.0000 1.4199790238
S   S8        1.0  0.61365  0.28446  0.19179  1.0000 1.4199790238
S   S9        1.0  0.46042  0.69980  0.30074  1.0000 1.4146143117
S   S10       1.0  0.53958  0.30020  0.80074  1.0000 1.4146143117
S   S11       1.0  0.80020  0.96042  0.05074  1.0000 1.4146143117
S   S12       1.0  0.19980  0.03958  0.55074  1.0000 1.4199790238
S   S13       1.0  0.03958  0.19980  0.44926  1.0000 1.4146143117
S   S14       1.0  0.96042  0.80020  0.94926  1.0000 1.4146143117
S   S15       1.0  0.69980  0.46042  0.69926  1.0000 1.4199790238
S   S16       1.0  0.30020  0.53958  0.19926  1.0000 1.4146143117
S   S17       1.0  0.68642  0.64860  0.21550  1.0000 1.4264504133
S   S18       1.0  0.31358  0.35140  0.71550  1.0000 1.4264504133
S   S19       1.0  0.85140  0.18642  0.96550  1.0000 1.4264504133
S   S20       1.0  0.14860  0.81358  0.46550  1.0000 1.4264504133
S   S21       1.0  0.81358  0.14860  0.53450  1.0000 1.4264504133
S   S22       1.0  0.18642  0.85140  0.03450  1.0000 1.4264504133
S   S23       1.0  0.64860  0.68642  0.78450  1.0000 1.4264504133
S   S24       1.0  0.35140  0.31358  0.28450  1.0000 1.4264504133
N   N1        1.0  0.93274  0.63829  0.46926  1.0000 -0.2374982902
N   N2        1.0  0.06726  0.36171  0.96926  1.0000 -0.2374982902
N   N3        1.0  0.86171  0.43274  0.21926  1.0000 -0.2374982902
N   N4        1.0  0.13829  0.56726  0.71926  1.0000 -0.2374982902
N   N5        1.0  0.56726  0.13829  0.28074  1.0000 -0.2374982902
N   N6        1.0  0.43274  0.86171  0.78074  1.0000 -0.2374982902
N   N7        1.0  0.63829  0.93274  0.53074  1.0000 -0.2374982902
N   N8        1.0  0.36171  0.06726  0.03074  1.0000 -0.2374982902
N   N9        1.0  0.91230  0.46912  0.47213  1.0000 -0.2878562691
N   N10       1.0  0.08770  0.53088  0.97213  1.0000 -0.2878562691
N   N11       1.0  0.03088  0.41230  0.22213  1.0000 -0.2878562691
N   N12       1.0  0.96912  0.58770  0.72213  1.0000 -0.2878562691
N   N13       1.0  0.58770  0.96912  0.27787  1.0000 -0.2878562691
N   N14       1.0  0.41230  0.03088  0.77787  1.0000 -0.2878562691
N   N15       1.0  0.46912  0.91230  0.52787  1.0000 -0.2878562691
N   N16       1.0  0.53088  0.08770  0.02787  1.0000 -0.2878562691
O   O1        1.0  0.20780  0.54860  0.29446  1.0000 -0.4839166657
O   O2        1.0  0.79220  0.45140  0.79446  1.0000 -0.4839166657
O   O3        1.0  0.95140  0.70780  0.04446  1.0000 -0.4839166657
O   O4        1.0  0.04860  0.29220  0.54446  1.0000 -0.4839166657
O   O5        1.0  0.29220  0.04860  0.45554  1.0000 -0.4839166657
O   O6        1.0  0.70780  0.95140  0.95554  1.0000 -0.4839166657
O   O7        1.0  0.54860  0.20780  0.70554  1.0000 -0.4839166657
O   O8        1.0  0.45140  0.79220  0.20554  1.0000 -0.4839166657
O   O9        1.0  0.10041  0.43110  0.28302  1.0000 -0.515595551
O   O10       1.0  0.89959  0.56890  0.78302  1.0000 -0.515595551
O   O11       1.0  0.06890  0.60041  0.03302  1.0000 -0.515595551
O   O12       1.0  0.93110  0.39959  0.53302  1.0000 -0.515595551
O   O13       1.0  0.39959  0.93110  0.46698  1.0000 -0.515595551
O   O14       1.0  0.60041  0.06890  0.96698  1.0000 -0.515595551
O   O15       1.0  0.43110  0.10041  0.71698  1.0000 -0.515595551
O   O16       1.0  0.56890  0.89959  0.21698  1.0000 -0.515595551
O   O17       1.0  0.59106  0.40894  0.25000  1.0000 -0.9387134047
O   O18       1.0  0.40894  0.59106  0.75000  1.0000 -0.9387134047
O   O19       1.0  0.09106  0.09106  0.00000  1.0000 -0.9387134047
O   O20       1.0  0.90894  0.90894  0.50000  1.0000 -0.9387134047
O   O21       1.0  0.45389  0.54611  0.25000  1.0000 -0.9605453046
O   O22       1.0  0.54611  0.45389  0.75000  1.0000 -0.9605453046
O   O23       1.0  0.95389  0.95389  0.00000  1.0000 -0.9605453046
O   O24       1.0  0.04611  0.04611  0.50000  1.0000 -0.9605453046
O   O25       1.0  0.65400  0.47470  0.31065  1.0000 -0.5898529993
O   O26       1.0  0.34600  0.52530  0.81065  1.0000 -0.5898529993
O   O27       1.0  0.02530  0.15400  0.06065  1.0000 -0.5898529993
O   O28       1.0  0.97470  0.84600  0.56065  1.0000 -0.5898529993
O   O29       1.0  0.84600  0.97470  0.43935  1.0000 -0.5898529993
O   O30       1.0  0.15400  0.02530  0.93935  1.0000 -0.5898529993
O   O31       1.0  0.47470  0.65400  0.68935  1.0000 -0.5898529993
O   O32       1.0  0.52530  0.34600  0.18935  1.0000 -0.5898529993
O   O33       1.0  0.77848  0.39670  0.28024  1.0000 -0.6397803569
O   O34       1.0  0.22152  0.60330  0.78024  1.0000 -0.6397803569
O   O35       1.0  0.10330  0.27848  0.03024  1.0000 -0.6397803569
O   O36       1.0  0.89670  0.72152  0.53024  1.0000 -0.6397803569
O   O37       1.0  0.72152  0.89670  0.46976  1.0000 -0.6397803569
O   O38       1.0  0.27848  0.10330  0.96976  1.0000 -0.6397803569
O   O39       1.0  0.39670  0.77848  0.71976  1.0000 -0.6397803569
O   O40       1.0  0.60330  0.22152  0.21976  1.0000 -0.6397803569
O   O41       1.0  0.64950  0.30170  0.30391  1.0000 -0.6277305664
O   O42       1.0  0.35050  0.69830  0.80391  1.0000 -0.6277305664
O   O43       1.0  0.19830  0.14950  0.05391  1.0000 -0.6277305664
O   O44       1.0  0.80170  0.85050  0.55391  1.0000 -0.6277305664
O   O45       1.0  0.85050  0.80170  0.44609  1.0000 -0.6277305664
O   O46       1.0  0.14950  0.19830  0.94609  1.0000 -0.6277305664
O   O47       1.0  0.30170  0.64950  0.69609  1.0000 -0.6277305664
O   O48       1.0  0.69830  0.35050  0.19609  1.0000 -0.6277305664
O   O49       1.0  0.77320  0.37400  0.33646  1.0000 -0.5331198157
O   O50       1.0  0.22680  0.62600  0.83646  1.0000 -0.5331198157
O   O51       1.0  0.12600  0.27320  0.08646  1.0000 -0.5352558376
O   O52       1.0  0.87400  0.72680  0.58646  1.0000 -0.5352558376
O   O53       1.0  0.72680  0.87400  0.41354  1.0000 -0.5331198157
O   O54       1.0  0.27320  0.12600  0.91354  1.0000 -0.5331198157
O   O55       1.0  0.37400  0.77320  0.66354  1.0000 -0.5331198157
O   O56       1.0  0.62600  0.22680  0.16354  1.0000 -0.5331198157
O   O57       1.0  0.52830  0.61837  0.30832  1.0000 -0.6096074836
O   O58       1.0  0.47170  0.38163  0.80832  1.0000 -0.6096074836
O   O59       1.0  0.88163  0.02830  0.05832  1.0000 -0.6096074836
O   O60       1.0  0.11837  0.97170  0.55832  1.0000 -0.6096074836
O   O61       1.0  0.97170  0.11837  0.44168  1.0000 -0.6096074836
O   O62       1.0  0.02830  0.88163  0.94168  1.0000 -0.6096074836
O   O63       1.0  0.61837  0.52830  0.69168  1.0000 -0.6096074836
O   O64       1.0  0.38163  0.47170  0.19168  1.0000 -0.6096074836
O   O65       1.0  0.36070  0.66030  0.29633  1.0000 -0.6220635878
O   O66       1.0  0.63930  0.33970  0.79633  1.0000 -0.6220635878
O   O67       1.0  0.83970  0.86070  0.04633  1.0000 -0.6220635878
O   O68       1.0  0.16030  0.13930  0.54633  1.0000 -0.6220635878
O   O69       1.0  0.13930  0.16030  0.45367  1.0000 -0.6220635878
O   O70       1.0  0.86070  0.83970  0.95367  1.0000 -0.6220635878
O   O71       1.0  0.66030  0.36070  0.70367  1.0000 -0.6220635878
O   O72       1.0  0.33970  0.63930  0.20367  1.0000 -0.6220635878
O   O73       1.0  0.49260  0.74510  0.27059  1.0000 -0.7226943852
O   O74       1.0  0.50740  0.25490  0.77059  1.0000 -0.7226943852
O   O75       1.0  0.75490  0.99260  0.02059  1.0000 -0.7226943852
O   O76       1.0  0.24510  0.00740  0.52059  1.0000 -0.7226943852
O   O77       1.0  0.00740  0.24510  0.47941  1.0000 -0.7226943852
O   O78       1.0  0.99260  0.75490  0.97941  1.0000 -0.7226943852
O   O79       1.0  0.74510  0.49260  0.72941  1.0000 -0.7226943852
O   O80       1.0  0.25490  0.50740  0.22941  1.0000 -0.7226943852
O   O81       1.0  0.46120  0.77030  0.32594  1.0000 -0.549161251
O   O82       1.0  0.53880  0.22970  0.82594  1.0000 -0.549161251
O   O83       1.0  0.72970  0.96120  0.07594  1.0000 -0.549161251
O   O84       1.0  0.27030  0.03880  0.57594  1.0000 -0.549161251
O   O85       1.0  0.03880  0.27030  0.42406  1.0000 -0.549161251
O   O86       1.0  0.96120  0.72970  0.92406  1.0000 -0.549161251
O   O87       1.0  0.77030  0.46120  0.67406  1.0000 -0.549161251
O   O88       1.0  0.22970  0.53880  0.17406  1.0000 -0.549161251
O   O89       1.0  0.71000  0.57859  0.24087  1.0000 -0.6804874422
O   O90       1.0  0.29000  0.42141  0.74087  1.0000 -0.6804874422
O   O91       1.0  0.92141  0.21000  0.99087  1.0000 -0.6804874422
O   O92       1.0  0.07859  0.79000  0.49087  1.0000 -0.6804874422
O   O93       1.0  0.79000  0.07859  0.50913  1.0000 -0.6804874422
O   O94       1.0  0.21000  0.92141  0.00913  1.0000 -0.6804874422
O   O95       1.0  0.57859  0.71000  0.75913  1.0000 -0.6804874422
O   O96       1.0  0.42141  0.29000  0.25913  1.0000 -0.6804874422
O   O97       1.0  0.69640  0.74790  0.22912  1.0000 -0.6397803569
O   O98       1.0  0.30360  0.25210  0.72912  1.0000 -0.6397803569
O   O99       1.0  0.75210  0.19640  0.97912  1.0000 -0.6397803569
O   O100      1.0  0.24790  0.80360  0.47912  1.0000 -0.6397803569
O   O101      1.0  0.80360  0.24790  0.52088  1.0000 -0.6397803569
O   O102      1.0  0.19640  0.75210  0.02088  1.0000 -0.6397803569
O   O103      1.0  0.74790  0.69640  0.77088  1.0000 -0.6397803569
O   O104      1.0  0.25210  0.30360  0.27088  1.0000 -0.6397803569
O   O105      1.0  0.58610  0.63300  0.20483  1.0000 -0.6618555816
O   O106      1.0  0.41390  0.36700  0.70483  1.0000 -0.6618555816
O   O107      1.0  0.86700  0.08610  0.95483  1.0000 -0.6618555816
O   O108      1.0  0.13300  0.91390  0.45483  1.0000 -0.6618555816
O   O109      1.0  0.91390  0.13300  0.54517  1.0000 -0.6618555816
O   O110      1.0  0.08610  0.86700  0.04517  1.0000 -0.6618555816
O   O111      1.0  0.63300  0.58610  0.79517  1.0000 -0.6618555816
O   O112      1.0  0.36700  0.41390  0.29517  1.0000 -0.6618555816
O   O113      1.0  0.75330  0.64030  0.18881  1.0000 -0.5987464295
O   O114      1.0  0.24670  0.35970  0.68881  1.0000 -0.5987464295
O   O115      1.0  0.85970  0.25330  0.93881  1.0000 -0.5987464295
O   O116      1.0  0.14030  0.74670  0.43881  1.0000 -0.5987464295
O   O117      1.0  0.74670  0.14030  0.56119  1.0000 -0.5987464295
O   O118      1.0  0.25330  0.85970  0.06119  1.0000 -0.5987464295
O   O119      1.0  0.64030  0.75330  0.81119  1.0000 -0.5987464295
O   O120      1.0  0.35970  0.24670  0.31119  1.0000 -0.5987464295
