# DDEC6 charges by PACMAN v1.1 (https://github.com/mtap-research/PACMAN-charge/)
data_2013[Mn][pcu]3[ASR]1
_chemical_formula_sum              "Mn8 H24 C24 O48"
_cell_length_a       12.332
_cell_length_b       12.461
_cell_length_c       17.6055
_cell_angle_alpha    90
_cell_angle_beta     133.139
_cell_angle_gamma    90

_symmetry_space_group_name_H-M    "P 1"
_symmetry_Int_Tables_number       1

loop_
  _symmetry_equiv_pos_as_xyz
  'x, y, z'

loop_
  _atom_site_type_symbol
  _atom_site_label
  _atom_site_symmetry_multiplicity
  _atom_site_fract_x
  _atom_site_fract_y
  _atom_site_fract_z
  _atom_site_occupancy
  _atom_site_charge
Mn  Mn1       1.0  0.76874  0.75287  0.00823  1.0000 1.008888178
Mn  Mn2       1.0  0.23126  0.25287  0.49177  1.0000 1.008888178
Mn  Mn3       1.0  0.23126  0.24713  0.99177  1.0000 1.008888178
Mn  Mn4       1.0  0.76874  0.74713  0.50823  1.0000 1.008888178
Mn  Mn5       1.0  0.26687  0.74768  0.00685  1.0000 1.008888178
Mn  Mn6       1.0  0.73313  0.24768  0.49315  1.0000 1.008888178
Mn  Mn7       1.0  0.73313  0.25232  0.99315  1.0000 1.008888178
Mn  Mn8       1.0  0.26687  0.75232  0.50685  1.0000 1.008888178
H   H1        1.0  0.56510  0.73080  0.05510  1.0000 0.1100713133
H   H2        1.0  0.43490  0.23080  0.44490  1.0000 0.1100713133
H   H3        1.0  0.43490  0.26920  0.94490  1.0000 0.1100713133
H   H4        1.0  0.56510  0.76920  0.55510  1.0000 0.1100713133
H   H5        1.0  0.07600  0.79930  0.07060  1.0000 0.1167970219
H   H6        1.0  0.92400  0.29930  0.42940  1.0000 0.1167970219
H   H7        1.0  0.92400  0.20070  0.92940  1.0000 0.1167970219
H   H8        1.0  0.07600  0.70070  0.57060  1.0000 0.1167970219
H   H9        1.0  0.06000  0.83880  0.25940  1.0000 0.1167970219
H   H10       1.0  0.94000  0.33880  0.24060  1.0000 0.1167970219
H   H11       1.0  0.94000  0.16120  0.74060  1.0000 0.1100713133
H   H12       1.0  0.06000  0.66120  0.75940  1.0000 0.1167970219
H   H13       1.0  0.46930  0.67550  0.25730  1.0000 0.1100713133
H   H14       1.0  0.53070  0.17550  0.24270  1.0000 0.1100713133
H   H15       1.0  0.53070  0.32450  0.74270  1.0000 0.1100713133
H   H16       1.0  0.46930  0.82450  0.75730  1.0000 0.1100713133
H   H17       1.0  0.19380  0.99680  0.92350  1.0000 0.1100713133
H   H18       1.0  0.80620  0.49680  0.57650  1.0000 0.1100713133
H   H19       1.0  0.80620  0.00320  0.07650  1.0000 0.1100713133
H   H20       1.0  0.19380  0.50320  0.42350  1.0000 0.1100713133
H   H21       1.0  0.27270  0.50060  0.05780  1.0000 0.1100713133
H   H22       1.0  0.72730  0.00060  0.44220  1.0000 0.1100713133
H   H23       1.0  0.72730  0.49940  0.94220  1.0000 0.1100713133
H   H24       1.0  0.27270  0.99940  0.55780  1.0000 0.1100713133
C   C1        1.0  0.51506  0.78333  0.00373  1.0000 0.5255374987
C   C2        1.0  0.48494  0.28333  0.49627  1.0000 0.5210565407
C   C3        1.0  0.48494  0.21667  0.99627  1.0000 0.5210565407
C   C4        1.0  0.51506  0.71667  0.50373  1.0000 0.5210565407
C   C5        1.0  0.05248  0.72988  0.04414  1.0000 0.5210565407
C   C6        1.0  0.94752  0.22988  0.45586  1.0000 0.5210565407
C   C7        1.0  0.94752  0.27012  0.95586  1.0000 0.5210565407
C   C8        1.0  0.05248  0.77012  0.54414  1.0000 0.5210565407
C   C9        1.0  0.01143  0.78100  0.25854  1.0000 0.510103472
C   C10       1.0  0.98857  0.28100  0.24146  1.0000 0.510103472
C   C11       1.0  0.98857  0.21900  0.74146  1.0000 0.510103472
C   C12       1.0  0.01143  0.71900  0.75854  1.0000 0.510103472
C   C13       1.0  0.51989  0.72935  0.25561  1.0000 0.5210565407
C   C14       1.0  0.48011  0.22935  0.24439  1.0000 0.5210565407
C   C15       1.0  0.48011  0.27065  0.74439  1.0000 0.5210565407
C   C16       1.0  0.51989  0.77065  0.75561  1.0000 0.5210565407
C   C17       1.0  0.19519  0.99722  0.97698  1.0000 0.5210565407
C   C18       1.0  0.80481  0.49722  0.52302  1.0000 0.5210565407
C   C19       1.0  0.80481  0.00278  0.02302  1.0000 0.5210565407
C   C20       1.0  0.19519  0.50278  0.47698  1.0000 0.5210565407
C   C21       1.0  0.28830  0.49882  0.01305  1.0000 0.5210565407
C   C22       1.0  0.71170  0.99882  0.48695  1.0000 0.5210565407
C   C23       1.0  0.71170  0.50118  0.98695  1.0000 0.5210565407
C   C24       1.0  0.28830  0.00118  0.51305  1.0000 0.5210565407
O   O1        1.0  0.94079  0.69195  0.01836  1.0000 -0.44233752
O   O2        1.0  0.05921  0.19195  0.48164  1.0000 -0.44233752
O   O3        1.0  0.05921  0.30805  0.98164  1.0000 -0.44233752
O   O4        1.0  0.94079  0.80805  0.51836  1.0000 -0.44233752
O   O5        1.0  0.89373  0.75159  0.17279  1.0000 -0.4915112519
O   O6        1.0  0.10627  0.25159  0.32721  1.0000 -0.4915112519
O   O7        1.0  0.10627  0.24841  0.82721  1.0000 -0.4915112519
O   O8        1.0  0.89373  0.74841  0.67279  1.0000 -0.4915112519
O   O9        1.0  0.57606  0.81763  0.97454  1.0000 -0.5064103127
O   O10       1.0  0.42394  0.31763  0.52546  1.0000 -0.5064103127
O   O11       1.0  0.42394  0.18237  0.02546  1.0000 -0.5064103127
O   O12       1.0  0.57606  0.68237  0.47454  1.0000 -0.5064103127
O   O13       1.0  0.39231  0.81345  0.96991  1.0000 -0.5018708329
O   O14       1.0  0.60769  0.31345  0.53009  1.0000 -0.4915112519
O   O15       1.0  0.60769  0.18655  0.03009  1.0000 -0.4915112519
O   O16       1.0  0.39231  0.68655  0.46991  1.0000 -0.4915112519
O   O17       1.0  0.22125  0.91219  0.02088  1.0000 -0.4569545905
O   O18       1.0  0.77875  0.41219  0.47912  1.0000 -0.4524491776
O   O19       1.0  0.77875  0.08781  0.97912  1.0000 -0.4524491776
O   O20       1.0  0.22125  0.58781  0.52088  1.0000 -0.4524491776
O   O21       1.0  0.30892  0.58561  0.99042  1.0000 -0.5064103127
O   O22       1.0  0.69108  0.08561  0.50958  1.0000 -0.5064103127
O   O23       1.0  0.69108  0.41439  0.00958  1.0000 -0.5064103127
O   O24       1.0  0.30892  0.91439  0.49042  1.0000 -0.5064103127
O   O25       1.0  0.46895  0.75907  0.17015  1.0000 -0.478840974
O   O26       1.0  0.53105  0.25907  0.32985  1.0000 -0.478840974
O   O27       1.0  0.53105  0.24093  0.82985  1.0000 -0.478840974
O   O28       1.0  0.46895  0.74093  0.67015  1.0000 -0.478840974
O   O29       1.0  0.06990  0.74094  0.34257  1.0000 -0.4524491776
O   O30       1.0  0.93010  0.24094  0.15743  1.0000 -0.4524491776
O   O31       1.0  0.93010  0.25906  0.65743  1.0000 -0.4524491776
O   O32       1.0  0.06990  0.75906  0.84257  1.0000 -0.4524491776
O   O33       1.0  0.13917  0.68830  0.03988  1.0000 -0.5064103127
O   O34       1.0  0.86083  0.18830  0.46012  1.0000 -0.5018708329
O   O35       1.0  0.86083  0.31170  0.96012  1.0000 -0.5018708329
O   O36       1.0  0.13917  0.81170  0.53988  1.0000 -0.5018708329
O   O37       1.0  0.28680  0.40918  0.98079  1.0000 -0.478840974
O   O38       1.0  0.71320  0.90918  0.51921  1.0000 -0.478840974
O   O39       1.0  0.71320  0.59082  0.01921  1.0000 -0.478840974
O   O40       1.0  0.28680  0.09082  0.48079  1.0000 -0.478840974
O   O41       1.0  0.63479  0.76626  0.34045  1.0000 -0.478840974
O   O42       1.0  0.36521  0.26626  0.15955  1.0000 -0.478840974
O   O43       1.0  0.36521  0.23374  0.65955  1.0000 -0.478840974
O   O44       1.0  0.63479  0.73374  0.84045  1.0000 -0.478840974
O   O45       1.0  0.17024  0.08493  0.99692  1.0000 -0.5201567631
O   O46       1.0  0.82976  0.58493  0.50308  1.0000 -0.5201567631
O   O47       1.0  0.82976  0.91507  0.00308  1.0000 -0.5201567631
O   O48       1.0  0.17024  0.41507  0.49692  1.0000 -0.5201567631
