# DDEC6 charges by PACMAN v1.1 (https://github.com/mtap-research/PACMAN-charge/)
data_2013[Eu][nan]3[ASR]5
_chemical_formula_sum              "Eu4 H28 C60 O24"
_cell_length_a       13.9353
_cell_length_b       13.9353
_cell_length_c       14.725
_cell_angle_alpha    84.0901
_cell_angle_beta     95.9099
_cell_angle_gamma    124.216

_symmetry_space_group_name_H-M    "P 1"
_symmetry_Int_Tables_number       1

loop_
  _symmetry_equiv_pos_as_xyz
  'x, y, z'

loop_
  _atom_site_type_symbol
  _atom_site_label
  _atom_site_symmetry_multiplicity
  _atom_site_fract_x
  _atom_site_fract_y
  _atom_site_fract_z
  _atom_site_occupancy
  _atom_site_charge
Eu  Eu1       1.0  0.96608  0.62210  0.96899  1.0000 2.0722380479
Eu  Eu2       1.0  0.62210  0.96608  0.53101  1.0000 2.0722380479
Eu  Eu3       1.0  0.03392  0.37790  0.03101  1.0000 2.0722380479
Eu  Eu4       1.0  0.37790  0.03392  0.46899  1.0000 2.0722380479
H   H1        1.0  0.27260  0.81600  0.20990  1.0000 0.1298837115
H   H2        1.0  0.81600  0.27260  0.29010  1.0000 0.1298837115
H   H3        1.0  0.72740  0.18400  0.79010  1.0000 0.1298837115
H   H4        1.0  0.18400  0.72740  0.70990  1.0000 0.1298837115
H   H5        1.0  0.56640  0.82860  0.27200  1.0000 0.1183042873
H   H6        1.0  0.82860  0.56640  0.22800  1.0000 0.1183042873
H   H7        1.0  0.43360  0.17140  0.72800  1.0000 0.1183042873
H   H8        1.0  0.17140  0.43360  0.77200  1.0000 0.1183042873
H   H9        1.0  0.34590  0.63430  0.06880  1.0000 0.1298837115
H   H10       1.0  0.63430  0.34590  0.43120  1.0000 0.1298837115
H   H11       1.0  0.65410  0.36570  0.93120  1.0000 0.1298837115
H   H12       1.0  0.36570  0.65410  0.56880  1.0000 0.1298837115
H   H13       1.0  0.44500  0.54160  0.10500  1.0000 0.1183042873
H   H14       1.0  0.54160  0.44500  0.39500  1.0000 0.1183042873
H   H15       1.0  0.55500  0.45840  0.89500  1.0000 0.1183042873
H   H16       1.0  0.45840  0.55500  0.60500  1.0000 0.1183042873
H   H17       1.0  0.57930  0.51230  0.05910  1.0000 0.1131060266
H   H18       1.0  0.51230  0.57930  0.44090  1.0000 0.1131060266
H   H19       1.0  0.42070  0.48770  0.94090  1.0000 0.1131060266
H   H20       1.0  0.48770  0.42070  0.55910  1.0000 0.1131060266
H   H21       1.0  0.83650  0.83510  0.12160  1.0000 0.1298837115
H   H22       1.0  0.83510  0.83650  0.37840  1.0000 0.1298837115
H   H23       1.0  0.16350  0.16490  0.87840  1.0000 0.1298837115
H   H24       1.0  0.16490  0.16350  0.62160  1.0000 0.1298837115
H   H25       1.0  0.70300  0.86380  0.17120  1.0000 0.1131060266
H   H26       1.0  0.86380  0.70300  0.32880  1.0000 0.1131060266
H   H27       1.0  0.29700  0.13620  0.82880  1.0000 0.1131060266
H   H28       1.0  0.13620  0.29700  0.67120  1.0000 0.1131060266
C   C1        1.0  0.29299  0.71921  0.13020  1.0000 -0.0174627113
C   C2        1.0  0.71921  0.29299  0.36980  1.0000 -0.0174627113
C   C3        1.0  0.70701  0.28079  0.86980  1.0000 -0.0174627113
C   C4        1.0  0.28079  0.70701  0.63020  1.0000 -0.0174627113
C   C5        1.0  0.32121  0.79259  0.20000  1.0000 -0.1016698654
C   C6        1.0  0.79259  0.32121  0.30000  1.0000 -0.1016698654
C   C7        1.0  0.67879  0.20741  0.80000  1.0000 -0.1016698654
C   C8        1.0  0.20741  0.67879  0.70000  1.0000 -0.1016698654
C   C9        1.0  0.42203  0.83077  0.25480  1.0000 -0.0174627113
C   C10       1.0  0.83077  0.42203  0.24520  1.0000 -0.0174627113
C   C11       1.0  0.57797  0.16923  0.74520  1.0000 -0.0174627113
C   C12       1.0  0.16923  0.57797  0.75480  1.0000 -0.0174627113
C   C13       1.0  0.49778  0.80102  0.23610  1.0000 -0.141063391
C   C14       1.0  0.80102  0.49778  0.26390  1.0000 -0.141063391
C   C15       1.0  0.50222  0.19898  0.76390  1.0000 -0.141063391
C   C16       1.0  0.19898  0.50222  0.73610  1.0000 -0.141063391
C   C17       1.0  0.47258  0.73042  0.16430  1.0000 0.0582497057
C   C18       1.0  0.73042  0.47258  0.33570  1.0000 0.0582497057
C   C19       1.0  0.52742  0.26958  0.83570  1.0000 0.0582497057
C   C20       1.0  0.26958  0.52742  0.66430  1.0000 0.0582497057
C   C21       1.0  0.36703  0.68617  0.11370  1.0000 -0.1505884528
C   C22       1.0  0.68617  0.36703  0.38630  1.0000 -0.1505884528
C   C23       1.0  0.63297  0.31383  0.88630  1.0000 -0.1505884528
C   C24       1.0  0.31383  0.63297  0.61370  1.0000 -0.1505884528
C   C25       1.0  0.18362  0.67918  0.07170  1.0000 0.6302343507
C   C26       1.0  0.67918  0.18362  0.42830  1.0000 0.6302343507
C   C27       1.0  0.81638  0.32082  0.92830  1.0000 0.6302343507
C   C28       1.0  0.32082  0.81638  0.57170  1.0000 0.6302343507
C   C29       1.0  0.45194  0.90506  0.33440  1.0000 0.6485558947
C   C30       1.0  0.90506  0.45194  0.16560  1.0000 0.6485558947
C   C31       1.0  0.54806  0.09494  0.66560  1.0000 0.6485558947
C   C32       1.0  0.09494  0.54806  0.83440  1.0000 0.6485558947
C   C33       1.0  0.55863  0.70717  0.14120  1.0000 0.0672159542
C   C34       1.0  0.70717  0.55863  0.35880  1.0000 0.0672159542
C   C35       1.0  0.44137  0.29283  0.85880  1.0000 0.0672159542
C   C36       1.0  0.29283  0.44137  0.64120  1.0000 0.0672159542
C   C37       1.0  0.52347  0.60133  0.10810  1.0000 -0.1505884528
C   C38       1.0  0.60133  0.52347  0.39190  1.0000 -0.1505884528
C   C39       1.0  0.47653  0.39867  0.89190  1.0000 -0.1505884528
C   C40       1.0  0.39867  0.47653  0.60810  1.0000 -0.1505884528
C   C41       1.0  0.60420  0.58400  0.07990  1.0000 -0.1016698654
C   C42       1.0  0.58400  0.60420  0.42010  1.0000 -0.1016698654
C   C43       1.0  0.39580  0.41600  0.92010  1.0000 -0.1016698654
C   C44       1.0  0.41600  0.39580  0.57990  1.0000 -0.1016698654
C   C45       1.0  0.72104  0.67156  0.08200  1.0000 -0.0257118258
C   C46       1.0  0.67156  0.72104  0.41800  1.0000 -0.0257118258
C   C47       1.0  0.27896  0.32844  0.91800  1.0000 -0.0257118258
C   C48       1.0  0.32844  0.27896  0.58200  1.0000 -0.0257118258
C   C49       1.0  0.75771  0.77629  0.11750  1.0000 -0.094284157
C   C50       1.0  0.77629  0.75771  0.38250  1.0000 -0.094284157
C   C51       1.0  0.24229  0.22371  0.88250  1.0000 -0.094284157
C   C52       1.0  0.22371  0.24229  0.61750  1.0000 -0.094284157
C   C53       1.0  0.67732  0.79348  0.14710  1.0000 -0.1505884528
C   C54       1.0  0.79348  0.67732  0.35290  1.0000 -0.1505884528
C   C55       1.0  0.32268  0.20652  0.85290  1.0000 -0.1505884528
C   C56       1.0  0.20652  0.32268  0.64710  1.0000 -0.1505884528
C   C57       1.0  0.80457  0.65443  0.04130  1.0000 0.5649857719
C   C58       1.0  0.65443  0.80457  0.45870  1.0000 0.5649857719
C   C59       1.0  0.19543  0.34557  0.95870  1.0000 0.565889736
C   C60       1.0  0.34557  0.19543  0.54130  1.0000 0.565889736
O   O1        1.0  0.12938  0.58016  0.03779  1.0000 -0.7574459712
O   O2        1.0  0.58016  0.12938  0.46221  1.0000 -0.7574459712
O   O3        1.0  0.87062  0.41984  0.96221  1.0000 -0.7574459712
O   O4        1.0  0.41984  0.87062  0.53779  1.0000 -0.7574459712
O   O5        1.0  0.14874  0.74486  0.05661  1.0000 -0.5940311949
O   O6        1.0  0.74486  0.14874  0.44339  1.0000 -0.595356683
O   O7        1.0  0.85126  0.25514  0.94339  1.0000 -0.595356683
O   O8        1.0  0.25514  0.85126  0.55661  1.0000 -0.5940311949
O   O9        1.0  0.38032  0.92788  0.35114  1.0000 -0.6712615143
O   O10       1.0  0.92788  0.38032  0.14886  1.0000 -0.6712615143
O   O11       1.0  0.61968  0.07212  0.64886  1.0000 -0.6712615143
O   O12       1.0  0.07212  0.61968  0.85114  1.0000 -0.6712615143
O   O13       1.0  0.54756  0.93844  0.37718  1.0000 -0.6502857606
O   O14       1.0  0.93844  0.54756  0.12282  1.0000 -0.6502857606
O   O15       1.0  0.45244  0.06156  0.62282  1.0000 -0.6502857606
O   O16       1.0  0.06156  0.45244  0.87718  1.0000 -0.6502857606
O   O17       1.0  0.91168  0.73572  0.04210  1.0000 -0.640111814
O   O18       1.0  0.73572  0.91168  0.45790  1.0000 -0.640111814
O   O19       1.0  0.08832  0.26428  0.95790  1.0000 -0.640111814
O   O20       1.0  0.26428  0.08832  0.54210  1.0000 -0.640111814
O   O21       1.0  0.76701  0.56039  0.00630  1.0000 -0.629514585
O   O22       1.0  0.56039  0.76701  0.49370  1.0000 -0.629514585
O   O23       1.0  0.23299  0.43961  0.99370  1.0000 -0.629514585
O   O24       1.0  0.43961  0.23299  0.50630  1.0000 -0.629514585
