# DDEC6 charges by PACMAN v1.1 (https://github.com/mtap-research/PACMAN-charge/)
data_2013[Ag][lvt]3[ASR]1
_chemical_formula_sum              "Ag4 H136 C128 S8 N8 O8"
_cell_length_a       14.1007
_cell_length_b       18.2277
_cell_length_c       18.2277
_cell_angle_alpha    81.3957
_cell_angle_beta     67.2449
_cell_angle_gamma    67.2449

_symmetry_space_group_name_H-M    "P 1"
_symmetry_Int_Tables_number       1

loop_
  _symmetry_equiv_pos_as_xyz
  'x, y, z'

loop_
  _atom_site_type_symbol
  _atom_site_label
  _atom_site_symmetry_multiplicity
  _atom_site_fract_x
  _atom_site_fract_y
  _atom_site_fract_z
  _atom_site_occupancy
  _atom_site_charge
Ag  Ag1       1.0  0.16621  0.20879  0.70879  1.0000 0.2486376537
Ag  Ag2       1.0  0.08379  0.79121  0.29121  1.0000 0.2486376537
Ag  Ag3       1.0  0.12500  0.70879  0.79121  1.0000 0.2486376537
Ag  Ag4       1.0  0.62500  0.29121  0.20879  1.0000 0.2486376537
H   H1        1.0  0.26306  0.05588  0.79795  1.0000 0.100169433
H   H2        1.0  0.11689  0.94412  0.20205  1.0000 0.100169433
H   H3        1.0  0.93899  0.79795  0.94412  1.0000 0.100169433
H   H4        1.0  0.68106  0.20205  0.05588  1.0000 0.100169433
H   H5        1.0  0.98694  0.70205  0.44412  1.0000 0.100169433
H   H6        1.0  0.13311  0.29795  0.55588  1.0000 0.100169433
H   H7        1.0  0.31101  0.55588  0.70205  1.0000 0.100169433
H   H8        1.0  0.56894  0.44412  0.29795  1.0000 0.100169433
H   H9        1.0  0.83838  0.09678  0.82085  1.0000 0.100169433
H   H10       1.0  0.75601  0.90322  0.17915  1.0000 0.100169433
H   H11       1.0  0.34077  0.82085  0.90322  1.0000 0.100169433
H   H12       1.0  0.06483  0.17915  0.09678  1.0000 0.100169433
H   H13       1.0  0.41162  0.67915  0.40322  1.0000 0.100169433
H   H14       1.0  0.49399  0.32085  0.59678  1.0000 0.100169433
H   H15       1.0  0.90923  0.59678  0.67915  1.0000 0.100169433
H   H16       1.0  0.18517  0.40322  0.32085  1.0000 0.100169433
H   H17       1.0  0.00250  0.27592  0.94557  1.0000 0.0709955656
H   H18       1.0  0.22398  0.72408  0.05443  1.0000 0.0709955656
H   H19       1.0  0.05193  0.94557  0.72408  1.0000 0.0709955656
H   H20       1.0  0.72158  0.05443  0.27592  1.0000 0.0709955656
H   H21       1.0  0.24750  0.55443  0.22408  1.0000 0.0709955656
H   H22       1.0  0.02602  0.44557  0.77592  1.0000 0.0709955656
H   H23       1.0  0.19807  0.77592  0.55443  1.0000 0.0709955656
H   H24       1.0  0.52842  0.22408  0.44557  1.0000 0.0709955656
H   H25       1.0  0.02953  0.25007  0.84507  1.0000 0.0601160803
H   H26       1.0  0.12466  0.74993  0.15493  1.0000 0.0601160803
H   H27       1.0  0.12540  0.84507  0.74993  1.0000 0.0601160803
H   H28       1.0  0.72040  0.15493  0.25007  1.0000 0.0601160803
H   H29       1.0  0.22047  0.65493  0.24993  1.0000 0.0601160803
H   H30       1.0  0.12534  0.34507  0.75007  1.0000 0.0601160803
H   H31       1.0  0.12460  0.75007  0.65493  1.0000 0.0601160803
H   H32       1.0  0.52960  0.24993  0.34507  1.0000 0.0601160803
H   H33       1.0  0.40098  0.19301  0.70909  1.0000 0.0709955656
H   H34       1.0  0.30307  0.80699  0.29091  1.0000 0.0709955656
H   H35       1.0  0.88994  0.70909  0.80699  1.0000 0.0709955656
H   H36       1.0  0.40602  0.29091  0.19301  1.0000 0.0709955656
H   H37       1.0  0.84902  0.79091  0.30699  1.0000 0.0709955656
H   H38       1.0  0.94693  0.20909  0.69301  1.0000 0.0709955656
H   H39       1.0  0.36006  0.69301  0.79091  1.0000 0.0709955656
H   H40       1.0  0.84398  0.30699  0.20909  1.0000 0.0709955656
H   H41       1.0  0.46990  0.23069  0.79894  1.0000 0.100169433
H   H42       1.0  0.49954  0.76931  0.20106  1.0000 0.100169433
H   H43       1.0  0.73116  0.79894  0.76931  1.0000 0.100169433
H   H44       1.0  0.29941  0.20106  0.23069  1.0000 0.100169433
H   H45       1.0  0.78010  0.70106  0.26931  1.0000 0.100169433
H   H46       1.0  0.75046  0.29894  0.73069  1.0000 0.100169433
H   H47       1.0  0.51884  0.73069  0.70106  1.0000 0.100169433
H   H48       1.0  0.95059  0.26931  0.29894  1.0000 0.100169433
H   H49       1.0  0.33873  0.27357  0.94122  1.0000 0.100169433
H   H50       1.0  0.55352  0.72643  0.05878  1.0000 0.100169433
H   H51       1.0  0.72005  0.94122  0.72643  1.0000 0.100169433
H   H52       1.0  0.38770  0.05878  0.27357  1.0000 0.100169433
H   H53       1.0  0.91127  0.55878  0.22643  1.0000 0.100169433
H   H54       1.0  0.69648  0.44122  0.77357  1.0000 0.100169433
H   H55       1.0  0.52995  0.77357  0.55878  1.0000 0.100169433
H   H56       1.0  0.86230  0.22643  0.44122  1.0000 0.100169433
H   H57       1.0  0.14668  0.27120  0.98453  1.0000 0.1114623836
H   H58       1.0  0.40240  0.72880  0.01547  1.0000 0.1114623836
H   H59       1.0  0.86879  0.98453  0.72880  1.0000 0.1114623836
H   H60       1.0  0.58212  0.01547  0.27120  1.0000 0.1114623836
H   H61       1.0  0.10332  0.51547  0.22880  1.0000 0.1114623836
H   H62       1.0  0.84760  0.48453  0.77120  1.0000 0.1114623836
H   H63       1.0  0.38121  0.77120  0.51547  1.0000 0.1114623836
H   H64       1.0  0.66788  0.22880  0.48453  1.0000 0.1114623836
H   H65       1.0  0.61987  0.28671  0.90257  1.0000 0.1158706168
H   H66       1.0  0.80915  0.71329  0.09743  1.0000 0.1158706168
H   H67       1.0  0.47757  0.90257  0.71329  1.0000 0.1158706168
H   H68       1.0  0.09342  0.09743  0.28671  1.0000 0.1158706168
H   H69       1.0  0.63013  0.59743  0.21329  1.0000 0.1158706168
H   H70       1.0  0.44085  0.40257  0.78671  1.0000 0.1158706168
H   H71       1.0  0.77243  0.78671  0.59743  1.0000 0.1158706168
H   H72       1.0  0.15658  0.21329  0.40257  1.0000 0.1158706168
H   H73       1.0  0.50578  0.26517  0.90309  1.0000 0.100169433
H   H74       1.0  0.67405  0.73483  0.09691  1.0000 0.100169433
H   H75       1.0  0.59112  0.90309  0.73483  1.0000 0.100169433
H   H76       1.0  0.22904  0.09691  0.26517  1.0000 0.100169433
H   H77       1.0  0.74422  0.59691  0.23483  1.0000 0.100169433
H   H78       1.0  0.57595  0.40309  0.76517  1.0000 0.100169433
H   H79       1.0  0.65888  0.76517  0.59691  1.0000 0.100169433
H   H80       1.0  0.02096  0.23483  0.40309  1.0000 0.100169433
H   H81       1.0  0.63745  0.22886  0.82411  1.0000 0.100169433
H   H82       1.0  0.69043  0.77114  0.17589  1.0000 0.100169433
H   H83       1.0  0.53844  0.82411  0.77114  1.0000 0.100169433
H   H84       1.0  0.13369  0.17589  0.22886  1.0000 0.100169433
H   H85       1.0  0.61255  0.67589  0.27114  1.0000 0.100169433
H   H86       1.0  0.55957  0.32411  0.72886  1.0000 0.100169433
H   H87       1.0  0.71156  0.72886  0.67589  1.0000 0.100169433
H   H88       1.0  0.11631  0.27114  0.32411  1.0000 0.100169433
H   H89       1.0  0.57106  0.12100  0.05834  1.0000 0.1158706168
H   H90       1.0  0.75040  0.87900  0.94166  1.0000 0.1158706168
H   H91       1.0  0.37060  0.05834  0.87900  1.0000 0.1158706168
H   H92       1.0  0.30794  0.94166  0.12100  1.0000 0.1158706168
H   H93       1.0  0.67894  0.44166  0.37900  1.0000 0.1158706168
H   H94       1.0  0.49960  0.55834  0.62100  1.0000 0.1158706168
H   H95       1.0  0.87940  0.62100  0.44166  1.0000 0.1158706168
H   H96       1.0  0.94206  0.37900  0.55834  1.0000 0.1158706168
H   H97       1.0  0.46575  0.17608  0.01844  1.0000 0.100169433
H   H98       1.0  0.66027  0.82392  0.98156  1.0000 0.100169433
H   H99       1.0  0.51581  0.01844  0.82392  1.0000 0.100169433
H   H100      1.0  0.35817  0.98156  0.17608  1.0000 0.100169433
H   H101      1.0  0.78425  0.48156  0.32392  1.0000 0.100169433
H   H102      1.0  0.58973  0.51844  0.67608  1.0000 0.100169433
H   H103      1.0  0.73419  0.67608  0.48156  1.0000 0.100169433
H   H104      1.0  0.89183  0.32392  0.51844  1.0000 0.100169433
H   H105      1.0  0.52777  0.22722  0.05081  1.0000 0.1114623836
H   H106      1.0  0.80581  0.77278  0.94919  1.0000 0.1114623836
H   H107      1.0  0.42141  0.05081  0.77278  1.0000 0.1114623836
H   H108      1.0  0.24501  0.94919  0.22722  1.0000 0.1114623836
H   H109      1.0  0.72223  0.44919  0.27278  1.0000 0.1114623836
H   H110      1.0  0.44419  0.55081  0.72722  1.0000 0.1114623836
H   H111      1.0  0.82859  0.72722  0.44919  1.0000 0.1114623836
H   H112      1.0  0.00499  0.27278  0.55081  1.0000 0.1114623836
H   H113      1.0  0.68617  0.08639  0.83425  1.0000 0.100169433
H   H114      1.0  0.60681  0.91361  0.16575  1.0000 0.100169433
H   H115      1.0  0.47958  0.83425  0.91361  1.0000 0.100169433
H   H116      1.0  0.22744  0.16575  0.08639  1.0000 0.100169433
H   H117      1.0  0.56383  0.66575  0.41361  1.0000 0.100169433
H   H118      1.0  0.64319  0.33425  0.58639  1.0000 0.100169433
H   H119      1.0  0.77042  0.58639  0.66575  1.0000 0.100169433
H   H120      1.0  0.02256  0.41361  0.33425  1.0000 0.100169433
H   H121      1.0  0.54998  0.10103  0.90360  1.0000 0.1114623836
H   H122      1.0  0.55460  0.89897  0.09640  1.0000 0.1114623836
H   H123      1.0  0.54642  0.90360  0.89897  1.0000 0.1114623836
H   H124      1.0  0.34899  0.09640  0.10103  1.0000 0.1114623836
H   H125      1.0  0.70002  0.59640  0.39897  1.0000 0.1114623836
H   H126      1.0  0.69540  0.40360  0.60103  1.0000 0.1114623836
H   H127      1.0  0.70358  0.60103  0.59640  1.0000 0.1114623836
H   H128      1.0  0.90101  0.39897  0.40360  1.0000 0.1114623836
H   H129      1.0  0.66667  0.03660  0.92854  1.0000 0.1158706168
H   H130      1.0  0.63181  0.96340  0.07146  1.0000 0.1158706168
H   H131      1.0  0.40479  0.92854  0.96340  1.0000 0.1158706168
H   H132      1.0  0.29673  0.07146  0.03660  1.0000 0.1158706168
H   H133      1.0  0.58333  0.57146  0.46340  1.0000 0.1158706168
H   H134      1.0  0.61819  0.42854  0.53660  1.0000 0.1158706168
H   H135      1.0  0.84521  0.53660  0.57146  1.0000 0.1158706168
H   H136      1.0  0.95327  0.46340  0.42854  1.0000 0.1158706168
C   C1        1.0  0.94267  0.11988  0.86742  1.0000 -0.0186676255
C   C2        1.0  0.92997  0.88012  0.13258  1.0000 -0.0186676255
C   C3        1.0  0.18991  0.86742  0.88012  1.0000 -0.0186676255
C   C4        1.0  0.93745  0.13258  0.11988  1.0000 -0.0186676255
C   C5        1.0  0.30733  0.63258  0.38012  1.0000 -0.0186676255
C   C6        1.0  0.32003  0.36742  0.61988  1.0000 -0.0186676255
C   C7        1.0  0.06009  0.61988  0.63258  1.0000 -0.0186676255
C   C8        1.0  0.31255  0.38012  0.36742  1.0000 -0.0186676255
C   C9        1.0  0.94998  0.15166  0.93043  1.0000 0.1548040879
C   C10       1.0  0.03207  0.84834  0.06957  1.0000 0.1548040879
C   C11       1.0  0.11959  0.93043  0.84834  1.0000 0.1548040879
C   C12       1.0  0.89836  0.06957  0.15166  1.0000 0.1548040879
C   C13       1.0  0.30002  0.56957  0.34834  1.0000 0.1548040879
C   C14       1.0  0.21793  0.43043  0.65166  1.0000 0.1548040879
C   C15       1.0  0.13041  0.65166  0.56957  1.0000 0.1548040879
C   C16       1.0  0.35164  0.34834  0.43043  1.0000 0.1548040879
C   C17       1.0  0.14764  0.99854  0.81995  1.0000 -0.0186676255
C   C18       1.0  0.96614  0.00146  0.18005  1.0000 -0.0186676255
C   C19       1.0  0.03241  0.81995  0.00146  1.0000 -0.0186676255
C   C20       1.0  0.85381  0.18005  0.99854  1.0000 -0.0186676255
C   C21       1.0  0.10236  0.68005  0.50146  1.0000 -0.0186676255
C   C22       1.0  0.28386  0.31995  0.49854  1.0000 -0.0186676255
C   C23       1.0  0.21759  0.49854  0.68005  1.0000 -0.0186676255
C   C24       1.0  0.39619  0.50146  0.31995  1.0000 -0.0186676255
C   C25       1.0  0.24602  0.00123  0.81944  1.0000 -0.1616437521
C   C26       1.0  0.06669  0.99877  0.18056  1.0000 -0.1616437521
C   C27       1.0  0.93454  0.81944  0.99877  1.0000 -0.1616437521
C   C28       1.0  0.75275  0.18056  0.00123  1.0000 -0.1616437521
C   C29       1.0  0.00398  0.68056  0.49877  1.0000 -0.1616437521
C   C30       1.0  0.18331  0.31944  0.50123  1.0000 -0.1616437521
C   C31       1.0  0.31546  0.50123  0.68056  1.0000 -0.1616437521
C   C32       1.0  0.49725  0.49877  0.31944  1.0000 -0.1616437521
C   C33       1.0  0.84037  0.12175  0.87113  1.0000 -0.1616437521
C   C34       1.0  0.83326  0.87825  0.12887  1.0000 -0.1616437521
C   C35       1.0  0.28850  0.87113  0.87825  1.0000 -0.1616437521
C   C36       1.0  0.03787  0.12887  0.12175  1.0000 -0.1616437521
C   C37       1.0  0.40963  0.62887  0.37825  1.0000 -0.1616437521
C   C38       1.0  0.41674  0.37113  0.62175  1.0000 -0.1616437521
C   C39       1.0  0.96150  0.62175  0.62887  1.0000 -0.1616437521
C   C40       1.0  0.21213  0.37825  0.37113  1.0000 -0.1616437521
C   C41       1.0  0.74323  0.15361  0.93689  1.0000 0.0601160803
C   C42       1.0  0.83373  0.84639  0.06311  1.0000 0.0601160803
C   C43       1.0  0.31988  0.93689  0.84639  1.0000 0.0601160803
C   C44       1.0  0.10317  0.06311  0.15361  1.0000 0.0601160803
C   C45       1.0  0.50677  0.56311  0.34639  1.0000 0.0601160803
C   C46       1.0  0.41627  0.43689  0.65361  1.0000 0.0601160803
C   C47       1.0  0.93012  0.65361  0.56311  1.0000 0.0601160803
C   C48       1.0  0.14683  0.34639  0.43689  1.0000 0.0601160803
C   C49       1.0  0.05813  0.23262  0.89628  1.0000 -0.0553190114
C   C50       1.0  0.18703  0.76738  0.10372  1.0000 -0.0553190114
C   C51       1.0  0.04559  0.89628  0.76738  1.0000 -0.0553190114
C   C52       1.0  0.70925  0.10372  0.23262  1.0000 -0.0553190114
C   C53       1.0  0.19187  0.60372  0.26738  1.0000 -0.0553190114
C   C54       1.0  0.06297  0.39628  0.73262  1.0000 -0.0553190114
C   C55       1.0  0.20441  0.73262  0.60372  1.0000 -0.0553190114
C   C56       1.0  0.54075  0.26738  0.39628  1.0000 -0.0553190114
C   C57       1.0  0.17352  0.22972  0.87148  1.0000 0.1943413836
C   C58       1.0  0.27473  0.77028  0.12852  1.0000 0.1943413836
C   C59       1.0  0.95499  0.87148  0.77028  1.0000 0.1943413836
C   C60       1.0  0.59676  0.12852  0.22972  1.0000 0.1943413836
C   C61       1.0  0.07648  0.62852  0.27028  1.0000 0.1943413836
C   C62       1.0  0.97527  0.37148  0.72972  1.0000 0.1943413836
C   C63       1.0  0.29501  0.72972  0.62852  1.0000 0.1943413836
C   C64       1.0  0.65324  0.27028  0.37148  1.0000 0.1943413836
C   C65       1.0  0.34767  0.20986  0.77102  1.0000 0.0709955656
C   C66       1.0  0.32855  0.79014  0.22898  1.0000 0.0709955656
C   C67       1.0  0.88132  0.77102  0.79014  1.0000 0.0709955656
C   C68       1.0  0.44247  0.22898  0.20986  1.0000 0.0709955656
C   C69       1.0  0.90233  0.72898  0.29014  1.0000 0.0709955656
C   C70       1.0  0.92145  0.27102  0.70986  1.0000 0.0709955656
C   C71       1.0  0.36868  0.70986  0.72898  1.0000 0.0709955656
C   C72       1.0  0.80753  0.29014  0.27102  1.0000 0.0709955656
C   C73       1.0  0.38517  0.23154  0.82123  1.0000 -0.1430217999
C   C74       1.0  0.43794  0.76846  0.17877  1.0000 -0.1430217999
C   C75       1.0  0.79360  0.82123  0.76846  1.0000 -0.1430217999
C   C76       1.0  0.38329  0.17877  0.23154  1.0000 -0.1430217999
C   C77       1.0  0.86483  0.67877  0.26846  1.0000 -0.1430217999
C   C78       1.0  0.81206  0.32123  0.73154  1.0000 -0.1430217999
C   C79       1.0  0.45640  0.73154  0.67877  1.0000 -0.1430217999
C   C80       1.0  0.86671  0.26846  0.32123  1.0000 -0.1430217999
C   C81       1.0  0.31292  0.25492  0.90006  1.0000 -0.0344953316
C   C82       1.0  0.46789  0.74508  0.09994  1.0000 -0.0344953316
C   C83       1.0  0.78703  0.90006  0.74508  1.0000 -0.0344953316
C   C84       1.0  0.43216  0.09994  0.25492  1.0000 -0.0344953316
C   C85       1.0  0.93708  0.59994  0.24508  1.0000 -0.0344953316
C   C86       1.0  0.78211  0.40006  0.75492  1.0000 -0.0344953316
C   C87       1.0  0.46297  0.75492  0.59994  1.0000 -0.0344953316
C   C88       1.0  0.81784  0.24508  0.40006  1.0000 -0.0344953316
C   C89       1.0  0.20674  0.25355  0.92408  1.0000 -0.1757116544
C   C90       1.0  0.38437  0.74645  0.07592  1.0000 -0.1757116544
C   C91       1.0  0.86918  0.92408  0.74645  1.0000 -0.1757116544
C   C92       1.0  0.53972  0.07592  0.25355  1.0000 -0.1757116544
C   C93       1.0  0.04326  0.57592  0.24645  1.0000 -0.1757116544
C   C94       1.0  0.86563  0.42408  0.75355  1.0000 -0.1757116544
C   C95       1.0  0.38082  0.75355  0.57592  1.0000 -0.1757116544
C   C96       1.0  0.71028  0.24645  0.42408  1.0000 -0.1757116544
C   C97       1.0  0.63068  0.16394  0.93649  1.0000 0.2302015943
C   C98       1.0  0.73110  0.83606  0.06351  1.0000 0.2302015943
C   C99       1.0  0.43283  0.93649  0.83606  1.0000 0.2302015943
C   C100      1.0  0.20539  0.06351  0.16394  1.0000 0.2302015943
C   C101      1.0  0.61932  0.56351  0.33606  1.0000 0.2302015943
C   C102      1.0  0.51890  0.43649  0.66394  1.0000 0.2302015943
C   C103      1.0  0.81717  0.66394  0.56351  1.0000 0.2302015943
C   C104      1.0  0.04461  0.33606  0.43649  1.0000 0.2302015943
C   C105      1.0  0.59593  0.24078  0.88882  1.0000 -0.4113640173
C   C106      1.0  0.72553  0.75922  0.11118  1.0000 -0.4113640173
C   C107      1.0  0.51525  0.88882  0.75922  1.0000 -0.4113640173
C   C108      1.0  0.16329  0.11118  0.24078  1.0000 -0.4113640173
C   C109      1.0  0.65407  0.61118  0.25922  1.0000 -0.4113640173
C   C110      1.0  0.52447  0.38882  0.74078  1.0000 -0.4113640173
C   C111      1.0  0.73475  0.74078  0.61118  1.0000 -0.4113640173
C   C112      1.0  0.08671  0.25922  0.38882  1.0000 -0.4113640173
C   C113      1.0  0.54439  0.17274  0.02109  1.0000 -0.4113640173
C   C114      1.0  0.73822  0.82726  0.97891  1.0000 -0.4113640173
C   C115      1.0  0.43452  0.02109  0.82726  1.0000 -0.4113640173
C   C116      1.0  0.28288  0.97891  0.17274  1.0000 -0.4113640173
C   C117      1.0  0.70561  0.47891  0.32726  1.0000 -0.4113640173
C   C118      1.0  0.51178  0.52109  0.67274  1.0000 -0.4113640173
C   C119      1.0  0.81548  0.67274  0.47891  1.0000 -0.4113640173
C   C120      1.0  0.96712  0.32726  0.52109  1.0000 -0.4113640173
C   C121      1.0  0.63431  0.09277  0.89822  1.0000 -0.4155178669
C   C122      1.0  0.62530  0.90723  0.10178  1.0000 -0.4155178669
C   C123      1.0  0.46747  0.89822  0.90723  1.0000 -0.4155178669
C   C124      1.0  0.27292  0.10178  0.09277  1.0000 -0.4155178669
C   C125      1.0  0.61569  0.60178  0.40723  1.0000 -0.4155178669
C   C126      1.0  0.62470  0.39822  0.59277  1.0000 -0.4155178669
C   C127      1.0  0.78253  0.59277  0.60178  1.0000 -0.4155178669
C   C128      1.0  0.97708  0.40723  0.39822  1.0000 -0.4155178669
S   S1        1.0  0.06121  0.08076  0.78084  1.0000 -0.0135000277
S   S2        1.0  0.92281  0.91924  0.21916  1.0000 -0.0135000277
S   S3        1.0  0.15795  0.78084  0.91924  1.0000 -0.0135000277
S   S4        1.0  0.85802  0.21916  0.08076  1.0000 -0.0135000277
S   S5        1.0  0.18879  0.71916  0.41924  1.0000 -0.0135000277
S   S6        1.0  0.32719  0.28084  0.58076  1.0000 -0.0135000277
S   S7        1.0  0.09205  0.58076  0.71916  1.0000 -0.0135000277
S   S8        1.0  0.39198  0.41924  0.28084  1.0000 -0.0135000277
N   N1        1.0  0.24417  0.20783  0.79346  1.0000 -0.2661840471
N   N2        1.0  0.24546  0.79217  0.20654  1.0000 -0.2661840471
N   N3        1.0  0.96237  0.79346  0.79217  1.0000 -0.2661840471
N   N4        1.0  0.54800  0.20654  0.20783  1.0000 -0.2661840471
N   N5        1.0  0.00583  0.70654  0.29217  1.0000 -0.2661840471
N   N6        1.0  0.00454  0.29346  0.70783  1.0000 -0.2661840471
N   N7        1.0  0.28763  0.70783  0.70654  1.0000 -0.2661840471
N   N8        1.0  0.70200  0.29217  0.29346  1.0000 -0.2661840471
O   O1        1.0  0.04999  0.15396  0.92445  1.0000 -0.2331386863
O   O2        1.0  0.12840  0.84604  0.07555  1.0000 -0.2331386863
O   O3        1.0  0.02556  0.92445  0.84604  1.0000 -0.2331386863
O   O4        1.0  0.79605  0.07555  0.15396  1.0000 -0.2331386863
O   O5        1.0  0.20001  0.57555  0.34604  1.0000 -0.2331386863
O   O6        1.0  0.12160  0.42445  0.65396  1.0000 -0.2331386863
O   O7        1.0  0.22444  0.65396  0.57555  1.0000 -0.2331386863
O   O8        1.0  0.45395  0.34604  0.42445  1.0000 -0.2331386863
