# DDEC6 charges by PACMAN v1.1 (https://github.com/mtap-research/PACMAN-charge/)
data_2013[Eu][nan]3[ASR]2
_chemical_formula_sum              "Eu12 H104 C176 S16 N16 O64"
_cell_length_a       23.426
_cell_length_b       23.426
_cell_length_c       31.3267
_cell_angle_alpha    56.5357
_cell_angle_beta     123.464
_cell_angle_gamma    157.477

_symmetry_space_group_name_H-M    "P 1"
_symmetry_Int_Tables_number       1

loop_
  _symmetry_equiv_pos_as_xyz
  'x, y, z'

loop_
  _atom_site_type_symbol
  _atom_site_label
  _atom_site_symmetry_multiplicity
  _atom_site_fract_x
  _atom_site_fract_y
  _atom_site_fract_z
  _atom_site_occupancy
  _atom_site_charge
Eu  Eu1       1.0  0.37888  0.77362  0.57284  1.0000 2.2743687014
Eu  Eu2       1.0  0.77362  0.37888  0.92716  1.0000 2.2779435495
Eu  Eu3       1.0  0.62112  0.22638  0.42716  1.0000 2.2779435495
Eu  Eu4       1.0  0.22638  0.62112  0.07284  1.0000 2.2743687014
Eu  Eu5       1.0  0.74397  0.14691  0.51850  1.0000 2.2607322911
Eu  Eu6       1.0  0.14691  0.74397  0.98150  1.0000 2.2607322911
Eu  Eu7       1.0  0.25603  0.85309  0.48150  1.0000 2.2607322911
Eu  Eu8       1.0  0.85309  0.25603  0.01850  1.0000 2.2607322911
Eu  Eu9       1.0  0.63092  0.13580  0.57562  1.0000 2.2607322911
Eu  Eu10      1.0  0.13580  0.63092  0.92438  1.0000 2.2607322911
Eu  Eu11      1.0  0.36908  0.86420  0.42438  1.0000 2.2607322911
Eu  Eu12      1.0  0.86420  0.36908  0.07562  1.0000 2.2607322911
H   H1        1.0  0.71510  0.66630  0.06490  1.0000 0.286495177
H   H2        1.0  0.66630  0.71510  0.43510  1.0000 0.286495177
H   H3        1.0  0.28490  0.33370  0.93510  1.0000 0.286495177
H   H4        1.0  0.33370  0.28490  0.56490  1.0000 0.286495177
H   H5        1.0  0.54190  0.53570  0.16330  1.0000 0.1395913402
H   H6        1.0  0.53570  0.54190  0.33670  1.0000 0.1395913402
H   H7        1.0  0.45810  0.46430  0.83670  1.0000 0.1395913402
H   H8        1.0  0.46430  0.45810  0.66330  1.0000 0.1395913402
H   H9        1.0  0.71430  0.58910  0.21410  1.0000 0.1395913402
H   H10       1.0  0.58910  0.71430  0.28590  1.0000 0.1395913402
H   H11       1.0  0.28570  0.41090  0.78590  1.0000 0.1395913402
H   H12       1.0  0.41090  0.28570  0.71410  1.0000 0.1395913402
H   H13       1.0  0.44460  0.63920  0.88140  1.0000 0.1302459071
H   H14       1.0  0.63920  0.44460  0.61860  1.0000 0.1302459071
H   H15       1.0  0.55540  0.36080  0.11860  1.0000 0.1302459071
H   H16       1.0  0.36080  0.55540  0.38140  1.0000 0.1302459071
H   H17       1.0  0.32980  0.50220  0.95950  1.0000 0.1302459071
H   H18       1.0  0.50220  0.32980  0.54050  1.0000 0.1302459071
H   H19       1.0  0.67020  0.49780  0.04050  1.0000 0.1302459071
H   H20       1.0  0.49780  0.67020  0.45950  1.0000 0.1302459071
H   H21       1.0  0.83160  0.80060  0.98890  1.0000 0.2833783011
H   H22       1.0  0.80060  0.83160  0.51110  1.0000 0.2833783011
H   H23       1.0  0.16840  0.19940  0.01110  1.0000 0.2833783011
H   H24       1.0  0.19940  0.16840  0.48890  1.0000 0.2833783011
H   H25       1.0  0.12350  0.08010  0.89800  1.0000 0.1302459071
H   H26       1.0  0.08010  0.12350  0.60200  1.0000 0.1302459071
H   H27       1.0  0.87650  0.91990  0.10200  1.0000 0.1302459071
H   H28       1.0  0.91990  0.87650  0.39800  1.0000 0.1302459071
H   H29       1.0  0.94990  0.02450  0.84770  1.0000 0.1302459071
H   H30       1.0  0.02450  0.94990  0.65230  1.0000 0.1302459071
H   H31       1.0  0.05010  0.97550  0.15230  1.0000 0.1302459071
H   H32       1.0  0.97550  0.05010  0.34770  1.0000 0.1302459071
H   H33       1.0  0.98630  0.68830  0.16230  1.0000 0.1302459071
H   H34       1.0  0.68830  0.98630  0.33770  1.0000 0.1302459071
H   H35       1.0  0.01370  0.31170  0.83770  1.0000 0.1302459071
H   H36       1.0  0.31170  0.01370  0.66230  1.0000 0.1302459071
H   H37       1.0  0.08350  0.80390  0.08270  1.0000 0.1302459071
H   H38       1.0  0.80390  0.08350  0.41730  1.0000 0.1302459071
H   H39       1.0  0.91650  0.19610  0.91730  1.0000 0.1302459071
H   H40       1.0  0.19610  0.91650  0.58270  1.0000 0.1302459071
H   H41       1.0  0.28150  0.30730  0.11570  1.0000 0.1142244245
H   H42       1.0  0.30730  0.28150  0.38430  1.0000 0.1142244245
H   H43       1.0  0.71850  0.69270  0.88430  1.0000 0.1142244245
H   H44       1.0  0.69270  0.71850  0.61570  1.0000 0.1142244245
H   H45       1.0  0.13260  0.22440  0.14240  1.0000 0.1302459071
H   H46       1.0  0.22440  0.13260  0.35760  1.0000 0.1302459071
H   H47       1.0  0.86740  0.77560  0.85760  1.0000 0.1302459071
H   H48       1.0  0.77560  0.86740  0.64240  1.0000 0.1302459071
H   H49       1.0  0.31180  0.56860  0.04640  1.0000 0.1503796326
H   H50       1.0  0.56860  0.31180  0.45360  1.0000 0.1503796326
H   H51       1.0  0.68820  0.43140  0.95360  1.0000 0.1503796326
H   H52       1.0  0.43140  0.68820  0.54640  1.0000 0.1503796326
H   H53       1.0  0.46330  0.65290  0.02260  1.0000 0.1142244245
H   H54       1.0  0.65290  0.46330  0.47740  1.0000 0.1142244245
H   H55       1.0  0.53670  0.34710  0.97740  1.0000 0.1142244245
H   H56       1.0  0.34710  0.53670  0.52260  1.0000 0.1142244245
H   H57       1.0  0.74570  0.97150  0.86580  1.0000 0.1206117606
H   H58       1.0  0.97150  0.74570  0.63420  1.0000 0.1206117606
H   H59       1.0  0.25430  0.02850  0.13420  1.0000 0.1206117606
H   H60       1.0  0.02850  0.25430  0.36580  1.0000 0.1206117606
H   H61       1.0  0.66470  0.99670  0.78530  1.0000 0.1302459071
H   H62       1.0  0.99670  0.66470  0.71470  1.0000 0.1302459071
H   H63       1.0  0.33530  0.00330  0.21470  1.0000 0.1302459071
H   H64       1.0  0.00330  0.33530  0.28530  1.0000 0.1302459071
H   H65       1.0  0.55460  0.78000  0.72820  1.0000 0.1503796326
H   H66       1.0  0.78000  0.55460  0.77180  1.0000 0.1503796326
H   H67       1.0  0.44540  0.22000  0.27180  1.0000 0.1503796326
H   H68       1.0  0.22000  0.44540  0.22820  1.0000 0.1503796326
H   H69       1.0  0.63400  0.75460  0.80910  1.0000 0.1302459071
H   H70       1.0  0.75460  0.63400  0.69090  1.0000 0.1302459071
H   H71       1.0  0.36600  0.24540  0.19090  1.0000 0.1302459071
H   H72       1.0  0.24540  0.36600  0.30910  1.0000 0.1302459071
H   H73       1.0  0.30800  0.09060  0.06180  1.0000 0.1206117606
H   H74       1.0  0.09060  0.30800  0.43820  1.0000 0.1206117606
H   H75       1.0  0.69200  0.90940  0.93820  1.0000 0.1206117606
H   H76       1.0  0.90940  0.69200  0.56180  1.0000 0.1206117606
H   H77       1.0  0.47550  0.16550  0.06610  1.0000 0.1395913402
H   H78       1.0  0.16550  0.47550  0.43390  1.0000 0.1395913402
H   H79       1.0  0.52450  0.83450  0.93390  1.0000 0.1395913402
H   H80       1.0  0.83450  0.52450  0.56610  1.0000 0.1395913402
H   H81       1.0  0.28230  0.03670  0.92620  1.0000 0.1395913402
H   H82       1.0  0.03670  0.28230  0.57380  1.0000 0.1395913402
H   H83       1.0  0.71770  0.96330  0.07380  1.0000 0.1395913402
H   H84       1.0  0.96330  0.71770  0.42620  1.0000 0.1395913402
H   H85       1.0  0.10880  0.95260  0.92340  1.0000 0.1206117606
H   H86       1.0  0.95260  0.10880  0.57660  1.0000 0.1206117606
H   H87       1.0  0.89120  0.04740  0.07660  1.0000 0.1206117606
H   H88       1.0  0.04740  0.89120  0.42340  1.0000 0.1206117606
H   H89       1.0  0.76330  0.47250  0.21440  1.0000 0.1302459071
H   H90       1.0  0.47250  0.76330  0.28560  1.0000 0.1302459071
H   H91       1.0  0.23670  0.52750  0.78560  1.0000 0.1302459071
H   H92       1.0  0.52750  0.23670  0.71440  1.0000 0.1302459071
H   H93       1.0  0.82860  0.45160  0.30410  1.0000 0.1395913402
H   H94       1.0  0.45160  0.82860  0.19590  1.0000 0.1395913402
H   H95       1.0  0.17140  0.54840  0.69590  1.0000 0.1395913402
H   H96       1.0  0.54840  0.17140  0.80410  1.0000 0.1395913402
H   H97       1.0  0.09550  0.83190  0.31230  1.0000 0.1553979198
H   H98       1.0  0.83190  0.09550  0.18770  1.0000 0.1553979198
H   H99       1.0  0.90450  0.16810  0.68770  1.0000 0.1503796326
H   H100      1.0  0.16810  0.90450  0.81230  1.0000 0.1553979198
H   H101      1.0  0.03660  0.85540  0.22280  1.0000 0.1206117606
H   H102      1.0  0.85540  0.03660  0.27720  1.0000 0.1206117606
H   H103      1.0  0.96340  0.14460  0.77720  1.0000 0.1206117606
H   H104      1.0  0.14460  0.96340  0.72280  1.0000 0.1206117606
C   C1        1.0  0.59213  0.58827  0.09650  1.0000 0.1782694778
C   C2        1.0  0.58827  0.59213  0.40350  1.0000 0.1782694778
C   C3        1.0  0.40787  0.41173  0.90350  1.0000 0.1782694778
C   C4        1.0  0.41173  0.40787  0.59650  1.0000 0.1782694778
C   C5        1.0  0.59668  0.56672  0.14945  1.0000 -0.1889445801
C   C6        1.0  0.56672  0.59668  0.35055  1.0000 -0.1889445801
C   C7        1.0  0.40332  0.43328  0.85055  1.0000 -0.1889445801
C   C8        1.0  0.43328  0.40332  0.64945  1.0000 -0.1889445801
C   C9        1.0  0.69312  0.59788  0.17758  1.0000 -0.1823840372
C   C10       1.0  0.59788  0.69312  0.32242  1.0000 -0.1823840372
C   C11       1.0  0.30688  0.40212  0.82242  1.0000 -0.1823840372
C   C12       1.0  0.40212  0.30688  0.67758  1.0000 -0.1823840372
C   C13       1.0  0.75583  0.64577  0.14223  1.0000 0.1782694778
C   C14       1.0  0.64577  0.75583  0.35777  1.0000 0.1746050398
C   C15       1.0  0.24417  0.35423  0.85777  1.0000 0.1746050398
C   C16       1.0  0.35423  0.24417  0.64223  1.0000 0.1782694778
C   C17       1.0  0.50262  0.56098  0.05413  1.0000 -0.0789060985
C   C18       1.0  0.56098  0.50262  0.44587  1.0000 -0.0789060985
C   C19       1.0  0.49738  0.43902  0.94587  1.0000 -0.0789060985
C   C20       1.0  0.43902  0.49738  0.55413  1.0000 -0.0789060985
C   C21       1.0  0.52012  0.60488  0.00313  1.0000 0.1782694778
C   C22       1.0  0.60488  0.52012  0.49687  1.0000 0.1782694778
C   C23       1.0  0.47988  0.39512  0.99687  1.0000 0.1782694778
C   C24       1.0  0.39512  0.47988  0.50313  1.0000 0.1782694778
C   C25       1.0  0.61972  0.72128  0.93379  1.0000 0.1782694778
C   C26       1.0  0.72128  0.61972  0.56621  1.0000 0.1782694778
C   C27       1.0  0.38028  0.27872  0.06621  1.0000 0.1782694778
C   C28       1.0  0.27872  0.38028  0.43379  1.0000 0.1782694778
C   C29       1.0  0.48281  0.64019  0.91610  1.0000 -0.1889445801
C   C30       1.0  0.64019  0.48281  0.58390  1.0000 -0.1889445801
C   C31       1.0  0.51719  0.35981  0.08390  1.0000 -0.1889445801
C   C32       1.0  0.35981  0.51719  0.41610  1.0000 -0.1889445801
C   C33       1.0  0.42120  0.56680  0.95878  1.0000 -0.1743210834
C   C34       1.0  0.56680  0.42120  0.54122  1.0000 -0.1743210834
C   C35       1.0  0.57880  0.43320  0.04122  1.0000 -0.1743210834
C   C36       1.0  0.43320  0.57880  0.45878  1.0000 -0.1743210834
C   C37       1.0  0.71720  0.81600  0.90071  1.0000 -0.0789060985
C   C38       1.0  0.81600  0.71720  0.59929  1.0000 -0.0789060985
C   C39       1.0  0.28280  0.18400  0.09929  1.0000 -0.0789060985
C   C40       1.0  0.18400  0.28280  0.40071  1.0000 -0.0789060985
C   C41       1.0  0.84108  0.88352  0.91460  1.0000 0.1867790351
C   C42       1.0  0.88352  0.84108  0.58540  1.0000 0.1867790351
C   C43       1.0  0.15892  0.11648  0.08540  1.0000 0.1867790351
C   C44       1.0  0.11648  0.15892  0.41460  1.0000 0.1867790351
C   C45       1.0  0.99987  0.93533  0.96046  1.0000 0.1782694778
C   C46       1.0  0.93533  0.99987  0.53954  1.0000 0.1782694778
C   C47       1.0  0.00013  0.06467  0.03954  1.0000 0.1782694778
C   C48       1.0  0.06467  0.00013  0.46046  1.0000 0.1782694778
C   C49       1.0  0.04251  0.01589  0.91023  1.0000 -0.1823840372
C   C50       1.0  0.01589  0.04251  0.58977  1.0000 -0.1823840372
C   C51       1.0  0.95749  0.98411  0.08977  1.0000 -0.1823840372
C   C52       1.0  0.98411  0.95749  0.41023  1.0000 -0.1823840372
C   C53       1.0  0.94670  0.98490  0.88256  1.0000 -0.1952746083
C   C54       1.0  0.98490  0.94670  0.61744  1.0000 -0.1952746083
C   C55       1.0  0.05330  0.01510  0.11744  1.0000 -0.1952746083
C   C56       1.0  0.01510  0.05330  0.38256  1.0000 -0.1952746083
C   C57       1.0  0.05677  0.92123  0.00063  1.0000 -0.0705292814
C   C58       1.0  0.92123  0.05677  0.49937  1.0000 -0.0705292814
C   C59       1.0  0.94323  0.07877  0.99937  1.0000 -0.0705292814
C   C60       1.0  0.07877  0.94323  0.50063  1.0000 -0.0705292814
C   C61       1.0  0.00152  0.83328  0.04878  1.0000 0.1782694778
C   C62       1.0  0.83328  0.00152  0.45122  1.0000 0.1782694778
C   C63       1.0  0.99848  0.16672  0.95122  1.0000 0.1782694778
C   C64       1.0  0.16672  0.99848  0.54878  1.0000 0.1782694778
C   C65       1.0  0.91149  0.72651  0.11824  1.0000 0.1867790351
C   C66       1.0  0.72651  0.91149  0.38176  1.0000 0.1867790351
C   C67       1.0  0.08851  0.27349  0.88176  1.0000 0.1867790351
C   C68       1.0  0.27349  0.08851  0.61824  1.0000 0.1867790351
C   C69       1.0  0.98019  0.72601  0.13033  1.0000 -0.1823840372
C   C70       1.0  0.72601  0.98019  0.36967  1.0000 -0.1823840372
C   C71       1.0  0.01981  0.27399  0.86967  1.0000 -0.1823840372
C   C72       1.0  0.27399  0.01981  0.63033  1.0000 -0.1823840372
C   C73       1.0  0.03389  0.78991  0.08720  1.0000 -0.1889445801
C   C74       1.0  0.78991  0.03389  0.41280  1.0000 -0.1889445801
C   C75       1.0  0.96611  0.21009  0.91280  1.0000 -0.1889445801
C   C76       1.0  0.21009  0.96611  0.58720  1.0000 -0.1889445801
C   C77       1.0  0.85059  0.67901  0.15411  1.0000 -0.0705292814
C   C78       1.0  0.67901  0.85059  0.34589  1.0000 -0.0705292814
C   C79       1.0  0.14941  0.32099  0.84589  1.0000 -0.0705292814
C   C80       1.0  0.32099  0.14941  0.65411  1.0000 -0.0705292814
C   C81       1.0  0.39365  0.49555  0.06660  1.0000 0.0894296317
C   C82       1.0  0.49555  0.39365  0.43340  1.0000 0.0894296317
C   C83       1.0  0.60635  0.50445  0.93340  1.0000 0.0894296317
C   C84       1.0  0.50445  0.60635  0.56660  1.0000 0.0894296317
C   C85       1.0  0.28974  0.36226  0.10240  1.0000 -0.1386556347
C   C86       1.0  0.36226  0.28974  0.39760  1.0000 -0.1386556347
C   C87       1.0  0.71026  0.63774  0.89760  1.0000 -0.1386556347
C   C88       1.0  0.63774  0.71026  0.60240  1.0000 -0.1386556347
C   C89       1.0  0.20006  0.31174  0.11800  1.0000 -0.1020051857
C   C90       1.0  0.31174  0.20006  0.38200  1.0000 -0.1020051857
C   C91       1.0  0.79994  0.68826  0.88200  1.0000 -0.1020051857
C   C92       1.0  0.68826  0.79994  0.61800  1.0000 -0.1020051857
C   C93       1.0  0.21214  0.39366  0.09665  1.0000 -0.0789060985
C   C94       1.0  0.39366  0.21214  0.40335  1.0000 -0.0789060985
C   C95       1.0  0.78786  0.60634  0.90335  1.0000 -0.0789060985
C   C96       1.0  0.60634  0.78786  0.59665  1.0000 -0.0789060985
C   C97       1.0  0.30653  0.51587  0.06150  1.0000 -0.0578425248
C   C98       1.0  0.51587  0.30653  0.43850  1.0000 -0.0578425248
C   C99       1.0  0.69347  0.48413  0.93850  1.0000 -0.0578425248
C   C100      1.0  0.48413  0.69347  0.56150  1.0000 -0.0578425248
C   C101      1.0  0.39675  0.56565  0.04720  1.0000 -0.1273221449
C   C102      1.0  0.56565  0.39675  0.45280  1.0000 -0.1273221449
C   C103      1.0  0.60325  0.43435  0.95280  1.0000 -0.1273221449
C   C104      1.0  0.43435  0.60325  0.54720  1.0000 -0.1273221449
C   C105      1.0  0.68829  0.85071  0.84629  1.0000 0.0894296317
C   C106      1.0  0.85071  0.68829  0.65371  1.0000 0.0894296317
C   C107      1.0  0.31171  0.14929  0.15371  1.0000 0.0894296317
C   C108      1.0  0.14929  0.31171  0.34629  1.0000 0.0894296317
C   C109      1.0  0.70285  0.92875  0.83820  1.0000 -0.1386556347
C   C110      1.0  0.92875  0.70285  0.66180  1.0000 -0.1386556347
C   C111      1.0  0.29715  0.07125  0.16180  1.0000 -0.1386556347
C   C112      1.0  0.07125  0.29715  0.33820  1.0000 -0.1386556347
C   C113      1.0  0.65563  0.94477  0.79022  1.0000 -0.0884705781
C   C114      1.0  0.94477  0.65563  0.70978  1.0000 -0.0884705781
C   C115      1.0  0.34437  0.05523  0.20978  1.0000 -0.0884705781
C   C116      1.0  0.05523  0.34437  0.29022  1.0000 -0.0884705781
C   C117      1.0  0.59555  0.88485  0.74979  1.0000 -0.0789060985
C   C118      1.0  0.88485  0.59555  0.75021  1.0000 -0.0789060985
C   C119      1.0  0.40445  0.11515  0.25021  1.0000 -0.0789060985
C   C120      1.0  0.11515  0.40445  0.24979  1.0000 -0.0789060985
C   C121      1.0  0.59024  0.81616  0.75644  1.0000 -0.0705292814
C   C122      1.0  0.81616  0.59024  0.74356  1.0000 -0.0705292814
C   C123      1.0  0.40976  0.18384  0.24356  1.0000 -0.0705292814
C   C124      1.0  0.18384  0.40976  0.25644  1.0000 -0.0705292814
C   C125      1.0  0.63736  0.80104  0.80480  1.0000 -0.1386556347
C   C126      1.0  0.80104  0.63736  0.69520  1.0000 -0.1386556347
C   C127      1.0  0.36264  0.19896  0.19520  1.0000 -0.1386556347
C   C128      1.0  0.19896  0.36264  0.30480  1.0000 -0.1386556347
C   C129      1.0  0.17984  0.99796  0.99496  1.0000 0.10402208
C   C130      1.0  0.99796  0.17984  0.50504  1.0000 0.10402208
C   C131      1.0  0.82016  0.00204  0.00504  1.0000 0.10402208
C   C132      1.0  0.00204  0.82016  0.49496  1.0000 0.10402208
C   C133      1.0  0.29745  0.07235  0.03522  1.0000 -0.1386556347
C   C134      1.0  0.07235  0.29745  0.46478  1.0000 -0.1386556347
C   C135      1.0  0.70255  0.92765  0.96478  1.0000 -0.1386556347
C   C136      1.0  0.92765  0.70255  0.53522  1.0000 -0.1386556347
C   C137      1.0  0.39989  0.12071  0.03725  1.0000 -0.0789060985
C   C138      1.0  0.12071  0.39989  0.46275  1.0000 -0.0884705781
C   C139      1.0  0.60011  0.87929  0.96275  1.0000 -0.0884705781
C   C140      1.0  0.87929  0.60011  0.53725  1.0000 -0.0884705781
C   C141      1.0  0.39167  0.10373  0.99776  1.0000 -0.0884705781
C   C142      1.0  0.10373  0.39167  0.50224  1.0000 -0.0884705781
C   C143      1.0  0.60833  0.89627  0.00224  1.0000 -0.0884705781
C   C144      1.0  0.89627  0.60833  0.49776  1.0000 -0.0884705781
C   C145      1.0  0.28434  0.04306  0.95454  1.0000 -0.0705292814
C   C146      1.0  0.04306  0.28434  0.54546  1.0000 -0.0705292814
C   C147      1.0  0.71566  0.95694  0.04546  1.0000 -0.0705292814
C   C148      1.0  0.95694  0.71566  0.45454  1.0000 -0.0705292814
C   C149      1.0  0.18065  0.99215  0.95322  1.0000 -0.1273221449
C   C150      1.0  0.99215  0.18065  0.54678  1.0000 -0.1273221449
C   C151      1.0  0.81935  0.00785  0.04678  1.0000 -0.1273221449
C   C152      1.0  0.00785  0.81935  0.45322  1.0000 -0.1273221449
C   C153      1.0  0.89322  0.66478  0.21045  1.0000 0.0894296317
C   C154      1.0  0.66478  0.89322  0.28955  1.0000 0.0894296317
C   C155      1.0  0.10678  0.33522  0.78955  1.0000 0.0894296317
C   C156      1.0  0.33522  0.10678  0.71045  1.0000 0.0894296317
C   C157      1.0  0.83167  0.54633  0.23405  1.0000 -0.1386556347
C   C158      1.0  0.54633  0.83167  0.26595  1.0000 -0.1386556347
C   C159      1.0  0.16833  0.45367  0.76595  1.0000 -0.1386556347
C   C160      1.0  0.45367  0.16833  0.73405  1.0000 -0.1386556347
C   C161      1.0  0.86897  0.53263  0.28760  1.0000 -0.0705292814
C   C162      1.0  0.53263  0.86897  0.21240  1.0000 -0.0705292814
C   C163      1.0  0.13103  0.46737  0.71240  1.0000 -0.0705292814
C   C164      1.0  0.46737  0.13103  0.78760  1.0000 -0.0705292814
C   C165      1.0  0.96412  0.63768  0.31532  1.0000 -0.0705292814
C   C166      1.0  0.63768  0.96412  0.18468  1.0000 -0.0705292814
C   C167      1.0  0.03588  0.36232  0.68468  1.0000 -0.0705292814
C   C168      1.0  0.36232  0.03588  0.81532  1.0000 -0.0705292814
C   C169      1.0  0.02861  0.75919  0.29248  1.0000 -0.0705292814
C   C170      1.0  0.75919  0.02861  0.20752  1.0000 -0.0705292814
C   C171      1.0  0.97139  0.24081  0.70752  1.0000 -0.0705292814
C   C172      1.0  0.24081  0.97139  0.79248  1.0000 -0.0705292814
C   C173      1.0  0.99252  0.77188  0.23949  1.0000 -0.1386556347
C   C174      1.0  0.77188  0.99252  0.26051  1.0000 -0.1386556347
C   C175      1.0  0.00748  0.22812  0.76051  1.0000 -0.1386556347
C   C176      1.0  0.22812  0.00748  0.73949  1.0000 -0.1386556347
S   S1        1.0  0.10335  0.33643  0.11592  1.0000 1.2503177504
S   S2        1.0  0.33643  0.10335  0.38408  1.0000 1.2503177504
S   S3        1.0  0.89665  0.66357  0.88408  1.0000 1.2503177504
S   S4        1.0  0.66357  0.89665  0.61592  1.0000 1.2503177504
S   S5        1.0  0.51459  0.88589  0.69159  1.0000 1.2292164246
S   S6        1.0  0.88589  0.51459  0.80841  1.0000 1.2292164246
S   S7        1.0  0.48541  0.11411  0.30841  1.0000 1.2292164246
S   S8        1.0  0.11411  0.48541  0.19159  1.0000 1.2292164246
S   S9        1.0  0.50383  0.14121  0.00305  1.0000 1.2622285764
S   S10       1.0  0.14121  0.50383  0.49695  1.0000 1.2622285764
S   S11       1.0  0.49617  0.85879  0.99695  1.0000 1.2622285764
S   S12       1.0  0.85879  0.49617  0.50305  1.0000 1.2622285764
S   S13       1.0  0.00670  0.61574  0.38201  1.0000 1.2883875946
S   S14       1.0  0.61574  0.00670  0.11799  1.0000 1.2883875946
S   S15       1.0  0.99330  0.38426  0.61799  1.0000 1.2883875946
S   S16       1.0  0.38426  0.99330  0.88201  1.0000 1.2883875946
N   N1        1.0  0.69340  0.64020  0.09373  1.0000 -0.2581478824
N   N2        1.0  0.64020  0.69340  0.40627  1.0000 -0.2581478824
N   N3        1.0  0.30660  0.35980  0.90627  1.0000 -0.2581478824
N   N4        1.0  0.35980  0.30660  0.59373  1.0000 -0.2581478824
N   N5        1.0  0.63686  0.69354  0.98699  1.0000 -0.4198163544
N   N6        1.0  0.69354  0.63686  0.51301  1.0000 -0.4198163544
N   N7        1.0  0.36314  0.30646  0.01301  1.0000 -0.4198163544
N   N8        1.0  0.30646  0.36314  0.48699  1.0000 -0.4198163544
N   N9        1.0  0.87815  0.85785  0.96177  1.0000 -0.2581478824
N   N10       1.0  0.85785  0.87815  0.53823  1.0000 -0.2581478824
N   N11       1.0  0.12185  0.14215  0.03823  1.0000 -0.2581478824
N   N12       1.0  0.14215  0.12185  0.46177  1.0000 -0.2581478824
N   N13       1.0  0.91921  0.78539  0.06816  1.0000 -0.4092471321
N   N14       1.0  0.78539  0.91921  0.43184  1.0000 -0.4092471321
N   N15       1.0  0.08079  0.21461  0.93184  1.0000 -0.4092471321
N   N16       1.0  0.21461  0.08079  0.56816  1.0000 -0.4092471321
O   O1        1.0  0.59620  0.02040  0.56429  1.0000 -1.3273549696
O   O2        1.0  0.02040  0.59620  0.93571  1.0000 -1.3171231767
O   O3        1.0  0.40380  0.97960  0.43571  1.0000 -1.3171231767
O   O4        1.0  0.97960  0.40380  0.06429  1.0000 -1.3273549696
O   O5        1.0  0.23116  0.72064  0.49349  1.0000 -1.117694167
O   O6        1.0  0.72064  0.23116  0.00651  1.0000 -1.117694167
O   O7        1.0  0.76884  0.27936  0.50651  1.0000 -1.117694167
O   O8        1.0  0.27936  0.76884  0.99349  1.0000 -1.117694167
O   O9        1.0  0.64278  0.13722  0.43072  1.0000 -1.1253468414
O   O10       1.0  0.13722  0.64278  0.06928  1.0000 -1.117694167
O   O11       1.0  0.35722  0.86278  0.56928  1.0000 -1.117694167
O   O12       1.0  0.86278  0.35722  0.93072  1.0000 -1.117694167
O   O13       1.0  0.50230  0.11030  0.49796  1.0000 -1.1634475609
O   O14       1.0  0.11030  0.50230  0.00204  1.0000 -1.165240707
O   O15       1.0  0.49770  0.88970  0.50204  1.0000 -1.1634475609
O   O16       1.0  0.88970  0.49770  0.99796  1.0000 -1.1634475609
O   O17       1.0  0.20306  0.47754  0.11737  1.0000 -0.6736993213
O   O18       1.0  0.47754  0.20306  0.38263  1.0000 -0.6736993213
O   O19       1.0  0.79694  0.52246  0.88263  1.0000 -0.6736993213
O   O20       1.0  0.52246  0.79694  0.61737  1.0000 -0.6736993213
O   O21       1.0  0.97539  0.25421  0.07505  1.0000 -0.6736993213
O   O22       1.0  0.25421  0.97539  0.42495  1.0000 -0.6736993213
O   O23       1.0  0.02461  0.74579  0.92495  1.0000 -0.6736993213
O   O24       1.0  0.74579  0.02461  0.57505  1.0000 -0.6736993213
O   O25       1.0  0.05831  0.24409  0.16493  1.0000 -0.5696200152
O   O26       1.0  0.24409  0.05831  0.33507  1.0000 -0.5696200152
O   O27       1.0  0.94169  0.75591  0.83507  1.0000 -0.5696200152
O   O28       1.0  0.75591  0.94169  0.66493  1.0000 -0.5696200152
O   O29       1.0  0.63801  0.04079  0.66618  1.0000 -0.6615350937
O   O30       1.0  0.04079  0.63801  0.83382  1.0000 -0.6615350937
O   O31       1.0  0.36199  0.95921  0.33382  1.0000 -0.6615350937
O   O32       1.0  0.95921  0.36199  0.16618  1.0000 -0.6615350937
O   O33       1.0  0.41750  0.83110  0.70526  1.0000 -0.5298756232
O   O34       1.0  0.83110  0.41750  0.79474  1.0000 -0.5298756232
O   O35       1.0  0.58250  0.16890  0.29474  1.0000 -0.5298756232
O   O36       1.0  0.16890  0.58250  0.20526  1.0000 -0.5298756232
O   O37       1.0  0.43265  0.78675  0.66185  1.0000 -0.6615350937
O   O38       1.0  0.78675  0.43265  0.83815  1.0000 -0.6615350937
O   O39       1.0  0.56735  0.21325  0.33815  1.0000 -0.6615350937
O   O40       1.0  0.21325  0.56735  0.16185  1.0000 -0.6615350937
O   O41       1.0  0.62068  0.22492  0.04708  1.0000 -0.6124390532
O   O42       1.0  0.22492  0.62068  0.45292  1.0000 -0.6124390532
O   O43       1.0  0.37932  0.77508  0.95292  1.0000 -0.6124390532
O   O44       1.0  0.77508  0.37932  0.54708  1.0000 -0.6124390532
O   O45       1.0  0.56404  0.22576  0.95436  1.0000 -0.6182004979
O   O46       1.0  0.22576  0.56404  0.54564  1.0000 -0.6182004979
O   O47       1.0  0.43596  0.77424  0.04564  1.0000 -0.6182004979
O   O48       1.0  0.77424  0.43596  0.45436  1.0000 -0.6182004979
O   O49       1.0  0.40078  0.99282  0.01205  1.0000 -0.6124390532
O   O50       1.0  0.99282  0.40078  0.48795  1.0000 -0.6124390532
O   O51       1.0  0.59922  0.00718  0.98795  1.0000 -0.6124390532
O   O52       1.0  0.00718  0.59922  0.51205  1.0000 -0.6124390532
O   O53       1.0  0.86583  0.45677  0.40037  1.0000 -0.6124390532
O   O54       1.0  0.45677  0.86583  0.09963  1.0000 -0.6124390532
O   O55       1.0  0.13417  0.54323  0.59963  1.0000 -0.6124390532
O   O56       1.0  0.54323  0.13417  0.90037  1.0000 -0.6124390532
O   O57       1.0  0.11081  0.65979  0.38755  1.0000 -0.6293340345
O   O58       1.0  0.65979  0.11081  0.11245  1.0000 -0.6293340345
O   O59       1.0  0.88919  0.34021  0.61245  1.0000 -0.6293340345
O   O60       1.0  0.34021  0.88919  0.88755  1.0000 -0.6293340345
O   O61       1.0  0.07217  0.71163  0.40547  1.0000 -0.6515433361
O   O62       1.0  0.71163  0.07217  0.09453  1.0000 -0.6515433361
O   O63       1.0  0.92783  0.28837  0.59453  1.0000 -0.6515433361
O   O64       1.0  0.28837  0.92783  0.90547  1.0000 -0.6515433361
