# DDEC6 charges by PACMAN v1.1 (https://github.com/mtap-research/PACMAN-charge/)
data_2013[Zn][ant]3[ASR]2
_chemical_formula_sum              "Zn6 H36 C40 N8 O16"
_cell_length_a       11.166
_cell_length_b       11.166
_cell_length_c       16.672
_cell_angle_alpha    71.5528
_cell_angle_beta     108.447
_cell_angle_gamma    132.439

_symmetry_space_group_name_H-M    "P 1"
_symmetry_Int_Tables_number       1

loop_
  _symmetry_equiv_pos_as_xyz
  'x, y, z'

loop_
  _atom_site_type_symbol
  _atom_site_label
  _atom_site_symmetry_multiplicity
  _atom_site_fract_x
  _atom_site_fract_y
  _atom_site_fract_z
  _atom_site_occupancy
  _atom_site_charge
Zn  Zn1       1.0  0.53390  0.85552  0.73249  1.0000 0.8060728873
Zn  Zn2       1.0  0.85552  0.53390  0.76751  1.0000 0.8060728873
Zn  Zn3       1.0  0.46610  0.14448  0.26751  1.0000 0.8060728873
Zn  Zn4       1.0  0.14448  0.46610  0.23249  1.0000 0.8060728873
Zn  Zn5       1.0  0.75185  0.75185  0.75000  1.0000 0.9677136208
Zn  Zn6       1.0  0.24815  0.24815  0.25000  1.0000 0.9677136208
H   H1        1.0  0.61110  0.06710  0.46790  1.0000 0.129497059
H   H2        1.0  0.06710  0.61110  0.03210  1.0000 0.129497059
H   H3        1.0  0.38890  0.93290  0.53210  1.0000 0.129497059
H   H4        1.0  0.93290  0.38890  0.96790  1.0000 0.129497059
H   H5        1.0  0.11590  0.25390  0.42360  1.0000 0.129497059
H   H6        1.0  0.25390  0.11590  0.07640  1.0000 0.129497059
H   H7        1.0  0.88410  0.74610  0.57640  1.0000 0.129497059
H   H8        1.0  0.74610  0.88410  0.92360  1.0000 0.129497059
H   H9        1.0  0.01920  0.10680  0.55500  1.0000 0.121694662
H   H10       1.0  0.10680  0.01920  0.94500  1.0000 0.121694662
H   H11       1.0  0.98080  0.89320  0.44500  1.0000 0.121694662
H   H12       1.0  0.89320  0.98080  0.05500  1.0000 0.121694662
H   H13       1.0  0.58020  0.20440  0.11280  1.0000 0.3523963059
H   H14       1.0  0.20440  0.58020  0.38720  1.0000 0.3523963059
H   H15       1.0  0.41980  0.79560  0.88720  1.0000 0.3523963059
H   H16       1.0  0.79560  0.41980  0.61280  1.0000 0.3523963059
H   H17       1.0  0.84870  0.39910  0.12270  1.0000 0.0839516989
H   H18       1.0  0.39910  0.84870  0.37730  1.0000 0.0839516989
H   H19       1.0  0.15130  0.60090  0.87730  1.0000 0.0839516989
H   H20       1.0  0.60090  0.15130  0.62270  1.0000 0.0839516989
H   H21       1.0  0.79770  0.59470  0.10220  1.0000 0.1419345777
H   H22       1.0  0.59470  0.79770  0.39780  1.0000 0.1419345777
H   H23       1.0  0.20230  0.40530  0.89780  1.0000 0.1419345777
H   H24       1.0  0.40530  0.20230  0.60220  1.0000 0.1419345777
H   H25       1.0  0.73000  0.51600  0.19180  1.0000 0.1419345777
H   H26       1.0  0.51600  0.73000  0.30820  1.0000 0.1419345777
H   H27       1.0  0.27000  0.48400  0.80820  1.0000 0.1419345777
H   H28       1.0  0.48400  0.27000  0.69180  1.0000 0.1419345777
H   H29       1.0  0.92170  0.62630  0.18980  1.0000 0.1419345777
H   H30       1.0  0.62630  0.92170  0.31020  1.0000 0.1419345777
H   H31       1.0  0.07830  0.37370  0.81020  1.0000 0.1419345777
H   H32       1.0  0.37370  0.07830  0.68980  1.0000 0.1419345777
H   H33       1.0  0.53800  0.66800  0.81500  1.0000 0.3626926805
H   H34       1.0  0.66800  0.53800  0.68500  1.0000 0.3626926805
H   H35       1.0  0.46200  0.33200  0.18500  1.0000 0.3626926805
H   H36       1.0  0.33200  0.46200  0.31500  1.0000 0.3626926805
C   C1        1.0  0.71060  0.10160  0.45840  1.0000 -0.1929108125
C   C2        1.0  0.10160  0.71060  0.04160  1.0000 -0.1929108125
C   C3        1.0  0.28940  0.89840  0.54160  1.0000 -0.1929108125
C   C4        1.0  0.89840  0.28940  0.95840  1.0000 -0.1929108125
C   C5        1.0  0.74670  0.97610  0.60680  1.0000 0.5798760171
C   C6        1.0  0.97610  0.74670  0.89320  1.0000 0.5798760171
C   C7        1.0  0.25330  0.02390  0.39320  1.0000 0.5798760171
C   C8        1.0  0.02390  0.25330  0.10680  1.0000 0.5798760171
C   C9        1.0  0.80640  0.07080  0.52270  1.0000 -0.0415864994
C   C10       1.0  0.07080  0.80640  0.97730  1.0000 -0.0415864994
C   C11       1.0  0.19360  0.92920  0.47730  1.0000 -0.0415864994
C   C12       1.0  0.92920  0.19360  0.02270  1.0000 -0.0415864994
C   C13       1.0  0.01380  0.21460  0.43250  1.0000 -0.2037493249
C   C14       1.0  0.21460  0.01380  0.06750  1.0000 -0.2037493249
C   C15       1.0  0.98620  0.78540  0.56750  1.0000 -0.2037493249
C   C16       1.0  0.78540  0.98620  0.93250  1.0000 -0.2037493249
C   C17       1.0  0.76630  0.18390  0.38070  1.0000 0.129497059
C   C18       1.0  0.18390  0.76630  0.11930  1.0000 0.129497059
C   C19       1.0  0.23370  0.81610  0.61930  1.0000 0.129497059
C   C20       1.0  0.81610  0.23370  0.88070  1.0000 0.129497059
C   C21       1.0  0.80160  0.30260  0.24980  1.0000 0.2757506634
C   C22       1.0  0.30260  0.80160  0.25020  1.0000 0.2757506634
C   C23       1.0  0.19840  0.69740  0.75020  1.0000 0.2757506634
C   C24       1.0  0.69740  0.19840  0.74980  1.0000 0.2757506634
C   C25       1.0  0.91580  0.24180  0.36810  1.0000 0.121694662
C   C26       1.0  0.24180  0.91580  0.13190  1.0000 0.121694662
C   C27       1.0  0.08420  0.75820  0.63190  1.0000 0.121694662
C   C28       1.0  0.75820  0.08420  0.86810  1.0000 0.121694662
C   C29       1.0  0.95580  0.12800  0.50970  1.0000 -0.1221731787
C   C30       1.0  0.12800  0.95580  0.99030  1.0000 -0.1221731787
C   C31       1.0  0.04420  0.87200  0.49030  1.0000 -0.1221731787
C   C32       1.0  0.87200  0.04420  0.00970  1.0000 -0.1221731787
C   C33       1.0  0.78270  0.38050  0.16090  1.0000 0.129497059
C   C34       1.0  0.38050  0.78270  0.33910  1.0000 0.129497059
C   C35       1.0  0.21730  0.61950  0.83910  1.0000 0.129497059
C   C36       1.0  0.61950  0.21730  0.66090  1.0000 0.129497059
C   C37       1.0  0.81090  0.54630  0.16120  1.0000 -0.4735348259
C   C38       1.0  0.54630  0.81090  0.33880  1.0000 -0.4735348259
C   C39       1.0  0.18910  0.45370  0.83880  1.0000 -0.4735348259
C   C40       1.0  0.45370  0.18910  0.66120  1.0000 -0.4735348259
N   N1        1.0  0.69350  0.22370  0.30390  1.0000 -0.4041108226
N   N2        1.0  0.22370  0.69350  0.19610  1.0000 -0.4041108226
N   N3        1.0  0.30650  0.77630  0.69610  1.0000 -0.4041108226
N   N4        1.0  0.77630  0.30650  0.80390  1.0000 -0.4041108226
N   N5        1.0  0.93860  0.32060  0.28350  1.0000 -0.4364611541
N   N6        1.0  0.32060  0.93860  0.21650  1.0000 -0.4364611541
N   N7        1.0  0.06140  0.67940  0.71650  1.0000 -0.4364611541
N   N8        1.0  0.67940  0.06140  0.78350  1.0000 -0.4364611541
O   O1        1.0  0.83360  0.94420  0.66200  1.0000 -0.5642825698
O   O2        1.0  0.94420  0.83360  0.83800  1.0000 -0.5642825698
O   O3        1.0  0.16640  0.05580  0.33800  1.0000 -0.5642825698
O   O4        1.0  0.05580  0.16640  0.16200  1.0000 -0.5642825698
O   O5        1.0  0.56990  0.69930  0.78080  1.0000 -0.6871632819
O   O6        1.0  0.69930  0.56990  0.71920  1.0000 -0.6871632819
O   O7        1.0  0.43010  0.30070  0.21920  1.0000 -0.6871632819
O   O8        1.0  0.30070  0.43010  0.28080  1.0000 -0.6871632819
O   O9        1.0  0.61510  0.92990  0.61880  1.0000 -0.5468625163
O   O10       1.0  0.92990  0.61510  0.88120  1.0000 -0.5468625163
O   O11       1.0  0.38490  0.07010  0.38120  1.0000 -0.5468625163
O   O12       1.0  0.07010  0.38490  0.11880  1.0000 -0.5468625163
O   O13       1.0  0.61450  0.28830  0.12880  1.0000 -0.4589433704
O   O14       1.0  0.28830  0.61450  0.37120  1.0000 -0.4589433704
O   O15       1.0  0.38550  0.71170  0.87120  1.0000 -0.4589433704
O   O16       1.0  0.71170  0.38550  0.62880  1.0000 -0.4589433704
