# DDEC6 charges by PACMAN v1.1 (https://github.com/mtap-research/PACMAN-charge/)
data_2013[Co][nan]3[ASR]19
_chemical_formula_sum              "Co16 H128 C96 O64"
_cell_length_a       21.1404
_cell_length_b       21.1404
_cell_length_c       21.1404
_cell_angle_alpha    95.7311
_cell_angle_beta     95.7311
_cell_angle_gamma    143.157

_symmetry_space_group_name_H-M    "P 1"
_symmetry_Int_Tables_number       1

loop_
  _symmetry_equiv_pos_as_xyz
  'x, y, z'

loop_
  _atom_site_type_symbol
  _atom_site_label
  _atom_site_symmetry_multiplicity
  _atom_site_fract_x
  _atom_site_fract_y
  _atom_site_fract_z
  _atom_site_occupancy
  _atom_site_charge
Co  Co1       1.0  0.07795  0.46339  0.10178  1.0000 0.9670416692
Co  Co2       1.0  0.36161  0.97617  0.89822  1.0000 0.9670416692
Co  Co3       1.0  0.22617  0.82795  0.11456  1.0000 0.9670416692
Co  Co4       1.0  0.71339  0.11161  0.88544  1.0000 0.9670416692
Co  Co5       1.0  0.17205  0.28661  0.39822  1.0000 0.9670416692
Co  Co6       1.0  0.88839  0.77383  0.60178  1.0000 0.9670416692
Co  Co7       1.0  0.02383  0.92205  0.38544  1.0000 0.9670416692
Co  Co8       1.0  0.53661  0.63839  0.61456  1.0000 0.9670416692
Co  Co9       1.0  0.05516  0.58758  0.15890  1.0000 1.0226683224
Co  Co10      1.0  0.42868  0.89626  0.84110  1.0000 1.0226683224
Co  Co11      1.0  0.14626  0.80516  0.96758  1.0000 1.0226683224
Co  Co12      1.0  0.83758  0.17868  0.03242  1.0000 1.0226683224
Co  Co13      1.0  0.19484  0.16242  0.34110  1.0000 1.0226683224
Co  Co14      1.0  0.82132  0.85374  0.65890  1.0000 1.0226683224
Co  Co15      1.0  0.10374  0.94484  0.53242  1.0000 1.0226683224
Co  Co16      1.0  0.41242  0.57132  0.46758  1.0000 1.0226683224
H   H1        1.0  0.80630  0.35670  0.16820  1.0000 0.1396860289
H   H2        1.0  0.18850  0.63810  0.83180  1.0000 0.1396860289
H   H3        1.0  0.88810  0.55630  0.94960  1.0000 0.1396860289
H   H4        1.0  0.60670  0.93850  0.05040  1.0000 0.1396860289
H   H5        1.0  0.44370  0.39330  0.33180  1.0000 0.1396860289
H   H6        1.0  0.06150  0.11190  0.66820  1.0000 0.1396860289
H   H7        1.0  0.36190  0.19370  0.55040  1.0000 0.1396860289
H   H8        1.0  0.64330  0.81150  0.44960  1.0000 0.1396860289
H   H9        1.0  0.77770  0.34920  0.09250  1.0000 0.1396860289
H   H10       1.0  0.25670  0.68520  0.90750  1.0000 0.1396860289
H   H11       1.0  0.93520  0.52770  0.92850  1.0000 0.1396860289
H   H12       1.0  0.59920  0.00670  0.07150  1.0000 0.1396860289
H   H13       1.0  0.47230  0.40080  0.40750  1.0000 0.1396860289
H   H14       1.0  0.99330  0.06480  0.59250  1.0000 0.1396860289
H   H15       1.0  0.31480  0.22230  0.57150  1.0000 0.1396860289
H   H16       1.0  0.65080  0.74330  0.42850  1.0000 0.1396860289
H   H17       1.0  0.62860  0.15530  0.06070  1.0000 0.1121355531
H   H18       1.0  0.09460  0.56790  0.93930  1.0000 0.1121355531
H   H19       1.0  0.81790  0.37860  0.97330  1.0000 0.1121355531
H   H20       1.0  0.40530  0.84460  0.02670  1.0000 0.1121355531
H   H21       1.0  0.62140  0.59470  0.43930  1.0000 0.1121355531
H   H22       1.0  0.15540  0.18210  0.56070  1.0000 0.1121355531
H   H23       1.0  0.43210  0.37140  0.52670  1.0000 0.1121355531
H   H24       1.0  0.84470  0.90540  0.47330  1.0000 0.1121355531
H   H25       1.0  0.65890  0.16080  0.13550  1.0000 0.0902122465
H   H26       1.0  0.02530  0.52340  0.86450  1.0000 0.0902122465
H   H27       1.0  0.77340  0.40890  0.99810  1.0000 0.0902122465
H   H28       1.0  0.41080  0.77530  0.00190  1.0000 0.0902122465
H   H29       1.0  0.59110  0.58920  0.36450  1.0000 0.0902122465
H   H30       1.0  0.22470  0.22660  0.63550  1.0000 0.0902122465
H   H31       1.0  0.47660  0.34110  0.50190  1.0000 0.0902122465
H   H32       1.0  0.83920  0.97470  0.49810  1.0000 0.0902122465
H   H33       1.0  0.62330  0.23920  0.17150  1.0000 0.0793844991
H   H34       1.0  0.06770  0.45180  0.82850  1.0000 0.0793844991
H   H35       1.0  0.70180  0.37330  0.88410  1.0000 0.0793844991
H   H36       1.0  0.48920  0.81770  0.11590  1.0000 0.0793844991
H   H37       1.0  0.62670  0.51080  0.32850  1.0000 0.0793844991
H   H38       1.0  0.18230  0.29820  0.67150  1.0000 0.0793844991
H   H39       1.0  0.54820  0.37670  0.61590  1.0000 0.0793844991
H   H40       1.0  0.76080  0.93230  0.38410  1.0000 0.0793844991
H   H41       1.0  0.58480  0.22320  0.09540  1.0000 0.0978326852
H   H42       1.0  0.12780  0.48940  0.90460  1.0000 0.0978326852
H   H43       1.0  0.73940  0.33480  0.86160  1.0000 0.0978326852
H   H44       1.0  0.47320  0.87780  0.13840  1.0000 0.0978326852
H   H45       1.0  0.66520  0.52680  0.40460  1.0000 0.0978326852
H   H46       1.0  0.12220  0.26060  0.59540  1.0000 0.0978326852
H   H47       1.0  0.51060  0.41520  0.63840  1.0000 0.0978326852
H   H48       1.0  0.77680  0.87220  0.36160  1.0000 0.0978326852
H   H49       1.0  0.43680  0.08080  0.14200  1.0000 0.1396860289
H   H50       1.0  0.93880  0.29480  0.85800  1.0000 0.1396860289
H   H51       1.0  0.54480  0.18680  0.85600  1.0000 0.1396860289
H   H52       1.0  0.33080  0.68880  0.14400  1.0000 0.1396860289
H   H53       1.0  0.81320  0.66920  0.35800  1.0000 0.1396860289
H   H54       1.0  0.31120  0.45520  0.64200  1.0000 0.1396860289
H   H55       1.0  0.70520  0.56320  0.64400  1.0000 0.1396860289
H   H56       1.0  0.91920  0.06120  0.35600  1.0000 0.1396860289
H   H57       1.0  0.47510  0.03950  0.14040  1.0000 0.1396860289
H   H58       1.0  0.89910  0.33470  0.85960  1.0000 0.1396860289
H   H59       1.0  0.58470  0.22510  0.93560  1.0000 0.1396860289
H   H60       1.0  0.28950  0.64910  0.06440  1.0000 0.1396860289
H   H61       1.0  0.77490  0.71050  0.35960  1.0000 0.1396860289
H   H62       1.0  0.35090  0.41530  0.64040  1.0000 0.1396860289
H   H63       1.0  0.66530  0.52490  0.56440  1.0000 0.1396860289
H   H64       1.0  0.96050  0.10090  0.43560  1.0000 0.1396860289
H   H65       1.0  0.28980  0.64320  0.31900  1.0000 0.1329507453
H   H66       1.0  0.32420  0.97080  0.68100  1.0000 0.1329507453
H   H67       1.0  0.22080  0.03980  0.14660  1.0000 0.1329507453
H   H68       1.0  0.89320  0.07420  0.85340  1.0000 0.1329507453
H   H69       1.0  0.96020  0.10680  0.18100  1.0000 0.1329507453
H   H70       1.0  0.92580  0.77920  0.81900  1.0000 0.1329507453
H   H71       1.0  0.02920  0.71020  0.35340  1.0000 0.1329507453
H   H72       1.0  0.35680  0.67580  0.64660  1.0000 0.1329507453
H   H73       1.0  0.23050  0.65440  0.34650  1.0000 0.1194711126
H   H74       1.0  0.30790  0.88400  0.65350  1.0000 0.1194711126
H   H75       1.0  0.13400  0.98050  0.07610  1.0000 0.1194711126
H   H76       1.0  0.90440  0.05790  0.92390  1.0000 0.1194711126
H   H77       1.0  0.01950  0.09560  0.15350  1.0000 0.1194711126
H   H78       1.0  0.94210  0.86600  0.84650  1.0000 0.1194711126
H   H79       1.0  0.11600  0.76950  0.42390  1.0000 0.1194711126
H   H80       1.0  0.34560  0.69210  0.57610  1.0000 0.1194711126
H   H81       1.0  0.15140  0.46110  0.32210  1.0000 0.1121355531
H   H82       1.0  0.13900  0.82930  0.67790  1.0000 0.1121355531
H   H83       1.0  0.07930  0.90140  0.19030  1.0000 0.1121355531
H   H84       1.0  0.71110  0.88900  0.80970  1.0000 0.1121355531
H   H85       1.0  0.09860  0.28890  0.17790  1.0000 0.1121355531
H   H86       1.0  0.11100  0.92070  0.82210  1.0000 0.1121355531
H   H87       1.0  0.17070  0.84860  0.30970  1.0000 0.1121355531
H   H88       1.0  0.53890  0.86100  0.69030  1.0000 0.1121355531
H   H89       1.0  0.07670  0.45810  0.33800  1.0000 0.0902122465
H   H90       1.0  0.12010  0.73870  0.66200  1.0000 0.0902122465
H   H91       1.0  0.98870  0.82670  0.11860  1.0000 0.0902122465
H   H92       1.0  0.70810  0.87010  0.88140  1.0000 0.0902122465
H   H93       1.0  0.17330  0.29190  0.16200  1.0000 0.0902122465
H   H94       1.0  0.12990  0.01130  0.83800  1.0000 0.0902122465
H   H95       1.0  0.26130  0.92330  0.38140  1.0000 0.0902122465
H   H96       1.0  0.54190  0.87990  0.61860  1.0000 0.0902122465
H   H97       1.0  0.28580  0.59620  0.42740  1.0000 0.0902122465
H   H98       1.0  0.16880  0.85840  0.57260  1.0000 0.0902122465
H   H99       1.0  0.10840  0.03580  0.18960  1.0000 0.0902122465
H   H100      1.0  0.84620  0.91880  0.81040  1.0000 0.0902122465
H   H101      1.0  0.96420  0.15380  0.07260  1.0000 0.0902122465
H   H102      1.0  0.08120  0.89160  0.92740  1.0000 0.0902122465
H   H103      1.0  0.14160  0.71420  0.31040  1.0000 0.0902122465
H   H104      1.0  0.40380  0.83120  0.68960  1.0000 0.0902122465
H   H105      1.0  0.21050  0.59240  0.44330  1.0000 0.0793844991
H   H106      1.0  0.14910  0.76720  0.55670  1.0000 0.0793844991
H   H107      1.0  0.01720  0.96050  0.11810  1.0000 0.0793844991
H   H108      1.0  0.84240  0.89910  0.88190  1.0000 0.0793844991
H   H109      1.0  0.03950  0.15760  0.05670  1.0000 0.0793844991
H   H110      1.0  0.10090  0.98280  0.94330  1.0000 0.0793844991
H   H111      1.0  0.23280  0.78950  0.38190  1.0000 0.0793844991
H   H112      1.0  0.40760  0.85090  0.61810  1.0000 0.0793844991
H   H113      1.0  0.07060  0.40360  0.44080  1.0000 0.1194711126
H   H114      1.0  0.96280  0.62980  0.55920  1.0000 0.1194711126
H   H115      1.0  0.87980  0.82060  0.16700  1.0000 0.1194711126
H   H116      1.0  0.65360  0.71280  0.83300  1.0000 0.1194711126
H   H117      1.0  0.17940  0.34640  0.05920  1.0000 0.1194711126
H   H118      1.0  0.28720  0.12020  0.94080  1.0000 0.1194711126
H   H119      1.0  0.37020  0.92940  0.33300  1.0000 0.1194711126
H   H120      1.0  0.59640  0.03720  0.66700  1.0000 0.1194711126
H   H121      1.0  0.18250  0.48630  0.49940  1.0000 0.1396860289
H   H122      1.0  0.98690  0.68310  0.50060  1.0000 0.1396860289
H   H123      1.0  0.93310  0.93250  0.19620  1.0000 0.1396860289
H   H124      1.0  0.73630  0.73690  0.80380  1.0000 0.1396860289
H   H125      1.0  0.06750  0.26370  0.00060  1.0000 0.1396860289
H   H126      1.0  0.26310  0.06690  0.99940  1.0000 0.1396860289
H   H127      1.0  0.31690  0.81750  0.30380  1.0000 0.1396860289
H   H128      1.0  0.51370  0.01310  0.69620  1.0000 0.1396860289
C   C1        1.0  0.85519  0.32689  0.10888  1.0000 0.6745392436
C   C2        1.0  0.21801  0.74631  0.89112  1.0000 0.6745392436
C   C3        1.0  0.99631  0.60519  0.02830  1.0000 0.6745392436
C   C4        1.0  0.57689  0.96801  0.97170  1.0000 0.6745392436
C   C5        1.0  0.39481  0.42311  0.39112  1.0000 0.6745392436
C   C6        1.0  0.03199  0.00369  0.60888  1.0000 0.6745392436
C   C7        1.0  0.25369  0.14481  0.47170  1.0000 0.6745392436
C   C8        1.0  0.67311  0.78199  0.52830  1.0000 0.6745392436
C   C9        1.0  0.77770  0.31494  0.12124  1.0000 -0.3319447284
C   C10       1.0  0.19370  0.65646  0.87876  1.0000 -0.3319447284
C   C11       1.0  0.90646  0.52770  0.96276  1.0000 -0.3319447284
C   C12       1.0  0.56494  0.94370  0.03724  1.0000 -0.3319447284
C   C13       1.0  0.47230  0.43506  0.37876  1.0000 -0.3319447284
C   C14       1.0  0.05630  0.09354  0.62124  1.0000 -0.3319447284
C   C15       1.0  0.34354  0.22230  0.53724  1.0000 -0.3319447284
C   C16       1.0  0.68506  0.80630  0.46276  1.0000 -0.3319447284
C   C17       1.0  0.65957  0.19668  0.10825  1.0000 -0.1353086597
C   C18       1.0  0.08843  0.55132  0.89175  1.0000 -0.1353086597
C   C19       1.0  0.80132  0.40957  0.96289  1.0000 -0.1353086597
C   C20       1.0  0.44668  0.83843  0.03711  1.0000 -0.1353086597
C   C21       1.0  0.59043  0.55332  0.39175  1.0000 -0.1353086597
C   C22       1.0  0.16157  0.19868  0.60825  1.0000 -0.1353086597
C   C23       1.0  0.44868  0.34043  0.53711  1.0000 -0.1353086597
C   C24       1.0  0.80332  0.91157  0.46289  1.0000 -0.1353086597
C   C25       1.0  0.58816  0.19212  0.12508  1.0000 -0.1309025803
C   C26       1.0  0.06704  0.46308  0.87492  1.0000 -0.1309025803
C   C27       1.0  0.71308  0.33816  0.89604  1.0000 -0.1309025803
C   C28       1.0  0.44212  0.81704  0.10396  1.0000 -0.1309025803
C   C29       1.0  0.66184  0.55788  0.37492  1.0000 -0.1309025803
C   C30       1.0  0.18296  0.28692  0.62508  1.0000 -0.1309025803
C   C31       1.0  0.53692  0.41184  0.60396  1.0000 -0.1309025803
C   C32       1.0  0.80788  0.93296  0.39604  1.0000 -0.1309025803
C   C33       1.0  0.47095  0.07550  0.11805  1.0000 -0.3319447284
C   C34       1.0  0.95745  0.35290  0.88195  1.0000 -0.3319447284
C   C35       1.0  0.60290  0.22095  0.89545  1.0000 -0.3319447284
C   C36       1.0  0.32550  0.70745  0.10455  1.0000 -0.3319447284
C   C37       1.0  0.77905  0.67450  0.38195  1.0000 -0.3319447284
C   C38       1.0  0.29255  0.39710  0.61805  1.0000 -0.3319447284
C   C39       1.0  0.64710  0.52905  0.60455  1.0000 -0.3319447284
C   C40       1.0  0.92450  0.04255  0.39545  1.0000 -0.3319447284
C   C41       1.0  0.39564  0.00170  0.04734  1.0000 0.6579881216
C   C42       1.0  0.95436  0.34830  0.95266  1.0000 0.6579881216
C   C43       1.0  0.59830  0.14564  0.89394  1.0000 0.6579881216
C   C44       1.0  0.25170  0.70436  0.10606  1.0000 0.6579881216
C   C45       1.0  0.85436  0.74830  0.45266  1.0000 0.6579881216
C   C46       1.0  0.29564  0.40170  0.54734  1.0000 0.6579881216
C   C47       1.0  0.65170  0.60436  0.60606  1.0000 0.6579881216
C   C48       1.0  0.99830  0.04564  0.39394  1.0000 0.6579881216
C   C49       1.0  0.15665  0.56680  0.24725  1.0000 0.6579881216
C   C50       1.0  0.31955  0.90940  0.75275  1.0000 0.6579881216
C   C51       1.0  0.15940  0.90665  0.08985  1.0000 0.6579881216
C   C52       1.0  0.81680  0.06955  0.91015  1.0000 0.6579881216
C   C53       1.0  0.09335  0.18320  0.25275  1.0000 0.6579881216
C   C54       1.0  0.93045  0.84060  0.74725  1.0000 0.6579881216
C   C55       1.0  0.09060  0.84335  0.41015  1.0000 0.6579881216
C   C56       1.0  0.43320  0.68045  0.58985  1.0000 0.6579881216
C   C57       1.0  0.21699  0.60269  0.31768  1.0000 -0.3179597204
C   C58       1.0  0.28501  0.89931  0.68232  1.0000 -0.3179597204
C   C59       1.0  0.14931  0.96699  0.11430  1.0000 -0.3179597204
C   C60       1.0  0.85269  0.03501  0.88570  1.0000 -0.3179597204
C   C61       1.0  0.03301  0.14731  0.18232  1.0000 -0.3179597204
C   C62       1.0  0.96499  0.85069  0.81768  1.0000 -0.3179597204
C   C63       1.0  0.10069  0.78301  0.38570  1.0000 -0.3179597204
C   C64       1.0  0.39731  0.71499  0.61430  1.0000 -0.3179597204
C   C65       1.0  0.15371  0.50602  0.34573  1.0000 -0.1309025803
C   C66       1.0  0.16029  0.80798  0.65427  1.0000 -0.1309025803
C   C67       1.0  0.05798  0.90371  0.14769  1.0000 -0.1309025803
C   C68       1.0  0.75602  0.91029  0.85231  1.0000 -0.1353086597
C   C69       1.0  0.09629  0.24398  0.15427  1.0000 -0.1309025803
C   C70       1.0  0.08971  0.94202  0.84573  1.0000 -0.1309025803
C   C71       1.0  0.19202  0.84629  0.35231  1.0000 -0.1309025803
C   C72       1.0  0.49398  0.83971  0.64769  1.0000 -0.1309025803
C   C73       1.0  0.20847  0.54757  0.42004  1.0000 -0.1309025803
C   C74       1.0  0.12753  0.78843  0.57996  1.0000 -0.1353086597
C   C75       1.0  0.03843  0.95847  0.16090  1.0000 -0.1353086597
C   C76       1.0  0.79757  0.87753  0.83910  1.0000 -0.1353086597
C   C77       1.0  0.04153  0.20243  0.07996  1.0000 -0.1309025803
C   C78       1.0  0.12247  0.96157  0.92004  1.0000 -0.1353086597
C   C79       1.0  0.21157  0.79153  0.33910  1.0000 -0.1353086597
C   C80       1.0  0.45243  0.87247  0.66090  1.0000 -0.1353086597
C   C81       1.0  0.14881  0.45418  0.45039  1.0000 -0.3104231191
C   C82       1.0  0.00379  0.69842  0.54961  1.0000 -0.3104231191
C   C83       1.0  0.94842  0.89881  0.19463  1.0000 -0.3104231191
C   C84       1.0  0.70418  0.75379  0.80537  1.0000 -0.3104231191
C   C85       1.0  0.10119  0.29582  0.04961  1.0000 -0.3104231191
C   C86       1.0  0.24621  0.05158  0.95039  1.0000 -0.3104231191
C   C87       1.0  0.30158  0.85119  0.30537  1.0000 -0.3104231191
C   C88       1.0  0.54582  0.99621  0.69463  1.0000 -0.3104231191
C   C89       1.0  0.15209  0.38764  0.42533  1.0000 0.6411178763
C   C90       1.0  0.96231  0.72676  0.57467  1.0000 0.6411178763
C   C91       1.0  0.97676  0.90209  0.26445  1.0000 0.6411178763
C   C92       1.0  0.63764  0.71231  0.73555  1.0000 0.6411178763
C   C93       1.0  0.09791  0.36236  0.07467  1.0000 0.6411178763
C   C94       1.0  0.28769  0.02324  0.92533  1.0000 0.6411178763
C   C95       1.0  0.27324  0.84791  0.23555  1.0000 0.6411178763
C   C96       1.0  0.61236  0.03769  0.76445  1.0000 0.6411178763
O   O1        1.0  0.95395  0.42348  0.11383  1.0000 -0.6091617143
O   O2        1.0  0.30965  0.84012  0.88617  1.0000 -0.6091617143
O   O3        1.0  0.09012  0.70395  0.03047  1.0000 -0.6091617143
O   O4        1.0  0.67348  0.05965  0.96953  1.0000 -0.6091617143
O   O5        1.0  0.29605  0.32652  0.38617  1.0000 -0.6091617143
O   O6        1.0  0.94035  0.90988  0.61383  1.0000 -0.6091617143
O   O7        1.0  0.15988  0.04605  0.46953  1.0000 -0.6091617143
O   O8        1.0  0.57652  0.69035  0.53047  1.0000 -0.6091617143
O   O9        1.0  0.82065  0.24241  0.09406  1.0000 -0.5629129058
O   O10       1.0  0.14835  0.72659  0.90594  1.0000 -0.5629129058
O   O11       1.0  0.97659  0.57065  0.07824  1.0000 -0.5629129058
O   O12       1.0  0.49241  0.89835  0.92176  1.0000 -0.5629129058
O   O13       1.0  0.42935  0.50759  0.40594  1.0000 -0.5629129058
O   O14       1.0  0.10165  0.02341  0.59406  1.0000 -0.5629129058
O   O15       1.0  0.27341  0.17935  0.42176  1.0000 -0.5629129058
O   O16       1.0  0.75759  0.85165  0.57824  1.0000 -0.5629129058
O   O17       1.0  0.43259  0.03793  0.99992  1.0000 -0.5284706673
O   O18       1.0  0.03801  0.43267  0.00008  1.0000 -0.5284706673
O   O19       1.0  0.68267  0.18259  0.89466  1.0000 -0.5284706673
O   O20       1.0  0.28793  0.78801  0.10534  1.0000 -0.5284706673
O   O21       1.0  0.81741  0.71207  0.50008  1.0000 -0.5284706673
O   O22       1.0  0.21199  0.31733  0.49992  1.0000 -0.5284706673
O   O23       1.0  0.56733  0.56741  0.60534  1.0000 -0.5284706673
O   O24       1.0  0.96207  0.96199  0.39466  1.0000 -0.5284706673
O   O25       1.0  0.29535  0.90596  0.04051  1.0000 -0.6091617143
O   O26       1.0  0.86545  0.25484  0.95949  1.0000 -0.6091617143
O   O27       1.0  0.50484  0.04535  0.88939  1.0000 -0.6091617143
O   O28       1.0  0.15596  0.61545  0.11061  1.0000 -0.6091617143
O   O29       1.0  0.95465  0.84404  0.45949  1.0000 -0.6091617143
O   O30       1.0  0.38455  0.49516  0.54051  1.0000 -0.6091617143
O   O31       1.0  0.74516  0.70465  0.61061  1.0000 -0.6091617143
O   O32       1.0  0.09404  0.13455  0.38939  1.0000 -0.6091617143
O   O33       1.0  0.12082  0.59292  0.23974  1.0000 -0.5954227244
O   O34       1.0  0.35318  0.88108  0.76026  1.0000 -0.5943588411
O   O35       1.0  0.13108  0.87082  0.02790  1.0000 -0.5954227244
O   O36       1.0  0.84292  0.10318  0.97210  1.0000 -0.5943588411
O   O37       1.0  0.12918  0.15708  0.26026  1.0000 -0.5943588411
O   O38       1.0  0.89682  0.86892  0.73974  1.0000 -0.5943588411
O   O39       1.0  0.11892  0.87918  0.47210  1.0000 -0.5954227244
O   O40       1.0  0.40708  0.64682  0.52790  1.0000 -0.5954227244
O   O41       1.0  0.14569  0.51262  0.20191  1.0000 -0.5629129058
O   O42       1.0  0.31071  0.94378  0.79809  1.0000 -0.5629129058
O   O43       1.0  0.19378  0.89569  0.13307  1.0000 -0.5629129058
O   O44       1.0  0.76262  0.06071  0.86693  1.0000 -0.5629129058
O   O45       1.0  0.10431  0.23738  0.29809  1.0000 -0.5629129058
O   O46       1.0  0.93929  0.80622  0.70191  1.0000 -0.5629129058
O   O47       1.0  0.05622  0.85431  0.36693  1.0000 -0.5629129058
O   O48       1.0  0.48738  0.68929  0.63307  1.0000 -0.5629129058
O   O49       1.0  0.24224  0.43750  0.41574  1.0000 -0.61547591
O   O50       1.0  0.02176  0.82650  0.58426  1.0000 -0.61547591
O   O51       1.0  0.07650  0.99224  0.30474  1.0000 -0.61547591
O   O52       1.0  0.68750  0.77176  0.69526  1.0000 -0.61547591
O   O53       1.0  0.00776  0.31250  0.08426  1.0000 -0.61547591
O   O54       1.0  0.22824  0.92350  0.91574  1.0000 -0.61547591
O   O55       1.0  0.17350  0.75776  0.19526  1.0000 -0.61547591
O   O56       1.0  0.56250  0.97824  0.80474  1.0000 -0.61547591
O   O57       1.0  0.07060  0.28583  0.41543  1.0000 -0.536045382
O   O58       1.0  0.87040  0.65517  0.58457  1.0000 -0.536045382
O   O59       1.0  0.90517  0.82060  0.28477  1.0000 -0.536045382
O   O60       1.0  0.53583  0.62040  0.71523  1.0000 -0.536045382
O   O61       1.0  0.17940  0.46417  0.08457  1.0000 -0.536045382
O   O62       1.0  0.37960  0.09483  0.91543  1.0000 -0.536045382
O   O63       1.0  0.34483  0.92940  0.21523  1.0000 -0.536045382
O   O64       1.0  0.71417  0.12960  0.78477  1.0000 -0.536045382
