# DDEC6 charges by PACMAN v1.1 (https://github.com/mtap-research/PACMAN-charge/)
data_2013[Hf][reo]3[ASR]1
_chemical_formula_sum              "Hf36 H48 C144 S24 O144"
_cell_length_a       27.5842
_cell_length_b       27.5842
_cell_length_c       27.5842
_cell_angle_alpha    60
_cell_angle_beta     60
_cell_angle_gamma    60

_symmetry_space_group_name_H-M    "P 1"
_symmetry_Int_Tables_number       1

loop_
  _symmetry_equiv_pos_as_xyz
  'x, y, z'

loop_
  _atom_site_type_symbol
  _atom_site_label
  _atom_site_symmetry_multiplicity
  _atom_site_fract_x
  _atom_site_fract_y
  _atom_site_fract_z
  _atom_site_occupancy
  _atom_site_charge
Hf  Hf1       1.0  0.39140  0.04512  0.04512  1.0000 1.507245675
Hf  Hf2       1.0  0.04512  0.39140  0.51836  1.0000 1.507245675
Hf  Hf3       1.0  0.04512  0.51836  0.39140  1.0000 1.507245675
Hf  Hf4       1.0  0.51836  0.04512  0.04512  1.0000 1.507245675
Hf  Hf5       1.0  0.04512  0.39140  0.04512  1.0000 1.507245675
Hf  Hf6       1.0  0.51836  0.04512  0.39140  1.0000 1.507245675
Hf  Hf7       1.0  0.39140  0.04512  0.51836  1.0000 1.507245675
Hf  Hf8       1.0  0.04512  0.51836  0.04512  1.0000 1.507245675
Hf  Hf9       1.0  0.04512  0.04512  0.39140  1.0000 1.507245675
Hf  Hf10      1.0  0.39140  0.51836  0.04512  1.0000 1.499560427
Hf  Hf11      1.0  0.51836  0.39140  0.04512  1.0000 1.499560427
Hf  Hf12      1.0  0.04512  0.04512  0.51836  1.0000 1.507245675
Hf  Hf13      1.0  0.60860  0.95488  0.48164  1.0000 1.499560427
Hf  Hf14      1.0  0.95488  0.60860  0.95488  1.0000 1.507245675
Hf  Hf15      1.0  0.95488  0.48164  0.95488  1.0000 1.507245675
Hf  Hf16      1.0  0.48164  0.95488  0.60860  1.0000 1.507245675
Hf  Hf17      1.0  0.95488  0.60860  0.48164  1.0000 1.499560427
Hf  Hf18      1.0  0.48164  0.95488  0.95488  1.0000 1.507245675
Hf  Hf19      1.0  0.60860  0.95488  0.95488  1.0000 1.507245675
Hf  Hf20      1.0  0.95488  0.48164  0.60860  1.0000 1.499560427
Hf  Hf21      1.0  0.95488  0.95488  0.48164  1.0000 1.499560427
Hf  Hf22      1.0  0.60860  0.48164  0.95488  1.0000 1.507245675
Hf  Hf23      1.0  0.48164  0.60860  0.95488  1.0000 1.507245675
Hf  Hf24      1.0  0.95488  0.95488  0.60860  1.0000 1.499560427
Hf  Hf25      1.0  0.50000  0.08910  0.91090  1.0000 1.499560427
Hf  Hf26      1.0  0.08910  0.50000  0.50000  1.0000 1.499560427
Hf  Hf27      1.0  0.91090  0.50000  0.50000  1.0000 1.4932792338
Hf  Hf28      1.0  0.50000  0.91090  0.08910  1.0000 1.4932792338
Hf  Hf29      1.0  0.91090  0.50000  0.08910  1.0000 1.4932792338
Hf  Hf30      1.0  0.50000  0.08910  0.50000  1.0000 1.499560427
Hf  Hf31      1.0  0.50000  0.91090  0.50000  1.0000 1.4932792338
Hf  Hf32      1.0  0.08910  0.50000  0.91090  1.0000 1.499560427
Hf  Hf33      1.0  0.08910  0.91090  0.50000  1.0000 1.499560427
Hf  Hf34      1.0  0.50000  0.50000  0.08910  1.0000 1.499560427
Hf  Hf35      1.0  0.50000  0.50000  0.91090  1.0000 1.499560427
Hf  Hf36      1.0  0.91090  0.08910  0.50000  1.0000 1.499560427
H   H1        1.0  0.49000  0.15720  0.72060  1.0000 0.1383199992
H   H2        1.0  0.15720  0.49000  0.63220  1.0000 0.1383199992
H   H3        1.0  0.72060  0.63220  0.49000  1.0000 0.1383199992
H   H4        1.0  0.63220  0.72060  0.15720  1.0000 0.1383199992
H   H5        1.0  0.72060  0.49000  0.15720  1.0000 0.1383199992
H   H6        1.0  0.63220  0.15720  0.49000  1.0000 0.1383199992
H   H7        1.0  0.49000  0.72060  0.63220  1.0000 0.1383199992
H   H8        1.0  0.15720  0.63220  0.72060  1.0000 0.1383199992
H   H9        1.0  0.15720  0.72060  0.49000  1.0000 0.1383199992
H   H10       1.0  0.49000  0.63220  0.15720  1.0000 0.1383199992
H   H11       1.0  0.63220  0.49000  0.72060  1.0000 0.1383199992
H   H12       1.0  0.72060  0.15720  0.63220  1.0000 0.1383199992
H   H13       1.0  0.51000  0.84280  0.36780  1.0000 0.1383199992
H   H14       1.0  0.84280  0.51000  0.27940  1.0000 0.1383199992
H   H15       1.0  0.27940  0.36780  0.84280  1.0000 0.1383199992
H   H16       1.0  0.36780  0.27940  0.51000  1.0000 0.1383199992
H   H17       1.0  0.27940  0.51000  0.36780  1.0000 0.1383199992
H   H18       1.0  0.36780  0.84280  0.27940  1.0000 0.1383199992
H   H19       1.0  0.51000  0.27940  0.84280  1.0000 0.1383199992
H   H20       1.0  0.84280  0.36780  0.51000  1.0000 0.1383199992
H   H21       1.0  0.84280  0.27940  0.36780  1.0000 0.1383199992
H   H22       1.0  0.51000  0.36780  0.27940  1.0000 0.1383199992
H   H23       1.0  0.36780  0.51000  0.84280  1.0000 0.1383199992
H   H24       1.0  0.27940  0.84280  0.51000  1.0000 0.1383199992
H   H25       1.0  0.51000  0.84280  0.27940  1.0000 0.1383199992
H   H26       1.0  0.84280  0.51000  0.36780  1.0000 0.1383199992
H   H27       1.0  0.27940  0.36780  0.51000  1.0000 0.1383199992
H   H28       1.0  0.36780  0.27940  0.84280  1.0000 0.1383199992
H   H29       1.0  0.27940  0.51000  0.84280  1.0000 0.1383199992
H   H30       1.0  0.36780  0.84280  0.51000  1.0000 0.1383199992
H   H31       1.0  0.51000  0.27940  0.36780  1.0000 0.1383199992
H   H32       1.0  0.84280  0.36780  0.27940  1.0000 0.1383199992
H   H33       1.0  0.84280  0.27940  0.51000  1.0000 0.1383199992
H   H34       1.0  0.51000  0.36780  0.84280  1.0000 0.1383199992
H   H35       1.0  0.36780  0.51000  0.27940  1.0000 0.1383199992
H   H36       1.0  0.27940  0.84280  0.36780  1.0000 0.1383199992
H   H37       1.0  0.49000  0.15720  0.63220  1.0000 0.1383199992
H   H38       1.0  0.15720  0.49000  0.72060  1.0000 0.1383199992
H   H39       1.0  0.72060  0.63220  0.15720  1.0000 0.1383199992
H   H40       1.0  0.63220  0.72060  0.49000  1.0000 0.1383199992
H   H41       1.0  0.72060  0.49000  0.63220  1.0000 0.1383199992
H   H42       1.0  0.63220  0.15720  0.72060  1.0000 0.1383199992
H   H43       1.0  0.49000  0.72060  0.15720  1.0000 0.1383199992
H   H44       1.0  0.15720  0.63220  0.49000  1.0000 0.1383199992
H   H45       1.0  0.15720  0.72060  0.63220  1.0000 0.1383199992
H   H46       1.0  0.49000  0.63220  0.72060  1.0000 0.1383199992
H   H47       1.0  0.63220  0.49000  0.15720  1.0000 0.1383199992
H   H48       1.0  0.72060  0.15720  0.49000  1.0000 0.1383199992
C   C1        1.0  0.48035  0.05893  0.82653  1.0000 0.6059661138
C   C2        1.0  0.05893  0.48035  0.63419  1.0000 0.6059661138
C   C3        1.0  0.82653  0.63419  0.48035  1.0000 0.6059661138
C   C4        1.0  0.63419  0.82653  0.05893  1.0000 0.6059661138
C   C5        1.0  0.82653  0.48035  0.05893  1.0000 0.6059661138
C   C6        1.0  0.63419  0.05893  0.48035  1.0000 0.6059661138
C   C7        1.0  0.48035  0.82653  0.63419  1.0000 0.6059661138
C   C8        1.0  0.05893  0.63419  0.82653  1.0000 0.6059661138
C   C9        1.0  0.05893  0.82653  0.48035  1.0000 0.6059661138
C   C10       1.0  0.48035  0.63419  0.05893  1.0000 0.6059661138
C   C11       1.0  0.63419  0.48035  0.82653  1.0000 0.6059661138
C   C12       1.0  0.82653  0.05893  0.63419  1.0000 0.6059661138
C   C13       1.0  0.51965  0.94107  0.36581  1.0000 0.6059661138
C   C14       1.0  0.94107  0.51965  0.17347  1.0000 0.6059661138
C   C15       1.0  0.17347  0.36581  0.94107  1.0000 0.6059661138
C   C16       1.0  0.36581  0.17347  0.51965  1.0000 0.6059661138
C   C17       1.0  0.17347  0.51965  0.36581  1.0000 0.6059661138
C   C18       1.0  0.36581  0.94107  0.17347  1.0000 0.6059661138
C   C19       1.0  0.51965  0.17347  0.94107  1.0000 0.6059661138
C   C20       1.0  0.94107  0.36581  0.51965  1.0000 0.6059661138
C   C21       1.0  0.94107  0.17347  0.36581  1.0000 0.6059661138
C   C22       1.0  0.51965  0.36581  0.17347  1.0000 0.6059661138
C   C23       1.0  0.36581  0.51965  0.94107  1.0000 0.6059661138
C   C24       1.0  0.17347  0.94107  0.51965  1.0000 0.6059661138
C   C25       1.0  0.51965  0.94107  0.17347  1.0000 0.6059661138
C   C26       1.0  0.94107  0.51965  0.36581  1.0000 0.6059661138
C   C27       1.0  0.17347  0.36581  0.51965  1.0000 0.6059661138
C   C28       1.0  0.36581  0.17347  0.94107  1.0000 0.6059661138
C   C29       1.0  0.17347  0.51965  0.94107  1.0000 0.6059661138
C   C30       1.0  0.36581  0.94107  0.51965  1.0000 0.6059661138
C   C31       1.0  0.51965  0.17347  0.36581  1.0000 0.6059661138
C   C32       1.0  0.94107  0.36581  0.17347  1.0000 0.6059661138
C   C33       1.0  0.94107  0.17347  0.51965  1.0000 0.6059661138
C   C34       1.0  0.51965  0.36581  0.94107  1.0000 0.6059661138
C   C35       1.0  0.36581  0.51965  0.17347  1.0000 0.6059661138
C   C36       1.0  0.17347  0.94107  0.36581  1.0000 0.6059661138
C   C37       1.0  0.48035  0.05893  0.63419  1.0000 0.6059661138
C   C38       1.0  0.05893  0.48035  0.82653  1.0000 0.6059661138
C   C39       1.0  0.82653  0.63419  0.05893  1.0000 0.6059661138
C   C40       1.0  0.63419  0.82653  0.48035  1.0000 0.6059661138
C   C41       1.0  0.82653  0.48035  0.63419  1.0000 0.6059661138
C   C42       1.0  0.63419  0.05893  0.82653  1.0000 0.6059661138
C   C43       1.0  0.48035  0.82653  0.05893  1.0000 0.6059661138
C   C44       1.0  0.05893  0.63419  0.48035  1.0000 0.6059661138
C   C45       1.0  0.05893  0.82653  0.63419  1.0000 0.6059661138
C   C46       1.0  0.48035  0.63419  0.82653  1.0000 0.6059661138
C   C47       1.0  0.63419  0.48035  0.05893  1.0000 0.6059661138
C   C48       1.0  0.82653  0.05893  0.48035  1.0000 0.6059661138
C   C49       1.0  0.48020  0.07620  0.76600  1.0000 -0.1322150495
C   C50       1.0  0.07620  0.48020  0.67760  1.0000 -0.1322150495
C   C51       1.0  0.76600  0.67760  0.48020  1.0000 -0.1322150495
C   C52       1.0  0.67760  0.76600  0.07620  1.0000 -0.1322150495
C   C53       1.0  0.76600  0.48020  0.07620  1.0000 -0.1322150495
C   C54       1.0  0.67760  0.07620  0.48020  1.0000 -0.1322150495
C   C55       1.0  0.48020  0.76600  0.67760  1.0000 -0.1322150495
C   C56       1.0  0.07620  0.67760  0.76600  1.0000 -0.1322150495
C   C57       1.0  0.07620  0.76600  0.48020  1.0000 -0.1322150495
C   C58       1.0  0.48020  0.67760  0.07620  1.0000 -0.1322150495
C   C59       1.0  0.67760  0.48020  0.76600  1.0000 -0.1322150495
C   C60       1.0  0.76600  0.07620  0.67760  1.0000 -0.1322150495
C   C61       1.0  0.51980  0.92380  0.32240  1.0000 -0.1322150495
C   C62       1.0  0.92380  0.51980  0.23400  1.0000 -0.1322150495
C   C63       1.0  0.23400  0.32240  0.92380  1.0000 -0.1322150495
C   C64       1.0  0.32240  0.23400  0.51980  1.0000 -0.1322150495
C   C65       1.0  0.23400  0.51980  0.32240  1.0000 -0.1322150495
C   C66       1.0  0.32240  0.92380  0.23400  1.0000 -0.1322150495
C   C67       1.0  0.51980  0.23400  0.92380  1.0000 -0.1322150495
C   C68       1.0  0.92380  0.32240  0.51980  1.0000 -0.1322150495
C   C69       1.0  0.92380  0.23400  0.32240  1.0000 -0.1322150495
C   C70       1.0  0.51980  0.32240  0.23400  1.0000 -0.1322150495
C   C71       1.0  0.32240  0.51980  0.92380  1.0000 -0.1322150495
C   C72       1.0  0.23400  0.92380  0.51980  1.0000 -0.1322150495
C   C73       1.0  0.51980  0.92380  0.23400  1.0000 -0.1322150495
C   C74       1.0  0.92380  0.51980  0.32240  1.0000 -0.1322150495
C   C75       1.0  0.23400  0.32240  0.51980  1.0000 -0.1322150495
C   C76       1.0  0.32240  0.23400  0.92380  1.0000 -0.1322150495
C   C77       1.0  0.23400  0.51980  0.92380  1.0000 -0.1322150495
C   C78       1.0  0.32240  0.92380  0.51980  1.0000 -0.1322150495
C   C79       1.0  0.51980  0.23400  0.32240  1.0000 -0.1322150495
C   C80       1.0  0.92380  0.32240  0.23400  1.0000 -0.1322150495
C   C81       1.0  0.92380  0.23400  0.51980  1.0000 -0.1322150495
C   C82       1.0  0.51980  0.32240  0.92380  1.0000 -0.1322150495
C   C83       1.0  0.32240  0.51980  0.23400  1.0000 -0.1322150495
C   C84       1.0  0.23400  0.92380  0.32240  1.0000 -0.1322150495
C   C85       1.0  0.48020  0.07620  0.67760  1.0000 -0.1322150495
C   C86       1.0  0.07620  0.48020  0.76600  1.0000 -0.1322150495
C   C87       1.0  0.76600  0.67760  0.07620  1.0000 -0.1322150495
C   C88       1.0  0.67760  0.76600  0.48020  1.0000 -0.1322150495
C   C89       1.0  0.76600  0.48020  0.67760  1.0000 -0.1322150495
C   C90       1.0  0.67760  0.07620  0.76600  1.0000 -0.1322150495
C   C91       1.0  0.48020  0.76600  0.07620  1.0000 -0.1322150495
C   C92       1.0  0.07620  0.67760  0.48020  1.0000 -0.1322150495
C   C93       1.0  0.07620  0.76600  0.67760  1.0000 -0.1322150495
C   C94       1.0  0.48020  0.67760  0.76600  1.0000 -0.1322150495
C   C95       1.0  0.67760  0.48020  0.07620  1.0000 -0.1322150495
C   C96       1.0  0.76600  0.07620  0.48020  1.0000 -0.1322150495
C   C97       1.0  0.48620  0.12620  0.71920  1.0000 -0.0943115826
C   C98       1.0  0.12620  0.48620  0.66840  1.0000 -0.0943115826
C   C99       1.0  0.71920  0.66840  0.48620  1.0000 -0.0943115826
C   C100      1.0  0.66840  0.71920  0.12620  1.0000 -0.0943115826
C   C101      1.0  0.71920  0.48620  0.12620  1.0000 -0.0943115826
C   C102      1.0  0.66840  0.12620  0.48620  1.0000 -0.0943115826
C   C103      1.0  0.48620  0.71920  0.66840  1.0000 -0.0943115826
C   C104      1.0  0.12620  0.66840  0.71920  1.0000 -0.0943115826
C   C105      1.0  0.12620  0.71920  0.48620  1.0000 -0.0943115826
C   C106      1.0  0.48620  0.66840  0.12620  1.0000 -0.0943115826
C   C107      1.0  0.66840  0.48620  0.71920  1.0000 -0.0943115826
C   C108      1.0  0.71920  0.12620  0.66840  1.0000 -0.0943115826
C   C109      1.0  0.51380  0.87380  0.33160  1.0000 -0.0943115826
C   C110      1.0  0.87380  0.51380  0.28080  1.0000 -0.0943115826
C   C111      1.0  0.28080  0.33160  0.87380  1.0000 -0.0943115826
C   C112      1.0  0.33160  0.28080  0.51380  1.0000 -0.0943115826
C   C113      1.0  0.28080  0.51380  0.33160  1.0000 -0.0943115826
C   C114      1.0  0.33160  0.87380  0.28080  1.0000 -0.0943115826
C   C115      1.0  0.51380  0.28080  0.87380  1.0000 -0.0943115826
C   C116      1.0  0.87380  0.33160  0.51380  1.0000 -0.0943115826
C   C117      1.0  0.87380  0.28080  0.33160  1.0000 -0.0943115826
C   C118      1.0  0.51380  0.33160  0.28080  1.0000 -0.0943115826
C   C119      1.0  0.33160  0.51380  0.87380  1.0000 -0.0943115826
C   C120      1.0  0.28080  0.87380  0.51380  1.0000 -0.0943115826
C   C121      1.0  0.51380  0.87380  0.28080  1.0000 -0.0943115826
C   C122      1.0  0.87380  0.51380  0.33160  1.0000 -0.0943115826
C   C123      1.0  0.28080  0.33160  0.51380  1.0000 -0.0943115826
C   C124      1.0  0.33160  0.28080  0.87380  1.0000 -0.0943115826
C   C125      1.0  0.28080  0.51380  0.87380  1.0000 -0.0943115826
C   C126      1.0  0.33160  0.87380  0.51380  1.0000 -0.0943115826
C   C127      1.0  0.51380  0.28080  0.33160  1.0000 -0.0943115826
C   C128      1.0  0.87380  0.33160  0.28080  1.0000 -0.0943115826
C   C129      1.0  0.87380  0.28080  0.51380  1.0000 -0.0943115826
C   C130      1.0  0.51380  0.33160  0.87380  1.0000 -0.0943115826
C   C131      1.0  0.33160  0.51380  0.28080  1.0000 -0.0943115826
C   C132      1.0  0.28080  0.87380  0.33160  1.0000 -0.0943115826
C   C133      1.0  0.48620  0.12620  0.66840  1.0000 -0.0943115826
C   C134      1.0  0.12620  0.48620  0.71920  1.0000 -0.0943115826
C   C135      1.0  0.71920  0.66840  0.12620  1.0000 -0.0943115826
C   C136      1.0  0.66840  0.71920  0.48620  1.0000 -0.0943115826
C   C137      1.0  0.71920  0.48620  0.66840  1.0000 -0.0943115826
C   C138      1.0  0.66840  0.12620  0.71920  1.0000 -0.0943115826
C   C139      1.0  0.48620  0.71920  0.12620  1.0000 -0.0943115826
C   C140      1.0  0.12620  0.66840  0.48620  1.0000 -0.0943115826
C   C141      1.0  0.12620  0.71920  0.66840  1.0000 -0.0943115826
C   C142      1.0  0.48620  0.66840  0.71920  1.0000 -0.0943115826
C   C143      1.0  0.66840  0.48620  0.12620  1.0000 -0.0943115826
C   C144      1.0  0.71920  0.12620  0.48620  1.0000 -0.0943115826
S   S1        1.0  0.47386  0.02838  0.74888  1.0000 0.1998714311
S   S2        1.0  0.02838  0.47386  0.74888  1.0000 0.1998714311
S   S3        1.0  0.74888  0.74888  0.47386  1.0000 0.1998714311
S   S4        1.0  0.74888  0.74888  0.02838  1.0000 0.1998714311
S   S5        1.0  0.74888  0.47386  0.02838  1.0000 0.1998714311
S   S6        1.0  0.74888  0.02838  0.47386  1.0000 0.1998714311
S   S7        1.0  0.47386  0.74888  0.74888  1.0000 0.1998714311
S   S8        1.0  0.02838  0.74888  0.74888  1.0000 0.1998714311
S   S9        1.0  0.02838  0.74888  0.47386  1.0000 0.1998714311
S   S10       1.0  0.47386  0.74888  0.02838  1.0000 0.1998714311
S   S11       1.0  0.74888  0.47386  0.74888  1.0000 0.1998714311
S   S12       1.0  0.74888  0.02838  0.74888  1.0000 0.1998714311
S   S13       1.0  0.52614  0.97162  0.25112  1.0000 0.1998714311
S   S14       1.0  0.97162  0.52614  0.25112  1.0000 0.1998714311
S   S15       1.0  0.25112  0.25112  0.97162  1.0000 0.1998714311
S   S16       1.0  0.25112  0.25112  0.52614  1.0000 0.1998714311
S   S17       1.0  0.25112  0.52614  0.25112  1.0000 0.1998714311
S   S18       1.0  0.25112  0.97162  0.25112  1.0000 0.1998714311
S   S19       1.0  0.52614  0.25112  0.97162  1.0000 0.1998714311
S   S20       1.0  0.97162  0.25112  0.52614  1.0000 0.1998714311
S   S21       1.0  0.97162  0.25112  0.25112  1.0000 0.1998714311
S   S22       1.0  0.52614  0.25112  0.25112  1.0000 0.1998714311
S   S23       1.0  0.25112  0.52614  0.97162  1.0000 0.1998714311
S   S24       1.0  0.25112  0.97162  0.52614  1.0000 0.1998714311
O   O1        1.0  0.43593  0.04313  0.95687  1.0000 -0.7268722983
O   O2        1.0  0.04313  0.43593  0.56407  1.0000 -0.7268722983
O   O3        1.0  0.95687  0.56407  0.43593  1.0000 -0.7268722983
O   O4        1.0  0.56407  0.95687  0.04313  1.0000 -0.7268722983
O   O5        1.0  0.95687  0.43593  0.04313  1.0000 -0.7268722983
O   O6        1.0  0.56407  0.04313  0.43593  1.0000 -0.7268722983
O   O7        1.0  0.43593  0.95687  0.56407  1.0000 -0.7268722983
O   O8        1.0  0.04313  0.56407  0.95687  1.0000 -0.7268722983
O   O9        1.0  0.04313  0.95687  0.43593  1.0000 -0.7268722983
O   O10       1.0  0.43593  0.56407  0.04313  1.0000 -0.7268722983
O   O11       1.0  0.56407  0.43593  0.95687  1.0000 -0.7268722983
O   O12       1.0  0.95687  0.04313  0.56407  1.0000 -0.7268722983
O   O13       1.0  0.56407  0.95687  0.43593  1.0000 -0.7268722983
O   O14       1.0  0.95687  0.56407  0.04313  1.0000 -0.7268722983
O   O15       1.0  0.04313  0.43593  0.95687  1.0000 -0.7268722983
O   O16       1.0  0.43593  0.04313  0.56407  1.0000 -0.7268722983
O   O17       1.0  0.04313  0.56407  0.43593  1.0000 -0.7268722983
O   O18       1.0  0.43593  0.95687  0.04313  1.0000 -0.7268722983
O   O19       1.0  0.56407  0.04313  0.95687  1.0000 -0.7268722983
O   O20       1.0  0.95687  0.43593  0.56407  1.0000 -0.7268722983
O   O21       1.0  0.95687  0.04313  0.43593  1.0000 -0.7268722983
O   O22       1.0  0.56407  0.43593  0.04313  1.0000 -0.7268722983
O   O23       1.0  0.43593  0.56407  0.95687  1.0000 -0.7268722983
O   O24       1.0  0.04313  0.95687  0.56407  1.0000 -0.7268722983
O   O25       1.0  0.45580  0.08776  0.00064  1.0000 -0.7268722983
O   O26       1.0  0.08776  0.45580  0.45580  1.0000 -0.7268722983
O   O27       1.0  0.00064  0.45580  0.45580  1.0000 -0.7268722983
O   O28       1.0  0.45580  0.00064  0.08776  1.0000 -0.7268722983
O   O29       1.0  0.00064  0.45580  0.08776  1.0000 -0.7268722983
O   O30       1.0  0.45580  0.08776  0.45580  1.0000 -0.7268722983
O   O31       1.0  0.45580  0.00064  0.45580  1.0000 -0.7268722983
O   O32       1.0  0.08776  0.45580  0.00064  1.0000 -0.7268722983
O   O33       1.0  0.08776  0.00064  0.45580  1.0000 -0.7268722983
O   O34       1.0  0.45580  0.45580  0.08776  1.0000 -0.7268722983
O   O35       1.0  0.45580  0.45580  0.00064  1.0000 -0.7268722983
O   O36       1.0  0.00064  0.08776  0.45580  1.0000 -0.7268722983
O   O37       1.0  0.54420  0.91224  0.54420  1.0000 -0.7268722983
O   O38       1.0  0.91224  0.54420  0.99936  1.0000 -0.7268722983
O   O39       1.0  0.99936  0.54420  0.91224  1.0000 -0.7268722983
O   O40       1.0  0.54420  0.99936  0.54420  1.0000 -0.7268722983
O   O41       1.0  0.99936  0.54420  0.54420  1.0000 -0.7268722983
O   O42       1.0  0.54420  0.91224  0.99936  1.0000 -0.7268722983
O   O43       1.0  0.54420  0.99936  0.91224  1.0000 -0.7268722983
O   O44       1.0  0.91224  0.54420  0.54420  1.0000 -0.7268722983
O   O45       1.0  0.91224  0.99936  0.54420  1.0000 -0.7241803256
O   O46       1.0  0.54420  0.54420  0.99936  1.0000 -0.7268722983
O   O47       1.0  0.54420  0.54420  0.91224  1.0000 -0.7268722983
O   O48       1.0  0.99936  0.91224  0.54420  1.0000 -0.7268722983
O   O49       1.0  0.47581  0.00891  0.86267  1.0000 -0.5228216472
O   O50       1.0  0.00891  0.47581  0.65261  1.0000 -0.5228216472
O   O51       1.0  0.86267  0.65261  0.47581  1.0000 -0.5228216472
O   O52       1.0  0.65261  0.86267  0.00891  1.0000 -0.5228216472
O   O53       1.0  0.86267  0.47581  0.00891  1.0000 -0.5228216472
O   O54       1.0  0.65261  0.00891  0.47581  1.0000 -0.5228216472
O   O55       1.0  0.47581  0.86267  0.65261  1.0000 -0.5228216472
O   O56       1.0  0.00891  0.65261  0.86267  1.0000 -0.5228216472
O   O57       1.0  0.00891  0.86267  0.47581  1.0000 -0.5228216472
O   O58       1.0  0.47581  0.65261  0.00891  1.0000 -0.5228216472
O   O59       1.0  0.65261  0.47581  0.86267  1.0000 -0.5228216472
O   O60       1.0  0.86267  0.00891  0.65261  1.0000 -0.5228216472
O   O61       1.0  0.52419  0.99109  0.34739  1.0000 -0.5228216472
O   O62       1.0  0.99109  0.52419  0.13733  1.0000 -0.5228216472
O   O63       1.0  0.13733  0.34739  0.99109  1.0000 -0.5228216472
O   O64       1.0  0.34739  0.13733  0.52419  1.0000 -0.5228216472
O   O65       1.0  0.13733  0.52419  0.34739  1.0000 -0.5228216472
O   O66       1.0  0.34739  0.99109  0.13733  1.0000 -0.5228216472
O   O67       1.0  0.52419  0.13733  0.99109  1.0000 -0.5228216472
O   O68       1.0  0.99109  0.34739  0.52419  1.0000 -0.5228216472
O   O69       1.0  0.99109  0.13733  0.34739  1.0000 -0.5228216472
O   O70       1.0  0.52419  0.34739  0.13733  1.0000 -0.5228216472
O   O71       1.0  0.34739  0.52419  0.99109  1.0000 -0.5228216472
O   O72       1.0  0.13733  0.99109  0.52419  1.0000 -0.5228216472
O   O73       1.0  0.52419  0.99109  0.13733  1.0000 -0.5228216472
O   O74       1.0  0.99109  0.52419  0.34739  1.0000 -0.5228216472
O   O75       1.0  0.13733  0.34739  0.52419  1.0000 -0.5228216472
O   O76       1.0  0.34739  0.13733  0.99109  1.0000 -0.5228216472
O   O77       1.0  0.13733  0.52419  0.99109  1.0000 -0.5228216472
O   O78       1.0  0.34739  0.99109  0.52419  1.0000 -0.5228216472
O   O79       1.0  0.52419  0.13733  0.34739  1.0000 -0.5228216472
O   O80       1.0  0.99109  0.34739  0.13733  1.0000 -0.5228216472
O   O81       1.0  0.99109  0.13733  0.52419  1.0000 -0.5228216472
O   O82       1.0  0.52419  0.34739  0.99109  1.0000 -0.5228216472
O   O83       1.0  0.34739  0.52419  0.13733  1.0000 -0.5228216472
O   O84       1.0  0.13733  0.99109  0.34739  1.0000 -0.5228216472
O   O85       1.0  0.47581  0.00891  0.65261  1.0000 -0.5228216472
O   O86       1.0  0.00891  0.47581  0.86267  1.0000 -0.5228216472
O   O87       1.0  0.86267  0.65261  0.00891  1.0000 -0.5228216472
O   O88       1.0  0.65261  0.86267  0.47581  1.0000 -0.5228216472
O   O89       1.0  0.86267  0.47581  0.65261  1.0000 -0.5228216472
O   O90       1.0  0.65261  0.00891  0.86267  1.0000 -0.5228216472
O   O91       1.0  0.47581  0.86267  0.00891  1.0000 -0.5228216472
O   O92       1.0  0.00891  0.65261  0.47581  1.0000 -0.5228216472
O   O93       1.0  0.00891  0.86267  0.65261  1.0000 -0.5228216472
O   O94       1.0  0.47581  0.65261  0.86267  1.0000 -0.5228216472
O   O95       1.0  0.65261  0.47581  0.00891  1.0000 -0.5228216472
O   O96       1.0  0.86267  0.00891  0.47581  1.0000 -0.5228216472
O   O97       1.0  0.48585  0.09649  0.83541  1.0000 -0.4949260798
O   O98       1.0  0.09649  0.48585  0.58225  1.0000 -0.4949260798
O   O99       1.0  0.83541  0.58225  0.48585  1.0000 -0.4949260798
O   O100      1.0  0.58225  0.83541  0.09649  1.0000 -0.4949260798
O   O101      1.0  0.83541  0.48585  0.09649  1.0000 -0.4949260798
O   O102      1.0  0.58225  0.09649  0.48585  1.0000 -0.4949260798
O   O103      1.0  0.48585  0.83541  0.58225  1.0000 -0.4949260798
O   O104      1.0  0.09649  0.58225  0.83541  1.0000 -0.4949260798
O   O105      1.0  0.09649  0.83541  0.48585  1.0000 -0.4949260798
O   O106      1.0  0.48585  0.58225  0.09649  1.0000 -0.4949260798
O   O107      1.0  0.58225  0.48585  0.83541  1.0000 -0.4949260798
O   O108      1.0  0.83541  0.09649  0.58225  1.0000 -0.4949260798
O   O109      1.0  0.51415  0.90351  0.41775  1.0000 -0.4949260798
O   O110      1.0  0.90351  0.51415  0.16459  1.0000 -0.4949260798
O   O111      1.0  0.16459  0.41775  0.90351  1.0000 -0.4949260798
O   O112      1.0  0.41775  0.16459  0.51415  1.0000 -0.4949260798
O   O113      1.0  0.16459  0.51415  0.41775  1.0000 -0.4949260798
O   O114      1.0  0.41775  0.90351  0.16459  1.0000 -0.4949260798
O   O115      1.0  0.51415  0.16459  0.90351  1.0000 -0.4949260798
O   O116      1.0  0.90351  0.41775  0.51415  1.0000 -0.4949260798
O   O117      1.0  0.90351  0.16459  0.41775  1.0000 -0.4949260798
O   O118      1.0  0.51415  0.41775  0.16459  1.0000 -0.4949260798
O   O119      1.0  0.41775  0.51415  0.90351  1.0000 -0.4949260798
O   O120      1.0  0.16459  0.90351  0.51415  1.0000 -0.4949260798
O   O121      1.0  0.51415  0.90351  0.16459  1.0000 -0.4949260798
O   O122      1.0  0.90351  0.51415  0.41775  1.0000 -0.4949260798
O   O123      1.0  0.16459  0.41775  0.51415  1.0000 -0.4949260798
O   O124      1.0  0.41775  0.16459  0.90351  1.0000 -0.4949260798
O   O125      1.0  0.16459  0.51415  0.90351  1.0000 -0.4949260798
O   O126      1.0  0.41775  0.90351  0.51415  1.0000 -0.4949260798
O   O127      1.0  0.51415  0.16459  0.41775  1.0000 -0.4949260798
O   O128      1.0  0.90351  0.41775  0.16459  1.0000 -0.4949260798
O   O129      1.0  0.90351  0.16459  0.51415  1.0000 -0.4949260798
O   O130      1.0  0.51415  0.41775  0.90351  1.0000 -0.4949260798
O   O131      1.0  0.41775  0.51415  0.16459  1.0000 -0.4949260798
O   O132      1.0  0.16459  0.90351  0.41775  1.0000 -0.4949260798
O   O133      1.0  0.48585  0.09649  0.58225  1.0000 -0.4949260798
O   O134      1.0  0.09649  0.48585  0.83541  1.0000 -0.4949260798
O   O135      1.0  0.83541  0.58225  0.09649  1.0000 -0.4949260798
O   O136      1.0  0.58225  0.83541  0.48585  1.0000 -0.4949260798
O   O137      1.0  0.83541  0.48585  0.58225  1.0000 -0.4949260798
O   O138      1.0  0.58225  0.09649  0.83541  1.0000 -0.4949260798
O   O139      1.0  0.48585  0.83541  0.09649  1.0000 -0.4949260798
O   O140      1.0  0.09649  0.58225  0.48585  1.0000 -0.4949260798
O   O141      1.0  0.09649  0.83541  0.58225  1.0000 -0.4949260798
O   O142      1.0  0.48585  0.58225  0.83541  1.0000 -0.4949260798
O   O143      1.0  0.58225  0.48585  0.09649  1.0000 -0.4949260798
O   O144      1.0  0.83541  0.09649  0.48585  1.0000 -0.4949260798
