# DDEC6 charges by PACMAN v1.1 (https://github.com/mtap-research/PACMAN-charge/)
data_2013[Eu][nan]3[ASR]1
_chemical_formula_sum              "Eu4 H64 C88 I16 O40"
_cell_length_a       12.6453
_cell_length_b       9.6931
_cell_length_c       29.004
_cell_angle_alpha    90
_cell_angle_beta     114.449
_cell_angle_gamma    90

_symmetry_space_group_name_H-M    "P 1"
_symmetry_Int_Tables_number       1

loop_
  _symmetry_equiv_pos_as_xyz
  'x, y, z'

loop_
  _atom_site_type_symbol
  _atom_site_label
  _atom_site_symmetry_multiplicity
  _atom_site_fract_x
  _atom_site_fract_y
  _atom_site_fract_z
  _atom_site_occupancy
  _atom_site_charge
Eu  Eu1       1.0  0.89501  0.80292  0.75328  1.0000 2.1719940646
Eu  Eu2       1.0  0.10499  0.30292  0.74672  1.0000 2.1719940646
Eu  Eu3       1.0  0.10499  0.19708  0.24672  1.0000 2.1756405178
Eu  Eu4       1.0  0.89501  0.69708  0.25328  1.0000 2.1719940646
H   H1        1.0  0.08040  0.82760  0.50610  1.0000 0.1198766222
H   H2        1.0  0.91960  0.32760  0.99390  1.0000 0.1198766222
H   H3        1.0  0.91960  0.17240  0.49390  1.0000 0.1198766222
H   H4        1.0  0.08040  0.67240  0.00610  1.0000 0.1198766222
H   H5        1.0  0.79950  0.58450  0.43700  1.0000 0.1198766222
H   H6        1.0  0.20050  0.08450  0.06300  1.0000 0.1198766222
H   H7        1.0  0.20050  0.41550  0.56300  1.0000 0.1198766222
H   H8        1.0  0.79950  0.91550  0.93700  1.0000 0.1198766222
H   H9        1.0  0.94320  0.72970  0.63520  1.0000 0.1198766222
H   H10       1.0  0.05680  0.22970  0.86480  1.0000 0.1198766222
H   H11       1.0  0.05680  0.27030  0.36480  1.0000 0.1198766222
H   H12       1.0  0.94320  0.77030  0.13520  1.0000 0.1198766222
H   H13       1.0  0.82950  0.64280  0.60120  1.0000 0.11023114
H   H14       1.0  0.17050  0.14280  0.89880  1.0000 0.11023114
H   H15       1.0  0.17050  0.35720  0.39880  1.0000 0.11023114
H   H16       1.0  0.82950  0.85720  0.10120  1.0000 0.11023114
H   H17       1.0  0.98400  0.84120  0.41820  1.0000 0.0998732773
H   H18       1.0  0.01600  0.34120  0.08180  1.0000 0.0998732773
H   H19       1.0  0.01600  0.15880  0.58180  1.0000 0.0998732773
H   H20       1.0  0.98400  0.65880  0.91820  1.0000 0.0998732773
H   H21       1.0  0.93950  0.69270  0.39380  1.0000 0.11023114
H   H22       1.0  0.06050  0.19270  0.10620  1.0000 0.11023114
H   H23       1.0  0.06050  0.30730  0.60620  1.0000 0.11023114
H   H24       1.0  0.93950  0.80730  0.89380  1.0000 0.11023114
H   H25       1.0  0.79380  0.91230  0.39890  1.0000 0.0998732773
H   H26       1.0  0.20620  0.41230  0.10110  1.0000 0.0998732773
H   H27       1.0  0.20620  0.08770  0.60110  1.0000 0.0998732773
H   H28       1.0  0.79380  0.58770  0.89890  1.0000 0.0998732773
H   H29       1.0  0.74530  0.76110  0.37980  1.0000 0.11023114
H   H30       1.0  0.25470  0.26110  0.12020  1.0000 0.11023114
H   H31       1.0  0.25470  0.23890  0.62020  1.0000 0.11023114
H   H32       1.0  0.74530  0.73890  0.87980  1.0000 0.11023114
H   H33       1.0  0.59850  0.07120  0.43600  1.0000 0.1265495047
H   H34       1.0  0.40150  0.57120  0.06400  1.0000 0.1265495047
H   H35       1.0  0.40150  0.92880  0.56400  1.0000 0.1265495047
H   H36       1.0  0.59850  0.42880  0.93600  1.0000 0.1265495047
H   H37       1.0  0.41070  0.32770  0.48300  1.0000 0.11023114
H   H38       1.0  0.58930  0.82770  0.01700  1.0000 0.11023114
H   H39       1.0  0.58930  0.67230  0.51700  1.0000 0.11023114
H   H40       1.0  0.41070  0.17230  0.98300  1.0000 0.11023114
H   H41       1.0  0.83960  0.17080  0.61200  1.0000 0.11023114
H   H42       1.0  0.16040  0.67080  0.88800  1.0000 0.11023114
H   H43       1.0  0.16040  0.82920  0.38800  1.0000 0.11023114
H   H44       1.0  0.83960  0.32920  0.11200  1.0000 0.11023114
H   H45       1.0  0.76720  0.25630  0.63660  1.0000 0.1265495047
H   H46       1.0  0.23280  0.75630  0.86340  1.0000 0.1265495047
H   H47       1.0  0.23280  0.74370  0.36340  1.0000 0.1265495047
H   H48       1.0  0.76720  0.24370  0.13660  1.0000 0.1265495047
H   H49       1.0  0.35690  0.31470  0.39800  1.0000 0.0998732773
H   H50       1.0  0.64310  0.81470  0.10200  1.0000 0.0998732773
H   H51       1.0  0.64310  0.68530  0.60200  1.0000 0.0998732773
H   H52       1.0  0.35690  0.18530  0.89800  1.0000 0.0998732773
H   H53       1.0  0.36350  0.16000  0.38040  1.0000 0.1198766222
H   H54       1.0  0.63650  0.66000  0.11960  1.0000 0.1198766222
H   H55       1.0  0.63650  0.84000  0.61960  1.0000 0.1198766222
H   H56       1.0  0.36350  0.34000  0.88040  1.0000 0.1198766222
H   H57       1.0  0.51140  0.37790  0.37960  1.0000 0.0998732773
H   H58       1.0  0.48860  0.87790  0.12040  1.0000 0.0998732773
H   H59       1.0  0.48860  0.62210  0.62040  1.0000 0.0998732773
H   H60       1.0  0.51140  0.12210  0.87960  1.0000 0.0998732773
H   H61       1.0  0.52660  0.22210  0.36530  1.0000 0.11023114
H   H62       1.0  0.47340  0.72210  0.13470  1.0000 0.11023114
H   H63       1.0  0.47340  0.77790  0.63470  1.0000 0.11023114
H   H64       1.0  0.52660  0.27790  0.86530  1.0000 0.11023114
C   C1        1.0  0.96337  0.61240  0.55837  1.0000 0.1430472738
C   C2        1.0  0.03663  0.11240  0.94163  1.0000 0.1430472738
C   C3        1.0  0.03663  0.38760  0.44163  1.0000 0.1430472738
C   C4        1.0  0.96337  0.88760  0.05837  1.0000 0.1430472738
C   C5        1.0  0.04104  0.70820  0.55434  1.0000 -0.0428818329
C   C6        1.0  0.95896  0.20820  0.94566  1.0000 -0.0428818329
C   C7        1.0  0.95896  0.29180  0.44566  1.0000 -0.0454824809
C   C8        1.0  0.04104  0.79180  0.05434  1.0000 -0.0428818329
C   C9        1.0  0.02727  0.76060  0.50777  1.0000 -0.2012650844
C   C10       1.0  0.97273  0.26060  0.99223  1.0000 -0.2012650844
C   C11       1.0  0.97273  0.23940  0.49223  1.0000 -0.2012650844
C   C12       1.0  0.02727  0.73940  0.00777  1.0000 -0.2012650844
C   C13       1.0  0.93703  0.71630  0.46363  1.0000 0.1430472738
C   C14       1.0  0.06297  0.21630  0.03637  1.0000 0.1430472738
C   C15       1.0  0.06297  0.28370  0.53637  1.0000 0.1430472738
C   C16       1.0  0.93703  0.78370  0.96363  1.0000 0.1430472738
C   C17       1.0  0.86063  0.61800  0.46703  1.0000 -0.1812220384
C   C18       1.0  0.13937  0.11800  0.03297  1.0000 -0.1812220384
C   C19       1.0  0.13937  0.38200  0.53297  1.0000 -0.1812220384
C   C20       1.0  0.86063  0.88200  0.96703  1.0000 -0.1812220384
C   C21       1.0  0.87276  0.56830  0.51386  1.0000 -0.0253190212
C   C22       1.0  0.12724  0.06830  0.98614  1.0000 -0.0253190212
C   C23       1.0  0.12724  0.43170  0.48614  1.0000 -0.0253190212
C   C24       1.0  0.87276  0.93170  0.01386  1.0000 -0.0253190212
C   C25       1.0  0.91131  0.63530  0.62631  1.0000 -0.2012650844
C   C26       1.0  0.08869  0.13530  0.87369  1.0000 -0.2012650844
C   C27       1.0  0.08869  0.36470  0.37369  1.0000 -0.2012650844
C   C28       1.0  0.91131  0.86470  0.12631  1.0000 -0.2012650844
C   C29       1.0  0.91600  0.56310  0.67300  1.0000 0.6970505062
C   C30       1.0  0.08400  0.06310  0.82700  1.0000 0.6970505062
C   C31       1.0  0.08400  0.43690  0.32700  1.0000 0.6970505062
C   C32       1.0  0.91600  0.93690  0.17300  1.0000 0.6970505062
C   C33       1.0  0.92450  0.76920  0.41290  1.0000 -0.2012650844
C   C34       1.0  0.07550  0.26920  0.08710  1.0000 -0.2012650844
C   C35       1.0  0.07550  0.23080  0.58710  1.0000 -0.2012650844
C   C36       1.0  0.92450  0.73080  0.91290  1.0000 -0.2012650844
C   C37       1.0  0.80490  0.82950  0.38140  1.0000 -0.3074435648
C   C38       1.0  0.19510  0.32950  0.11860  1.0000 -0.3074435648
C   C39       1.0  0.19510  0.17050  0.61860  1.0000 -0.3074435648
C   C40       1.0  0.80490  0.67050  0.88140  1.0000 -0.3074435648
C   C41       1.0  0.78450  0.86910  0.32830  1.0000 0.6534645799
C   C42       1.0  0.21550  0.36910  0.17170  1.0000 0.6534645799
C   C43       1.0  0.21550  0.13090  0.67170  1.0000 0.6534645799
C   C44       1.0  0.78450  0.63090  0.82830  1.0000 0.6534645799
C   C45       1.0  0.62781  0.12940  0.55201  1.0000 0.1430472738
C   C46       1.0  0.37219  0.62940  0.94799  1.0000 0.1430472738
C   C47       1.0  0.37219  0.87060  0.44799  1.0000 0.1430472738
C   C48       1.0  0.62781  0.37060  0.05201  1.0000 0.1430472738
C   C49       1.0  0.65043  0.07490  0.51253  1.0000 -0.0253190212
C   C50       1.0  0.34957  0.57490  0.98747  1.0000 -0.0253190212
C   C51       1.0  0.34957  0.92510  0.48747  1.0000 -0.0253190212
C   C52       1.0  0.65043  0.42510  0.01253  1.0000 -0.0253190212
C   C53       1.0  0.58247  0.11070  0.46237  1.0000 -0.1857536193
C   C54       1.0  0.41753  0.61070  0.03763  1.0000 -0.1857536193
C   C55       1.0  0.41753  0.88930  0.53763  1.0000 -0.1857536193
C   C56       1.0  0.58247  0.38930  0.96237  1.0000 -0.1857536193
C   C57       1.0  0.49070  0.20430  0.45050  1.0000 0.1473361347
C   C58       1.0  0.50930  0.70430  0.04950  1.0000 0.1473361347
C   C59       1.0  0.50930  0.79570  0.54950  1.0000 0.1473361347
C   C60       1.0  0.49070  0.29570  0.95050  1.0000 0.1473361347
C   C61       1.0  0.47080  0.26160  0.49000  1.0000 -0.2012650844
C   C62       1.0  0.52920  0.76160  0.01000  1.0000 -0.2012650844
C   C63       1.0  0.52920  0.73840  0.51000  1.0000 -0.2012650844
C   C64       1.0  0.47080  0.23840  0.99000  1.0000 -0.2012650844
C   C65       1.0  0.53774  0.22310  0.53954  1.0000 -0.0428818329
C   C66       1.0  0.46226  0.72310  0.96046  1.0000 -0.0428818329
C   C67       1.0  0.46226  0.77690  0.46046  1.0000 -0.0428818329
C   C68       1.0  0.53774  0.27690  0.03954  1.0000 -0.0428818329
C   C69       1.0  0.78957  0.16230  0.63057  1.0000 -0.1812220384
C   C70       1.0  0.21043  0.66230  0.86943  1.0000 -0.1812220384
C   C71       1.0  0.21043  0.83770  0.36943  1.0000 -0.1812220384
C   C72       1.0  0.78957  0.33770  0.13057  1.0000 -0.1812220384
C   C73       1.0  0.85585  0.09070  0.68075  1.0000 0.6930846814
C   C74       1.0  0.14415  0.59070  0.81925  1.0000 0.6930846814
C   C75       1.0  0.14415  0.90930  0.31925  1.0000 0.6930846814
C   C76       1.0  0.85585  0.40930  0.18075  1.0000 0.6930846814
C   C77       1.0  0.41080  0.24200  0.39690  1.0000 -0.2012650844
C   C78       1.0  0.58920  0.74200  0.10310  1.0000 -0.2012650844
C   C79       1.0  0.58920  0.75800  0.60310  1.0000 -0.2012650844
C   C80       1.0  0.41080  0.25800  0.89690  1.0000 -0.2012650844
C   C81       1.0  0.46890  0.29170  0.36480  1.0000 -0.2946052309
C   C82       1.0  0.53110  0.79170  0.13520  1.0000 -0.2946052309
C   C83       1.0  0.53110  0.70830  0.63520  1.0000 -0.2946052309
C   C84       1.0  0.46890  0.20830  0.86480  1.0000 -0.2946052309
C   C85       1.0  0.38590  0.31860  0.31070  1.0000 0.6738867107
C   C86       1.0  0.61410  0.81860  0.18930  1.0000 0.6738867107
C   C87       1.0  0.61410  0.68140  0.68930  1.0000 0.6738867107
C   C88       1.0  0.38590  0.18140  0.81070  1.0000 0.6738867107
I   I1        1.0  0.75373  0.42339  0.51716  1.0000 -0.0050848827
I   I2        1.0  0.24627  0.92339  0.98284  1.0000 -0.0050848827
I   I3        1.0  0.24627  0.57661  0.48284  1.0000 -0.0050848827
I   I4        1.0  0.75373  0.07661  0.01716  1.0000 -0.0050848827
I   I5        1.0  0.18581  0.76417  0.61990  1.0000 0.0439281203
I   I6        1.0  0.81419  0.26417  0.88010  1.0000 0.0439281203
I   I7        1.0  0.81419  0.23583  0.38010  1.0000 0.0466705505
I   I8        1.0  0.18581  0.73583  0.11990  1.0000 0.0466705505
I   I9        1.0  0.78837  0.93759  0.52831  1.0000 0.000956419
I   I10       1.0  0.21163  0.43759  0.97169  1.0000 0.000956419
I   I11       1.0  0.21163  0.06241  0.47169  1.0000 0.000956419
I   I12       1.0  0.78837  0.56241  0.02831  1.0000 0.000956419
I   I13       1.0  0.49437  0.30373  0.59664  1.0000 0.0281915757
I   I14       1.0  0.50563  0.80373  0.90336  1.0000 0.0281915757
I   I15       1.0  0.50563  0.69627  0.40336  1.0000 0.0281915757
I   I16       1.0  0.49437  0.19627  0.09664  1.0000 0.0281915757
O   O1        1.0  0.97763  0.55940  0.60463  1.0000 -0.1544106435
O   O2        1.0  0.02237  0.05940  0.89537  1.0000 -0.1544106435
O   O3        1.0  0.02237  0.44060  0.39537  1.0000 -0.1544106435
O   O4        1.0  0.97763  0.94060  0.10463  1.0000 -0.1544106435
O   O5        1.0  0.86018  0.62320  0.69488  1.0000 -0.6708197203
O   O6        1.0  0.13982  0.12320  0.80512  1.0000 -0.6708197203
O   O7        1.0  0.13982  0.37680  0.30512  1.0000 -0.6708197203
O   O8        1.0  0.86018  0.87680  0.19488  1.0000 -0.6708197203
O   O9        1.0  0.97187  0.45360  0.68687  1.0000 -0.6567889508
O   O10       1.0  0.02813  0.95360  0.81313  1.0000 -0.6567889508
O   O11       1.0  0.02813  0.54640  0.31313  1.0000 -0.6567889508
O   O12       1.0  0.97187  0.04640  0.18687  1.0000 -0.6567889508
O   O13       1.0  0.85604  0.84790  0.31084  1.0000 -0.5993360337
O   O14       1.0  0.14396  0.34790  0.18916  1.0000 -0.5993360337
O   O15       1.0  0.14396  0.15210  0.68916  1.0000 -0.5925391373
O   O16       1.0  0.85604  0.65210  0.81084  1.0000 -0.5925391373
O   O17       1.0  0.68395  0.92350  0.30295  1.0000 -0.4379802224
O   O18       1.0  0.31605  0.42350  0.19705  1.0000 -0.4379802224
O   O19       1.0  0.31605  0.07650  0.69705  1.0000 -0.4379802224
O   O20       1.0  0.68395  0.57650  0.80295  1.0000 -0.4379802224
O   O21       1.0  0.68725  0.08400  0.60095  1.0000 -0.1561816317
O   O22       1.0  0.31275  0.58400  0.89905  1.0000 -0.1561816317
O   O23       1.0  0.31275  0.91600  0.39905  1.0000 -0.1561816317
O   O24       1.0  0.68725  0.41600  0.10095  1.0000 -0.1561816317
O   O25       1.0  0.81970  0.98090  0.69080  1.0000 -0.6278125402
O   O26       1.0  0.18030  0.48090  0.80920  1.0000 -0.6278125402
O   O27       1.0  0.18030  0.01910  0.30920  1.0000 -0.6278125402
O   O28       1.0  0.81970  0.51910  0.19080  1.0000 -0.6278125402
O   O29       1.0  0.94810  0.15010  0.70880  1.0000 -0.6844656524
O   O30       1.0  0.05190  0.65010  0.79120  1.0000 -0.6853060183
O   O31       1.0  0.05190  0.84990  0.29120  1.0000 -0.6844656524
O   O32       1.0  0.94810  0.34990  0.20880  1.0000 -0.6844656524
O   O33       1.0  0.31261  0.22970  0.28671  1.0000 -0.6141152438
O   O34       1.0  0.68739  0.72970  0.21329  1.0000 -0.6169081983
O   O35       1.0  0.68739  0.77030  0.71329  1.0000 -0.6169081983
O   O36       1.0  0.31261  0.27030  0.78671  1.0000 -0.6169081983
O   O37       1.0  0.39516  0.43300  0.29126  1.0000 -0.4343762255
O   O38       1.0  0.60484  0.93300  0.20874  1.0000 -0.4343762255
O   O39       1.0  0.60484  0.56700  0.70874  1.0000 -0.4343762255
O   O40       1.0  0.39516  0.06700  0.79126  1.0000 -0.4379802224
