# DDEC6 charges by PACMAN v1.1 (https://github.com/mtap-research/PACMAN-charge/)
data_2013[Mn][bpq]3[ASR]1
_chemical_formula_sum              "Mn4 H24 C48 O20"
_cell_length_a       7.512
_cell_length_b       16.53
_cell_length_c       15.9415
_cell_angle_alpha    90
_cell_angle_beta     117.401
_cell_angle_gamma    90

_symmetry_space_group_name_H-M    "P 1"
_symmetry_Int_Tables_number       1

loop_
  _symmetry_equiv_pos_as_xyz
  'x, y, z'

loop_
  _atom_site_type_symbol
  _atom_site_label
  _atom_site_symmetry_multiplicity
  _atom_site_fract_x
  _atom_site_fract_y
  _atom_site_fract_z
  _atom_site_occupancy
  _atom_site_charge
Mn  Mn1       1.0  0.50000  0.50000  0.50000  1.0000 1.1199662999
Mn  Mn2       1.0  0.50000  0.00000  0.00000  1.0000 1.1199662999
Mn  Mn3       1.0  0.00000  0.50000  0.50000  1.0000 1.1199662999
Mn  Mn4       1.0  0.00000  0.00000  0.00000  1.0000 1.1255957202
H   H1        1.0  0.59950  0.36610  0.21710  1.0000 0.1203610307
H   H2        1.0  0.40050  0.86610  0.28290  1.0000 0.1203610307
H   H3        1.0  0.40050  0.63390  0.78290  1.0000 0.1203610307
H   H4        1.0  0.59950  0.13390  0.71710  1.0000 0.1203610307
H   H5        1.0  0.49070  0.26160  0.10850  1.0000 0.1091871749
H   H6        1.0  0.50930  0.76160  0.39150  1.0000 0.1091871749
H   H7        1.0  0.50930  0.73840  0.89150  1.0000 0.1091871749
H   H8        1.0  0.49070  0.23840  0.60850  1.0000 0.1091871749
H   H9        1.0  0.41630  0.04360  0.27220  1.0000 0.1203610307
H   H10       1.0  0.58370  0.54360  0.22780  1.0000 0.1203610307
H   H11       1.0  0.58370  0.95640  0.72780  1.0000 0.1203610307
H   H12       1.0  0.41630  0.45640  0.77220  1.0000 0.1203610307
H   H13       1.0  0.47660  0.02250  0.42520  1.0000 0.1091871749
H   H14       1.0  0.52340  0.52250  0.07480  1.0000 0.1091871749
H   H15       1.0  0.52340  0.97750  0.57480  1.0000 0.1091871749
H   H16       1.0  0.47660  0.47750  0.92520  1.0000 0.1091871749
H   H17       1.0  0.56540  0.12980  0.53090  1.0000 0.1091871749
H   H18       1.0  0.43460  0.62980  0.96910  1.0000 0.1091871749
H   H19       1.0  0.43460  0.87020  0.46910  1.0000 0.1091871749
H   H20       1.0  0.56540  0.37020  0.03090  1.0000 0.1091871749
H   H21       1.0  0.60940  0.25570  0.48670  1.0000 0.13063761
H   H22       1.0  0.39060  0.75570  0.01330  1.0000 0.13063761
H   H23       1.0  0.39060  0.74430  0.51330  1.0000 0.13063761
H   H24       1.0  0.60940  0.24430  0.98670  1.0000 0.13063761
C   C1        1.0  0.56970  0.31610  0.23440  1.0000 -0.1278152488
C   C2        1.0  0.43030  0.81610  0.26560  1.0000 -0.1278152488
C   C3        1.0  0.43030  0.68390  0.76560  1.0000 -0.1278152488
C   C4        1.0  0.56970  0.18390  0.73440  1.0000 -0.1278152488
C   C5        1.0  0.50440  0.25280  0.16880  1.0000 -0.1117808794
C   C6        1.0  0.49560  0.75280  0.33120  1.0000 -0.1117808794
C   C7        1.0  0.49560  0.74720  0.83120  1.0000 -0.1117808794
C   C8        1.0  0.50440  0.24720  0.66880  1.0000 -0.1117808794
C   C9        1.0  0.46010  0.17810  0.19150  1.0000 -0.065809442
C   C10       1.0  0.53990  0.67810  0.30850  1.0000 -0.065809442
C   C11       1.0  0.53990  0.82190  0.80850  1.0000 -0.065809442
C   C12       1.0  0.46010  0.32190  0.69150  1.0000 -0.065809442
C   C13       1.0  0.48580  0.16350  0.28510  1.0000 0.0594403293
C   C14       1.0  0.51420  0.66350  0.21490  1.0000 0.0594403293
C   C15       1.0  0.51420  0.83650  0.71490  1.0000 0.0594403293
C   C16       1.0  0.48580  0.33650  0.78510  1.0000 0.0594403293
C   C17       1.0  0.45780  0.08640  0.31480  1.0000 -0.1117808794
C   C18       1.0  0.54220  0.58640  0.18520  1.0000 -0.1117808794
C   C19       1.0  0.54220  0.91360  0.68520  1.0000 -0.1117808794
C   C20       1.0  0.45780  0.41360  0.81480  1.0000 -0.1117808794
C   C21       1.0  0.49110  0.07410  0.40580  1.0000 -0.097289692
C   C22       1.0  0.50890  0.57410  0.09420  1.0000 -0.097289692
C   C23       1.0  0.50890  0.92590  0.59420  1.0000 -0.097289692
C   C24       1.0  0.49110  0.42590  0.90580  1.0000 -0.097289692
C   C25       1.0  0.54680  0.13860  0.46970  1.0000 -0.097289692
C   C26       1.0  0.45320  0.63860  0.03030  1.0000 -0.097289692
C   C27       1.0  0.45320  0.86140  0.53030  1.0000 -0.097289692
C   C28       1.0  0.54680  0.36140  0.96970  1.0000 -0.097289692
C   C29       1.0  0.57380  0.21340  0.44350  1.0000 -0.121651227
C   C30       1.0  0.42620  0.71340  0.05650  1.0000 -0.121651227
C   C31       1.0  0.42620  0.78660  0.55650  1.0000 -0.121651227
C   C32       1.0  0.57380  0.28660  0.94350  1.0000 -0.121651227
C   C33       1.0  0.54860  0.22850  0.35130  1.0000 0.0594403293
C   C34       1.0  0.45140  0.72850  0.14870  1.0000 0.0594403293
C   C35       1.0  0.45140  0.77150  0.64870  1.0000 0.0594403293
C   C36       1.0  0.54860  0.27150  0.85130  1.0000 0.0594403293
C   C37       1.0  0.59060  0.30550  0.32410  1.0000 -0.0517298396
C   C38       1.0  0.40940  0.80550  0.17590  1.0000 -0.0517298396
C   C39       1.0  0.40940  0.69450  0.67590  1.0000 -0.0517298396
C   C40       1.0  0.59060  0.19450  0.82410  1.0000 -0.0517298396
C   C41       1.0  0.65850  0.37530  0.39150  1.0000 0.578588825
C   C42       1.0  0.34150  0.87530  0.10850  1.0000 0.578588825
C   C43       1.0  0.34150  0.62470  0.60850  1.0000 0.578588825
C   C44       1.0  0.65850  0.12470  0.89150  1.0000 0.578588825
C   C45       1.0  0.38250  0.11450  0.11640  1.0000 0.5858771518
C   C46       1.0  0.61750  0.61450  0.38360  1.0000 0.578588825
C   C47       1.0  0.61750  0.88550  0.88360  1.0000 0.5858771518
C   C48       1.0  0.38250  0.38550  0.61640  1.0000 0.578588825
O   O1        1.0  0.84110  0.39264  0.43020  1.0000 -0.5211454764
O   O2        1.0  0.15890  0.89264  0.06980  1.0000 -0.5211454764
O   O3        1.0  0.15890  0.60736  0.56980  1.0000 -0.5211454764
O   O4        1.0  0.84110  0.10736  0.93020  1.0000 -0.5211454764
O   O5        1.0  0.52590  0.41291  0.40320  1.0000 -0.5334997758
O   O6        1.0  0.47410  0.91291  0.09680  1.0000 -0.5334997758
O   O7        1.0  0.47410  0.58709  0.59680  1.0000 -0.5334997758
O   O8        1.0  0.52590  0.08709  0.90320  1.0000 -0.5334997758
O   O9        1.0  0.22330  0.07761  0.10170  1.0000 -0.5334997758
O   O10       1.0  0.77670  0.57761  0.39830  1.0000 -0.5334997758
O   O11       1.0  0.77670  0.92239  0.89830  1.0000 -0.5334997758
O   O12       1.0  0.22330  0.42239  0.60170  1.0000 -0.5334997758
O   O13       1.0  0.48070  0.10248  0.07180  1.0000 -0.5211454764
O   O14       1.0  0.51930  0.60248  0.42820  1.0000 -0.5211454764
O   O15       1.0  0.51930  0.89752  0.92820  1.0000 -0.5211454764
O   O16       1.0  0.48070  0.39752  0.57180  1.0000 -0.5211454764
O   O17       1.0  0.84590  0.50623  0.59660  1.0000 -0.2068982904
O   O18       1.0  0.15410  0.00623  0.90340  1.0000 -0.2068982904
O   O19       1.0  0.15410  0.49377  0.40340  1.0000 -0.2015448048
O   O20       1.0  0.84590  0.99377  0.09660  1.0000 -0.2068982904
