# DDEC6 charges by PACMAN v1.1 (https://github.com/mtap-research/PACMAN-charge/)
data_2013[Sm][nan]3[ASR]1
_chemical_formula_sum              "Sm8 H32 C56 N16 O48"
_cell_length_a       10.275
_cell_length_b       11.2876
_cell_length_c       23.2684
_cell_angle_alpha    90
_cell_angle_beta     108.654
_cell_angle_gamma    90

_symmetry_space_group_name_H-M    "P 1"
_symmetry_Int_Tables_number       1

loop_
  _symmetry_equiv_pos_as_xyz
  'x, y, z'

loop_
  _atom_site_type_symbol
  _atom_site_label
  _atom_site_symmetry_multiplicity
  _atom_site_fract_x
  _atom_site_fract_y
  _atom_site_fract_z
  _atom_site_occupancy
  _atom_site_charge
Sm  Sm1       1.0  0.61624  0.18686  0.22597  1.0000 1.956033447
Sm  Sm2       1.0  0.38376  0.68686  0.27403  1.0000 1.956033447
Sm  Sm3       1.0  0.38376  0.81314  0.77403  1.0000 1.956033447
Sm  Sm4       1.0  0.61624  0.31314  0.72597  1.0000 1.956033447
Sm  Sm5       1.0  0.19652  0.41319  0.43583  1.0000 2.1832906093
Sm  Sm6       1.0  0.80348  0.91319  0.06417  1.0000 2.1832906093
Sm  Sm7       1.0  0.80348  0.58681  0.56417  1.0000 2.1832906093
Sm  Sm8       1.0  0.19652  0.08681  0.93583  1.0000 2.1832906093
H   H1        1.0  0.00760  0.46890  0.16400  1.0000 0.3088508036
H   H2        1.0  0.99240  0.96890  0.33600  1.0000 0.3088508036
H   H3        1.0  0.99240  0.53110  0.83600  1.0000 0.3088508036
H   H4        1.0  0.00760  0.03110  0.66400  1.0000 0.3088508036
H   H5        1.0  0.04420  0.11960  0.16300  1.0000 0.2906934704
H   H6        1.0  0.95580  0.61960  0.33700  1.0000 0.2906934704
H   H7        1.0  0.95580  0.88040  0.83700  1.0000 0.2906934704
H   H8        1.0  0.04420  0.38040  0.66300  1.0000 0.2906934704
H   H9        1.0  0.68920  0.37910  0.08690  1.0000 0.1709572851
H   H10       1.0  0.31080  0.87910  0.41310  1.0000 0.1709572851
H   H11       1.0  0.31080  0.62090  0.91310  1.0000 0.1709572851
H   H12       1.0  0.68920  0.12090  0.58690  1.0000 0.1709572851
H   H13       1.0  0.83020  0.38780  0.07460  1.0000 0.1386017259
H   H14       1.0  0.16980  0.88780  0.42540  1.0000 0.1386017259
H   H15       1.0  0.16980  0.61220  0.92540  1.0000 0.1386017259
H   H16       1.0  0.83020  0.11220  0.57460  1.0000 0.1386017259
H   H17       1.0  0.77480  0.26420  0.08680  1.0000 0.1709572851
H   H18       1.0  0.22520  0.76420  0.41320  1.0000 0.1709572851
H   H19       1.0  0.22520  0.73580  0.91320  1.0000 0.1709572851
H   H20       1.0  0.77480  0.23580  0.58680  1.0000 0.1709572851
H   H21       1.0  0.29650  0.22310  0.28990  1.0000 0.1709572851
H   H22       1.0  0.70350  0.72310  0.21010  1.0000 0.1709572851
H   H23       1.0  0.70350  0.77690  0.71010  1.0000 0.1709572851
H   H24       1.0  0.29650  0.27690  0.78990  1.0000 0.1709572851
H   H25       1.0  0.15300  0.16030  0.27200  1.0000 0.1386017259
H   H26       1.0  0.84700  0.66030  0.22800  1.0000 0.1453010823
H   H27       1.0  0.84700  0.83970  0.72800  1.0000 0.1453010823
H   H28       1.0  0.15300  0.33970  0.77200  1.0000 0.1453010823
H   H29       1.0  0.28810  0.08450  0.29180  1.0000 0.1709572851
H   H30       1.0  0.71190  0.58450  0.20820  1.0000 0.1709572851
H   H31       1.0  0.71190  0.91550  0.70820  1.0000 0.1709572851
H   H32       1.0  0.28810  0.41550  0.79180  1.0000 0.1709572851
C   C1        1.0  0.12510  0.50470  0.28280  1.0000 0.5989988234
C   C2        1.0  0.87490  0.00470  0.21720  1.0000 0.5989988234
C   C3        1.0  0.87490  0.49530  0.71720  1.0000 0.5989988234
C   C4        1.0  0.12510  0.99530  0.78280  1.0000 0.5989988234
C   C5        1.0  0.00770  0.42660  0.24800  1.0000 -0.0116035547
C   C6        1.0  0.99230  0.92660  0.25200  1.0000 -0.0116035547
C   C7        1.0  0.99230  0.57340  0.75200  1.0000 -0.0116035547
C   C8        1.0  0.00770  0.07340  0.74800  1.0000 -0.0116035547
C   C9        1.0  0.91450  0.35270  0.26190  1.0000 -0.0341498953
C   C10       1.0  0.08550  0.85270  0.23810  1.0000 -0.0341498953
C   C11       1.0  0.08550  0.64730  0.73810  1.0000 -0.0341498953
C   C12       1.0  0.91450  0.14730  0.76190  1.0000 -0.0341498953
C   C13       1.0  0.90090  0.31240  0.32000  1.0000 0.6286671992
C   C14       1.0  0.09910  0.81240  0.18000  1.0000 0.6286671992
C   C15       1.0  0.09910  0.68760  0.68000  1.0000 0.6286671992
C   C16       1.0  0.90090  0.18760  0.82000  1.0000 0.6286671992
C   C17       1.0  0.85260  0.36150  0.16360  1.0000 0.4315468754
C   C18       1.0  0.14740  0.86150  0.33640  1.0000 0.4315468754
C   C19       1.0  0.14740  0.63850  0.83640  1.0000 0.4315468754
C   C20       1.0  0.85260  0.13850  0.66360  1.0000 0.4315468754
C   C21       1.0  0.78020  0.34680  0.09700  1.0000 -0.5032680396
C   C22       1.0  0.21980  0.84680  0.40300  1.0000 -0.5032680396
C   C23       1.0  0.21980  0.65320  0.90300  1.0000 -0.5032680396
C   C24       1.0  0.78020  0.15320  0.59700  1.0000 -0.5032680396
C   C25       1.0  0.39360  0.15090  0.08780  1.0000 0.6579763975
C   C26       1.0  0.60640  0.65090  0.41220  1.0000 0.6579763975
C   C27       1.0  0.60640  0.84910  0.91220  1.0000 0.6579763975
C   C28       1.0  0.39360  0.34910  0.58780  1.0000 0.6579763975
C   C29       1.0  0.29710  0.14780  0.12380  1.0000 0.0043148931
C   C30       1.0  0.70290  0.64780  0.37620  1.0000 0.0043148931
C   C31       1.0  0.70290  0.85220  0.87620  1.0000 0.0043148931
C   C32       1.0  0.29710  0.35220  0.62380  1.0000 0.0043148931
C   C33       1.0  0.15760  0.12950  0.10680  1.0000 -0.0116035547
C   C34       1.0  0.84240  0.62950  0.39320  1.0000 -0.0116035547
C   C35       1.0  0.84240  0.87050  0.89320  1.0000 -0.0116035547
C   C36       1.0  0.15760  0.37050  0.60680  1.0000 -0.0116035547
C   C37       1.0  0.04300  0.11570  0.04860  1.0000 0.6452584948
C   C38       1.0  0.95700  0.61570  0.45140  1.0000 0.6452584948
C   C39       1.0  0.95700  0.88430  0.95140  1.0000 0.6452584948
C   C40       1.0  0.04300  0.38430  0.54860  1.0000 0.6452584948
C   C41       1.0  0.24280  0.14890  0.20680  1.0000 0.4194143798
C   C42       1.0  0.75720  0.64890  0.29320  1.0000 0.4194143798
C   C43       1.0  0.75720  0.85110  0.79320  1.0000 0.4194143798
C   C44       1.0  0.24280  0.35110  0.70680  1.0000 0.4194143798
C   C45       1.0  0.24540  0.15470  0.27080  1.0000 -0.5359258417
C   C46       1.0  0.75460  0.65470  0.22920  1.0000 -0.5359258417
C   C47       1.0  0.75460  0.84530  0.72920  1.0000 -0.5359258417
C   C48       1.0  0.24540  0.34530  0.77080  1.0000 -0.5359258417
C   C49       1.0  0.52120  0.95420  0.28560  1.0000 0.470062365
C   C50       1.0  0.47880  0.45420  0.21440  1.0000 0.470062365
C   C51       1.0  0.47880  0.04580  0.71440  1.0000 0.470062365
C   C52       1.0  0.52120  0.54580  0.78560  1.0000 0.470062365
C   C53       1.0  0.51750  0.90870  0.22200  1.0000 0.470062365
C   C54       1.0  0.48250  0.40870  0.27800  1.0000 0.470062365
C   C55       1.0  0.48250  0.09130  0.77800  1.0000 0.470062365
C   C56       1.0  0.51750  0.59130  0.72200  1.0000 0.470062365
N   N1        1.0  0.96660  0.42940  0.18590  1.0000 -0.2691143405
N   N2        1.0  0.03340  0.92940  0.31410  1.0000 -0.2691143405
N   N3        1.0  0.03340  0.57060  0.81410  1.0000 -0.2691143405
N   N4        1.0  0.96660  0.07060  0.68590  1.0000 -0.2691143405
N   N5        1.0  0.81855  0.31330  0.20905  1.0000 -0.4769113649
N   N6        1.0  0.18145  0.81330  0.29095  1.0000 -0.4769113649
N   N7        1.0  0.18145  0.68670  0.79095  1.0000 -0.4769113649
N   N8        1.0  0.81855  0.18670  0.70905  1.0000 -0.4769113649
N   N9        1.0  0.34869  0.16030  0.18569  1.0000 -0.4738653664
N   N10       1.0  0.65131  0.66030  0.31431  1.0000 -0.4738653664
N   N11       1.0  0.65131  0.83970  0.81431  1.0000 -0.4738653664
N   N12       1.0  0.34869  0.33970  0.68569  1.0000 -0.4738653664
N   N13       1.0  0.12650  0.13000  0.15990  1.0000 -0.2691143405
N   N14       1.0  0.87350  0.63000  0.34010  1.0000 -0.2691143405
N   N15       1.0  0.87350  0.87000  0.84010  1.0000 -0.2691143405
N   N16       1.0  0.12650  0.37000  0.65990  1.0000 -0.2691143405
O   O1        1.0  0.18049  0.56030  0.25099  1.0000 -0.6085161547
O   O2        1.0  0.81951  0.06030  0.24901  1.0000 -0.6085161547
O   O3        1.0  0.81951  0.43970  0.74901  1.0000 -0.6085161547
O   O4        1.0  0.18049  0.93970  0.75099  1.0000 -0.6085161547
O   O5        1.0  0.15518  0.51390  0.33958  1.0000 -0.7018322114
O   O6        1.0  0.84482  0.01390  0.16042  1.0000 -0.7018322114
O   O7        1.0  0.84482  0.48610  0.66042  1.0000 -0.7018322114
O   O8        1.0  0.15518  0.98610  0.83958  1.0000 -0.7018322114
O   O9        1.0  0.99421  0.33550  0.36941  1.0000 -0.7098968167
O   O10       1.0  0.00579  0.83550  0.13059  1.0000 -0.7098968167
O   O11       1.0  0.00579  0.66450  0.63059  1.0000 -0.7098968167
O   O12       1.0  0.99421  0.16450  0.86941  1.0000 -0.7098968167
O   O13       1.0  0.79481  0.25650  0.31821  1.0000 -0.5602490469
O   O14       1.0  0.20519  0.75650  0.18179  1.0000 -0.5602490469
O   O15       1.0  0.20519  0.74350  0.68179  1.0000 -0.5602490469
O   O16       1.0  0.79481  0.24350  0.81821  1.0000 -0.5602490469
O   O17       1.0  0.51826  0.17750  0.11606  1.0000 -0.6085161547
O   O18       1.0  0.48174  0.67750  0.38394  1.0000 -0.6085161547
O   O19       1.0  0.48174  0.82250  0.88394  1.0000 -0.6085161547
O   O20       1.0  0.51826  0.32250  0.61606  1.0000 -0.6085161547
O   O21       1.0  0.35324  0.12520  0.03294  1.0000 -0.7098968167
O   O22       1.0  0.64676  0.62520  0.46706  1.0000 -0.7098968167
O   O23       1.0  0.64676  0.87480  0.96706  1.0000 -0.7098968167
O   O24       1.0  0.35324  0.37480  0.53294  1.0000 -0.7098968167
O   O25       1.0  0.06019  0.13720  0.99949  1.0000 -0.6085161547
O   O26       1.0  0.93981  0.63720  0.50051  1.0000 -0.6027483855
O   O27       1.0  0.93981  0.86280  0.00051  1.0000 -0.6027483855
O   O28       1.0  0.06019  0.36280  0.49949  1.0000 -0.6027483855
O   O29       1.0  0.92991  0.08590  0.05441  1.0000 -0.6804242943
O   O30       1.0  0.07009  0.58590  0.44559  1.0000 -0.6804242943
O   O31       1.0  0.07009  0.91410  0.94559  1.0000 -0.6804242943
O   O32       1.0  0.92991  0.41410  0.55441  1.0000 -0.6804242943
O   O33       1.0  0.57127  0.05540  0.30107  1.0000 -0.5602490469
O   O34       1.0  0.42873  0.55540  0.19893  1.0000 -0.5602490469
O   O35       1.0  0.42873  0.94460  0.69893  1.0000 -0.5602490469
O   O36       1.0  0.57127  0.44460  0.80107  1.0000 -0.5602490469
O   O37       1.0  0.47260  0.88680  0.31580  1.0000 -0.5708255087
O   O38       1.0  0.52740  0.38680  0.18420  1.0000 -0.5708255087
O   O39       1.0  0.52740  0.11320  0.68420  1.0000 -0.5708255087
O   O40       1.0  0.47260  0.61320  0.81580  1.0000 -0.5708255087
O   O41       1.0  0.55653  0.97940  0.18913  1.0000 -0.5708255087
O   O42       1.0  0.44347  0.47940  0.31087  1.0000 -0.5708255087
O   O43       1.0  0.44347  0.02060  0.81087  1.0000 -0.5708255087
O   O44       1.0  0.55653  0.52060  0.68913  1.0000 -0.5708255087
O   O45       1.0  0.47710  0.80490  0.20870  1.0000 -0.5602490469
O   O46       1.0  0.52290  0.30490  0.29130  1.0000 -0.5602490469
O   O47       1.0  0.52290  0.19510  0.79130  1.0000 -0.5602490469
O   O48       1.0  0.47710  0.69510  0.70870  1.0000 -0.5602490469
