# DDEC6 charges by PACMAN v1.1 (https://github.com/mtap-research/PACMAN-charge/)
data_2013[In][acs]3[ASR]1
_chemical_formula_sum              "In6 H48 C84 O26"
_cell_length_a       20.8131
_cell_length_b       20.8131
_cell_length_c       23.185
_cell_angle_alpha    90
_cell_angle_beta     90
_cell_angle_gamma    120

_symmetry_space_group_name_H-M    "P 1"
_symmetry_Int_Tables_number       1

loop_
  _symmetry_equiv_pos_as_xyz
  'x, y, z'

loop_
  _atom_site_type_symbol
  _atom_site_label
  _atom_site_symmetry_multiplicity
  _atom_site_fract_x
  _atom_site_fract_y
  _atom_site_fract_z
  _atom_site_occupancy
  _atom_site_charge
In  In1       1.0  0.72308  0.27692  0.75000  1.0000 1.4863661358
In  In2       1.0  0.72308  0.44616  0.75000  1.0000 1.4863661358
In  In3       1.0  0.55384  0.27692  0.75000  1.0000 1.4863661358
In  In4       1.0  0.27692  0.72308  0.25000  1.0000 1.4863661358
In  In5       1.0  0.27692  0.55384  0.25000  1.0000 1.4863661358
In  In6       1.0  0.44616  0.72308  0.25000  1.0000 1.4863661358
H   H1        1.0  0.96611  0.38751  0.53360  1.0000 0.106744902
H   H2        1.0  0.61249  0.57860  0.53360  1.0000 0.106744902
H   H3        1.0  0.42140  0.03389  0.53360  1.0000 0.106744902
H   H4        1.0  0.61249  0.03389  0.96640  1.0000 0.106744902
H   H5        1.0  0.42140  0.38751  0.96640  1.0000 0.106744902
H   H6        1.0  0.96611  0.57860  0.96640  1.0000 0.106744902
H   H7        1.0  0.03389  0.61249  0.46640  1.0000 0.106744902
H   H8        1.0  0.38751  0.42140  0.46640  1.0000 0.106744902
H   H9        1.0  0.57860  0.96611  0.46640  1.0000 0.106744902
H   H10       1.0  0.38751  0.96611  0.03360  1.0000 0.106744902
H   H11       1.0  0.57860  0.61249  0.03360  1.0000 0.106744902
H   H12       1.0  0.03389  0.42140  0.03360  1.0000 0.106744902
H   H13       1.0  0.96481  0.57781  0.53340  1.0000 0.106744902
H   H14       1.0  0.42219  0.38700  0.53340  1.0000 0.106744902
H   H15       1.0  0.61300  0.03519  0.53340  1.0000 0.106744902
H   H16       1.0  0.42219  0.03519  0.96660  1.0000 0.106744902
H   H17       1.0  0.61300  0.57781  0.96660  1.0000 0.106744902
H   H18       1.0  0.96481  0.38700  0.96660  1.0000 0.106744902
H   H19       1.0  0.03519  0.42219  0.46660  1.0000 0.106744902
H   H20       1.0  0.57781  0.61300  0.46660  1.0000 0.106744902
H   H21       1.0  0.38700  0.96481  0.46660  1.0000 0.106744902
H   H22       1.0  0.57781  0.96481  0.03340  1.0000 0.106744902
H   H23       1.0  0.38700  0.42219  0.03340  1.0000 0.106744902
H   H24       1.0  0.03519  0.61300  0.03340  1.0000 0.106744902
H   H25       1.0  0.88141  0.53481  0.60860  1.0000 0.1265563733
H   H26       1.0  0.46519  0.34660  0.60860  1.0000 0.1265563733
H   H27       1.0  0.65340  0.11859  0.60860  1.0000 0.1265563733
H   H28       1.0  0.46519  0.11859  0.89140  1.0000 0.1265563733
H   H29       1.0  0.65340  0.53481  0.89140  1.0000 0.1265563733
H   H30       1.0  0.88141  0.34660  0.89140  1.0000 0.1265563733
H   H31       1.0  0.11859  0.46519  0.39140  1.0000 0.1265563733
H   H32       1.0  0.53481  0.65340  0.39140  1.0000 0.1265563733
H   H33       1.0  0.34660  0.88141  0.39140  1.0000 0.1265563733
H   H34       1.0  0.53481  0.88141  0.10860  1.0000 0.1265563733
H   H35       1.0  0.34660  0.46519  0.10860  1.0000 0.1265563733
H   H36       1.0  0.11859  0.65340  0.10860  1.0000 0.1265563733
H   H37       1.0  0.88181  0.34611  0.60830  1.0000 0.1265563733
H   H38       1.0  0.65389  0.53570  0.60830  1.0000 0.1265563733
H   H39       1.0  0.46430  0.11819  0.60830  1.0000 0.1265563733
H   H40       1.0  0.65389  0.11819  0.89170  1.0000 0.1265563733
H   H41       1.0  0.46430  0.34611  0.89170  1.0000 0.1265563733
H   H42       1.0  0.88181  0.53570  0.89170  1.0000 0.1265563733
H   H43       1.0  0.11819  0.65389  0.39170  1.0000 0.1265563733
H   H44       1.0  0.34611  0.46430  0.39170  1.0000 0.1265563733
H   H45       1.0  0.53570  0.88181  0.39170  1.0000 0.1265563733
H   H46       1.0  0.34611  0.88181  0.10830  1.0000 0.1265563733
H   H47       1.0  0.53570  0.65389  0.10830  1.0000 0.1265563733
H   H48       1.0  0.11819  0.46430  0.10830  1.0000 0.1265563733
C   C1        1.0  0.94891  0.41771  0.54826  1.0000 -0.1658225597
C   C2        1.0  0.58229  0.53120  0.54826  1.0000 -0.1640286459
C   C3        1.0  0.46880  0.05109  0.54826  1.0000 -0.1640286459
C   C4        1.0  0.58229  0.05109  0.95174  1.0000 -0.1640286459
C   C5        1.0  0.46880  0.41771  0.95174  1.0000 -0.1640286459
C   C6        1.0  0.94891  0.53120  0.95174  1.0000 -0.1640286459
C   C7        1.0  0.05109  0.58229  0.45174  1.0000 -0.1658225597
C   C8        1.0  0.41771  0.46880  0.45174  1.0000 -0.1640286459
C   C9        1.0  0.53120  0.94891  0.45174  1.0000 -0.1640286459
C   C10       1.0  0.41771  0.94891  0.04826  1.0000 -0.1658225597
C   C11       1.0  0.53120  0.58229  0.04826  1.0000 -0.1640286459
C   C12       1.0  0.05109  0.46880  0.04826  1.0000 -0.1640286459
C   C13       1.0  0.94821  0.53061  0.54820  1.0000 -0.1640286459
C   C14       1.0  0.46939  0.41760  0.54820  1.0000 -0.1658225597
C   C15       1.0  0.58240  0.05179  0.54820  1.0000 -0.1658225597
C   C16       1.0  0.46939  0.05179  0.95180  1.0000 -0.1640286459
C   C17       1.0  0.58240  0.53061  0.95180  1.0000 -0.1658225597
C   C18       1.0  0.94821  0.41760  0.95180  1.0000 -0.1640286459
C   C19       1.0  0.05179  0.46939  0.45180  1.0000 -0.1640286459
C   C20       1.0  0.53061  0.58240  0.45180  1.0000 -0.1658225597
C   C21       1.0  0.41760  0.94821  0.45180  1.0000 -0.1658225597
C   C22       1.0  0.53061  0.94821  0.04820  1.0000 -0.1658225597
C   C23       1.0  0.41760  0.46939  0.04820  1.0000 -0.1640286459
C   C24       1.0  0.05179  0.58240  0.04820  1.0000 -0.1658225597
C   C25       1.0  0.89861  0.50481  0.59356  1.0000 -0.1030072969
C   C26       1.0  0.49519  0.39380  0.59356  1.0000 -0.1030072969
C   C27       1.0  0.60620  0.10139  0.59356  1.0000 -0.1030072969
C   C28       1.0  0.49519  0.10139  0.90644  1.0000 -0.1030072969
C   C29       1.0  0.60620  0.50481  0.90644  1.0000 -0.1030072969
C   C30       1.0  0.89861  0.39380  0.90644  1.0000 -0.1030072969
C   C31       1.0  0.10139  0.49519  0.40644  1.0000 -0.1030072969
C   C32       1.0  0.50481  0.60620  0.40644  1.0000 -0.1030072969
C   C33       1.0  0.39380  0.89861  0.40644  1.0000 -0.1030072969
C   C34       1.0  0.50481  0.89861  0.09356  1.0000 -0.1030072969
C   C35       1.0  0.39380  0.49519  0.09356  1.0000 -0.1030072969
C   C36       1.0  0.10139  0.60620  0.09356  1.0000 -0.1030072969
C   C37       1.0  0.89911  0.39341  0.59338  1.0000 -0.1030072969
C   C38       1.0  0.60659  0.50570  0.59338  1.0000 -0.1057769061
C   C39       1.0  0.49430  0.10089  0.59338  1.0000 -0.1030072969
C   C40       1.0  0.60659  0.10089  0.90662  1.0000 -0.1030072969
C   C41       1.0  0.49430  0.39341  0.90662  1.0000 -0.1030072969
C   C42       1.0  0.89911  0.50570  0.90662  1.0000 -0.1030072969
C   C43       1.0  0.10089  0.60659  0.40662  1.0000 -0.1030072969
C   C44       1.0  0.39341  0.49430  0.40662  1.0000 -0.1057769061
C   C45       1.0  0.50570  0.89911  0.40662  1.0000 -0.1030072969
C   C46       1.0  0.39341  0.89911  0.09338  1.0000 -0.1057769061
C   C47       1.0  0.50570  0.60659  0.09338  1.0000 -0.1057769061
C   C48       1.0  0.10089  0.49430  0.09338  1.0000 -0.1057769061
C   C49       1.0  0.97281  0.48621  0.52510  1.0000 0.0655344853
C   C50       1.0  0.51379  0.48660  0.52510  1.0000 0.0655344853
C   C51       1.0  0.51340  0.02719  0.52510  1.0000 0.064664404
C   C52       1.0  0.51379  0.02719  0.97490  1.0000 0.0655344853
C   C53       1.0  0.51340  0.48621  0.97490  1.0000 0.0655344853
C   C54       1.0  0.97281  0.48660  0.97490  1.0000 0.0655344853
C   C55       1.0  0.02719  0.51379  0.47490  1.0000 0.0655344853
C   C56       1.0  0.48621  0.51340  0.47490  1.0000 0.0655344853
C   C57       1.0  0.48660  0.97281  0.47490  1.0000 0.0655344853
C   C58       1.0  0.48621  0.97281  0.02510  1.0000 0.0655344853
C   C59       1.0  0.48660  0.51379  0.02510  1.0000 0.064664404
C   C60       1.0  0.02719  0.51340  0.02510  1.0000 0.064664404
C   C61       1.0  0.87497  0.43771  0.61635  1.0000 -0.0299177186
C   C62       1.0  0.56229  0.43726  0.61635  1.0000 -0.0299177186
C   C63       1.0  0.56274  0.12503  0.61635  1.0000 -0.0299177186
C   C64       1.0  0.56229  0.12503  0.88365  1.0000 -0.0299177186
C   C65       1.0  0.56274  0.43771  0.88365  1.0000 -0.0299177186
C   C66       1.0  0.87497  0.43726  0.88365  1.0000 -0.0299177186
C   C67       1.0  0.12503  0.56229  0.38365  1.0000 -0.0299177186
C   C68       1.0  0.43771  0.56274  0.38365  1.0000 -0.0299177186
C   C69       1.0  0.43726  0.87497  0.38365  1.0000 -0.0299177186
C   C70       1.0  0.43771  0.87497  0.11635  1.0000 -0.0299177186
C   C71       1.0  0.43726  0.56229  0.11635  1.0000 -0.0299177186
C   C72       1.0  0.12503  0.56274  0.11635  1.0000 -0.0299177186
C   C73       1.0  0.81856  0.40941  0.66577  1.0000 0.6107126602
C   C74       1.0  0.59059  0.40915  0.66577  1.0000 0.6107126602
C   C75       1.0  0.59085  0.18144  0.66577  1.0000 0.6107126602
C   C76       1.0  0.59059  0.18144  0.83423  1.0000 0.6107126602
C   C77       1.0  0.59085  0.40941  0.83423  1.0000 0.6107126602
C   C78       1.0  0.81856  0.40915  0.83423  1.0000 0.6107126602
C   C79       1.0  0.18144  0.59059  0.33423  1.0000 0.6107126602
C   C80       1.0  0.40941  0.59085  0.33423  1.0000 0.6107126602
C   C81       1.0  0.40915  0.81856  0.33423  1.0000 0.6107126602
C   C82       1.0  0.40941  0.81856  0.16577  1.0000 0.6107126602
C   C83       1.0  0.40915  0.59059  0.16577  1.0000 0.6107126602
C   C84       1.0  0.18144  0.59085  0.16577  1.0000 0.6107126602
O   O1        1.0  0.66667  0.33333  0.75000  1.0000 -1.0878265471
O   O2        1.0  0.33333  0.66667  0.25000  1.0000 -1.0878265471
O   O3        1.0  0.79936  0.45361  0.68419  1.0000 -0.5689361414
O   O4        1.0  0.54639  0.34575  0.68419  1.0000 -0.5689361414
O   O5        1.0  0.65425  0.20064  0.68419  1.0000 -0.5689361414
O   O6        1.0  0.54639  0.20064  0.81581  1.0000 -0.5689361414
O   O7        1.0  0.65425  0.45361  0.81581  1.0000 -0.5689361414
O   O8        1.0  0.79936  0.34575  0.81581  1.0000 -0.5689361414
O   O9        1.0  0.20064  0.54639  0.31581  1.0000 -0.5689361414
O   O10       1.0  0.45361  0.65425  0.31581  1.0000 -0.5689361414
O   O11       1.0  0.34575  0.79936  0.31581  1.0000 -0.5689361414
O   O12       1.0  0.45361  0.79936  0.18419  1.0000 -0.5689361414
O   O13       1.0  0.34575  0.54639  0.18419  1.0000 -0.5689361414
O   O14       1.0  0.20064  0.65425  0.18419  1.0000 -0.5689361414
O   O15       1.0  0.79949  0.34575  0.68415  1.0000 -0.5689361414
O   O16       1.0  0.65425  0.45374  0.68415  1.0000 -0.5689361414
O   O17       1.0  0.54626  0.20051  0.68415  1.0000 -0.5689361414
O   O18       1.0  0.65425  0.20051  0.81585  1.0000 -0.5689361414
O   O19       1.0  0.54626  0.34575  0.81585  1.0000 -0.5689361414
O   O20       1.0  0.79949  0.45374  0.81585  1.0000 -0.5689361414
O   O21       1.0  0.20051  0.65425  0.31585  1.0000 -0.5689361414
O   O22       1.0  0.34575  0.54626  0.31585  1.0000 -0.5689361414
O   O23       1.0  0.45374  0.79949  0.31585  1.0000 -0.5689361414
O   O24       1.0  0.34575  0.79949  0.18415  1.0000 -0.5689361414
O   O25       1.0  0.45374  0.65425  0.18415  1.0000 -0.5689361414
O   O26       1.0  0.20051  0.54626  0.18415  1.0000 -0.5689361414
