# DDEC6 charges by PACMAN v1.1 (https://github.com/mtap-research/PACMAN-charge/)
data_2013[Gd][nan]3[ASR]1
_chemical_formula_sum              "Gd4 H6 C30 O24"
_cell_length_a       10.0662
_cell_length_b       11.4492
_cell_length_c       12.7746
_cell_angle_alpha    108.73
_cell_angle_beta     96.948
_cell_angle_gamma    96.802

_symmetry_space_group_name_H-M    "P 1"
_symmetry_Int_Tables_number       1

loop_
  _symmetry_equiv_pos_as_xyz
  'x, y, z'

loop_
  _atom_site_type_symbol
  _atom_site_label
  _atom_site_symmetry_multiplicity
  _atom_site_fract_x
  _atom_site_fract_y
  _atom_site_fract_z
  _atom_site_occupancy
  _atom_site_charge
Gd  Gd1       1.0  0.06814  0.07634  0.38395  1.0000 1.9693249026
Gd  Gd2       1.0  0.93186  0.92366  0.61605  1.0000 1.9693249026
Gd  Gd3       1.0  0.45164  0.59816  0.75822  1.0000 1.9693249026
Gd  Gd4       1.0  0.54836  0.40184  0.24178  1.0000 1.9693249026
H   H1        1.0  0.13900  0.55400  0.62500  1.0000 0.0944644818
H   H2        1.0  0.86100  0.44600  0.37500  1.0000 0.0944644818
H   H3        1.0  0.76200  0.32400  0.68100  1.0000 0.1297729472
H   H4        1.0  0.23800  0.67600  0.31900  1.0000 0.1297729472
H   H5        1.0  0.02000  0.30700  0.89000  1.0000 0.1152193407
H   H6        1.0  0.98000  0.69300  0.11000  1.0000 0.1152193407
C   C1        1.0  0.93500  0.17800  0.62410  1.0000 0.6162379542
C   C2        1.0  0.06500  0.82200  0.37590  1.0000 0.6162379542
C   C3        1.0  0.95170  0.31400  0.63650  1.0000 -0.0402416401
C   C4        1.0  0.04830  0.68600  0.36350  1.0000 -0.0402416401
C   C5        1.0  0.06840  0.38460  0.62510  1.0000 -0.0823621908
C   C6        1.0  0.93160  0.61540  0.37490  1.0000 -0.0823621908
C   C7        1.0  0.19780  0.33040  0.60650  1.0000 0.6369382302
C   C8        1.0  0.80220  0.66960  0.39350  1.0000 0.6369382302
C   C9        1.0  0.06590  0.50900  0.63350  1.0000 -0.1273655472
C   C10       1.0  0.93410  0.49100  0.36650  1.0000 -0.1273655472
C   C11       1.0  0.95150  0.56390  0.65470  1.0000 -0.0302739882
C   C12       1.0  0.04850  0.43610  0.34530  1.0000 -0.0302739882
C   C13       1.0  0.94740  0.69370  0.65200  1.0000 0.5785855511
C   C14       1.0  0.05260  0.30630  0.34800  1.0000 0.5785855511
C   C15       1.0  0.83820  0.49430  0.67220  1.0000 -0.0007249042
C   C16       1.0  0.16180  0.50570  0.32780  1.0000 -0.0007249042
C   C17       1.0  0.71200  0.54430  0.70360  1.0000 0.5785855511
C   C18       1.0  0.28800  0.45570  0.29640  1.0000 0.5785855511
C   C19       1.0  0.83950  0.37090  0.66420  1.0000 -0.1353488704
C   C20       1.0  0.16050  0.62910  0.33580  1.0000 -0.1353488704
C   C21       1.0  0.22920  0.46280  0.88400  1.0000 0.5972793857
C   C22       1.0  0.77080  0.53720  0.11600  1.0000 0.5972793857
C   C23       1.0  0.11400  0.48310  0.94800  1.0000 -0.0402416401
C   C24       1.0  0.88600  0.51690  0.05200  1.0000 -0.0402416401
C   C25       1.0  0.10140  0.60220  0.01870  1.0000 -0.0209700974
C   C26       1.0  0.89860  0.39780  0.98130  1.0000 -0.0209700974
C   C27       1.0  0.21070  0.71480  0.04560  1.0000 0.5533754984
C   C28       1.0  0.78930  0.28520  0.95440  1.0000 0.5533754984
C   C29       1.0  0.01210  0.38300  0.93100  1.0000 -0.1114789238
C   C30       1.0  0.98790  0.61700  0.06900  1.0000 -0.1114789238
O   O1        1.0  0.92450  0.09490  0.52660  1.0000 -0.7456877073
O   O2        1.0  0.07550  0.90510  0.47340  1.0000 -0.7456877073
O   O3        1.0  0.92200  0.14630  0.70710  1.0000 -0.6042306265
O   O4        1.0  0.07800  0.85370  0.29290  1.0000 -0.6088131678
O   O5        1.0  0.18550  0.21210  0.56470  1.0000 -0.6397167286
O   O6        1.0  0.81450  0.78790  0.43530  1.0000 -0.6397167286
O   O7        1.0  0.30880  0.40310  0.63250  1.0000 -0.6088131678
O   O8        1.0  0.69120  0.59690  0.36750  1.0000 -0.6088131678
O   O9        1.0  0.05520  0.76290  0.65250  1.0000 -0.6397167286
O   O10       1.0  0.94480  0.23710  0.34750  1.0000 -0.6397167286
O   O11       1.0  0.83480  0.73040  0.64520  1.0000 -0.6088131678
O   O12       1.0  0.16520  0.26960  0.35480  1.0000 -0.6088131678
O   O13       1.0  0.71140  0.61190  0.80250  1.0000 -0.6088131678
O   O14       1.0  0.28860  0.38810  0.19750  1.0000 -0.6088131678
O   O15       1.0  0.60440  0.50720  0.63040  1.0000 -0.6397167286
O   O16       1.0  0.39560  0.49280  0.36960  1.0000 -0.6397167286
O   O17       1.0  0.28130  0.55400  0.85930  1.0000 -0.6876771291
O   O18       1.0  0.71870  0.44600  0.14070  1.0000 -0.6876771291
O   O19       1.0  0.26510  0.35670  0.85550  1.0000 -0.4915337255
O   O20       1.0  0.73490  0.64330  0.14450  1.0000 -0.4915337255
O   O21       1.0  0.17730  0.80630  0.02000  1.0000 -0.4815570703
O   O22       1.0  0.82270  0.19370  0.98000  1.0000 -0.4815570703
O   O23       1.0  0.32630  0.71170  0.09400  1.0000 -0.4915337255
O   O24       1.0  0.67370  0.28830  0.90600  1.0000 -0.4915337255
