# DDEC6 charges by PACMAN v1.1 (https://github.com/mtap-research/PACMAN-charge/)
data_2013[Zn][nan]3[ASR]12
_chemical_formula_sum              "Zn8 H24 C56 N8 O32"
_cell_length_a       14.2107
_cell_length_b       12.18
_cell_length_c       17.3279
_cell_angle_alpha    90
_cell_angle_beta     127.263
_cell_angle_gamma    90

_symmetry_space_group_name_H-M    "P 1"
_symmetry_Int_Tables_number       1

loop_
  _symmetry_equiv_pos_as_xyz
  'x, y, z'

loop_
  _atom_site_type_symbol
  _atom_site_label
  _atom_site_symmetry_multiplicity
  _atom_site_fract_x
  _atom_site_fract_y
  _atom_site_fract_z
  _atom_site_occupancy
  _atom_site_charge
Zn  Zn1       1.0  0.68798  0.98450  0.34209  1.0000 0.8909572332
Zn  Zn2       1.0  0.31202  0.48450  0.15791  1.0000 0.8909572332
Zn  Zn3       1.0  0.31202  0.01550  0.65791  1.0000 0.8909572332
Zn  Zn4       1.0  0.68798  0.51550  0.84209  1.0000 0.8909572332
Zn  Zn5       1.0  0.63892  0.75810  0.20091  1.0000 0.8846911598
Zn  Zn6       1.0  0.36108  0.25810  0.29909  1.0000 0.8846911598
Zn  Zn7       1.0  0.36108  0.24190  0.79909  1.0000 0.8846911598
Zn  Zn8       1.0  0.63892  0.74190  0.70091  1.0000 0.8909572332
H   H1        1.0  0.75400  0.31590  0.53340  1.0000 0.1379928498
H   H2        1.0  0.24600  0.81590  0.96660  1.0000 0.1379928498
H   H3        1.0  0.24600  0.68410  0.46660  1.0000 0.1379928498
H   H4        1.0  0.75400  0.18410  0.03340  1.0000 0.1379928498
H   H5        1.0  0.95960  0.31300  0.63260  1.0000 0.1379928498
H   H6        1.0  0.04040  0.81300  0.86740  1.0000 0.1379928498
H   H7        1.0  0.04040  0.68700  0.36740  1.0000 0.1379928498
H   H8        1.0  0.95960  0.18700  0.13260  1.0000 0.1379928498
H   H9        1.0  0.94400  0.06360  0.47880  1.0000 0.1097599773
H   H10       1.0  0.05600  0.56360  0.02120  1.0000 0.1097599773
H   H11       1.0  0.05600  0.93640  0.52120  1.0000 0.1097599773
H   H12       1.0  0.94400  0.43640  0.97880  1.0000 0.1097599773
H   H13       1.0  0.63760  0.04580  0.00340  1.0000 0.1379928498
H   H14       1.0  0.36240  0.54580  0.49660  1.0000 0.1379928498
H   H15       1.0  0.36240  0.95420  0.99660  1.0000 0.1379928498
H   H16       1.0  0.63760  0.45420  0.50340  1.0000 0.1379928498
H   H17       1.0  0.63730  0.94840  0.89260  1.0000 0.1379928498
H   H18       1.0  0.36270  0.44840  0.60740  1.0000 0.1379928498
H   H19       1.0  0.36270  0.05160  0.10740  1.0000 0.1379928498
H   H20       1.0  0.63730  0.55160  0.39260  1.0000 0.1379928498
H   H21       1.0  0.64160  0.67390  0.02180  1.0000 0.1261500775
H   H22       1.0  0.35840  0.17390  0.47820  1.0000 0.1261500775
H   H23       1.0  0.35840  0.32610  0.97820  1.0000 0.1261500775
H   H24       1.0  0.64160  0.82610  0.52180  1.0000 0.1261500775
C   C1        1.0  0.73490  0.18990  0.44980  1.0000 0.0798102452
C   C2        1.0  0.26510  0.68990  0.05020  1.0000 0.0798102452
C   C3        1.0  0.26510  0.81010  0.55020  1.0000 0.0798102452
C   C4        1.0  0.73490  0.31010  0.94980  1.0000 0.0798102452
C   C5        1.0  0.79430  0.26470  0.52350  1.0000 -0.131044002
C   C6        1.0  0.20570  0.76470  0.97650  1.0000 -0.131044002
C   C7        1.0  0.20570  0.73530  0.47650  1.0000 -0.131044002
C   C8        1.0  0.79430  0.23530  0.02350  1.0000 -0.131044002
C   C9        1.0  0.91690  0.26170  0.58300  1.0000 -0.0486937107
C   C10       1.0  0.08310  0.76170  0.91700  1.0000 -0.0486937107
C   C11       1.0  0.08310  0.73830  0.41700  1.0000 -0.0486937107
C   C12       1.0  0.91690  0.23830  0.08300  1.0000 -0.0486937107
C   C13       1.0  0.97560  0.18510  0.56990  1.0000 -0.0919854005
C   C14       1.0  0.02440  0.68510  0.93010  1.0000 -0.0919854005
C   C15       1.0  0.02440  0.81490  0.43010  1.0000 -0.0919854005
C   C16       1.0  0.97560  0.31490  0.06990  1.0000 -0.0919854005
C   C17       1.0  0.90560  0.11400  0.49130  1.0000 0.1227691381
C   C18       1.0  0.09440  0.61400  0.00870  1.0000 0.1227691381
C   C19       1.0  0.09440  0.88600  0.50870  1.0000 0.1227691381
C   C20       1.0  0.90560  0.38600  0.99130  1.0000 0.1227691381
C   C21       1.0  0.10610  0.17650  0.63340  1.0000 0.5916706084
C   C22       1.0  0.89390  0.67650  0.86660  1.0000 0.5916706084
C   C23       1.0  0.89390  0.82350  0.36660  1.0000 0.5916706084
C   C24       1.0  0.10610  0.32350  0.13340  1.0000 0.5916706084
C   C25       1.0  0.60350  0.17960  0.38310  1.0000 0.5559064059
C   C26       1.0  0.39650  0.67960  0.11690  1.0000 0.5559064059
C   C27       1.0  0.39650  0.82040  0.61690  1.0000 0.5559064059
C   C28       1.0  0.60350  0.32040  0.88310  1.0000 0.5559064059
C   C29       1.0  0.64560  0.92220  0.07970  1.0000 0.100940822
C   C30       1.0  0.35440  0.42220  0.42030  1.0000 0.100940822
C   C31       1.0  0.35440  0.07780  0.92030  1.0000 0.100940822
C   C32       1.0  0.64560  0.57780  0.57970  1.0000 0.100940822
C   C33       1.0  0.64060  0.96960  0.00750  1.0000 -0.1395622843
C   C34       1.0  0.35940  0.46960  0.49250  1.0000 -0.1395622843
C   C35       1.0  0.35940  0.03040  0.99250  1.0000 -0.1395622843
C   C36       1.0  0.64060  0.53040  0.50750  1.0000 -0.1395622843
C   C37       1.0  0.63950  0.91280  0.94120  1.0000 -0.0385980278
C   C38       1.0  0.36050  0.41280  0.55880  1.0000 -0.0385980278
C   C39       1.0  0.36050  0.08720  0.05880  1.0000 -0.0385980278
C   C40       1.0  0.63950  0.58720  0.44120  1.0000 -0.0385980278
C   C41       1.0  0.64170  0.79900  0.94680  1.0000 -0.0628514976
C   C42       1.0  0.35830  0.29900  0.55320  1.0000 -0.0628514976
C   C43       1.0  0.35830  0.20100  0.05320  1.0000 -0.0628514976
C   C44       1.0  0.64170  0.70100  0.44680  1.0000 -0.0628514976
C   C45       1.0  0.64290  0.75000  0.01900  1.0000 0.0715384393
C   C46       1.0  0.35710  0.25000  0.48100  1.0000 0.0715384393
C   C47       1.0  0.35710  0.25000  0.98100  1.0000 0.0715384393
C   C48       1.0  0.64290  0.75000  0.51900  1.0000 0.0715384393
C   C49       1.0  0.64390  0.73350  0.87570  1.0000 0.6007871687
C   C50       1.0  0.35610  0.23350  0.62430  1.0000 0.6007871687
C   C51       1.0  0.35610  0.26650  0.12430  1.0000 0.6007871687
C   C52       1.0  0.64390  0.76650  0.37570  1.0000 0.6007871687
C   C53       1.0  0.64790  0.98670  0.15690  1.0000 0.5331050961
C   C54       1.0  0.35210  0.48670  0.34310  1.0000 0.5331050961
C   C55       1.0  0.35210  0.01330  0.84310  1.0000 0.5331050961
C   C56       1.0  0.64790  0.51330  0.65690  1.0000 0.5331050961
N   N1        1.0  0.79170  0.11320  0.43480  1.0000 -0.254055062
N   N2        1.0  0.20830  0.61320  0.06520  1.0000 -0.254055062
N   N3        1.0  0.20830  0.88680  0.56520  1.0000 -0.254055062
N   N4        1.0  0.79170  0.38680  0.93480  1.0000 -0.254055062
N   N5        1.0  0.64580  0.81170  0.08710  1.0000 -0.2647594304
N   N6        1.0  0.35420  0.31170  0.41290  1.0000 -0.2647594304
N   N7        1.0  0.35420  0.18830  0.91290  1.0000 -0.2647594304
N   N8        1.0  0.64580  0.68830  0.58710  1.0000 -0.2647594304
O   O1        1.0  0.56470  0.09630  0.32780  1.0000 -0.5097090245
O   O2        1.0  0.43530  0.59630  0.17220  1.0000 -0.5097090245
O   O3        1.0  0.43530  0.90370  0.67220  1.0000 -0.5097090245
O   O4        1.0  0.56470  0.40370  0.82780  1.0000 -0.5097090245
O   O5        1.0  0.54020  0.24640  0.38370  1.0000 -0.5005802528
O   O6        1.0  0.45980  0.74640  0.11630  1.0000 -0.5005802528
O   O7        1.0  0.45980  0.75360  0.61630  1.0000 -0.5005802528
O   O8        1.0  0.54020  0.25360  0.88370  1.0000 -0.5005802528
O   O9        1.0  0.17080  0.23310  0.70570  1.0000 -0.520361373
O   O10       1.0  0.82920  0.73310  0.79430  1.0000 -0.520361373
O   O11       1.0  0.82920  0.76690  0.29430  1.0000 -0.520361373
O   O12       1.0  0.17080  0.26690  0.20570  1.0000 -0.520361373
O   O13       1.0  0.14240  0.10250  0.60620  1.0000 -0.5705603154
O   O14       1.0  0.85760  0.60250  0.89380  1.0000 -0.5705603154
O   O15       1.0  0.85760  0.89750  0.39380  1.0000 -0.5705603154
O   O16       1.0  0.14240  0.39750  0.10620  1.0000 -0.5705603154
O   O17       1.0  0.61770  0.92950  0.19940  1.0000 -0.520361373
O   O18       1.0  0.38230  0.42950  0.30060  1.0000 -0.520361373
O   O19       1.0  0.38230  0.07050  0.80060  1.0000 -0.520361373
O   O20       1.0  0.61770  0.57050  0.69940  1.0000 -0.520361373
O   O21       1.0  0.67900  0.08520  0.17700  1.0000 -0.5005802528
O   O22       1.0  0.32100  0.58520  0.32300  1.0000 -0.5005802528
O   O23       1.0  0.32100  0.91480  0.82300  1.0000 -0.5005802528
O   O24       1.0  0.67900  0.41480  0.67700  1.0000 -0.5005802528
O   O25       1.0  0.64910  0.77770  0.81380  1.0000 -0.520361373
O   O26       1.0  0.35090  0.27770  0.68620  1.0000 -0.520361373
O   O27       1.0  0.35090  0.22230  0.18620  1.0000 -0.520361373
O   O28       1.0  0.64910  0.72230  0.31380  1.0000 -0.520361373
O   O29       1.0  0.63600  0.62940  0.88160  1.0000 -0.5475609095
O   O30       1.0  0.36400  0.12940  0.61840  1.0000 -0.5475609095
O   O31       1.0  0.36400  0.37060  0.11840  1.0000 -0.5475609095
O   O32       1.0  0.63600  0.87060  0.38160  1.0000 -0.5475609095
