# DDEC6 charges by PACMAN v1.1 (https://github.com/mtap-research/PACMAN-charge/)
data_2013[Tm][nan]3[ASR]1
_chemical_formula_sum              "Tm8 H48 C96 O48"
_cell_length_a       10.8639
_cell_length_b       18.667
_cell_length_c       19.84
_cell_angle_alpha    98.035
_cell_angle_beta     96.535
_cell_angle_gamma    106.185

_symmetry_space_group_name_H-M    "P 1"
_symmetry_Int_Tables_number       1

loop_
  _symmetry_equiv_pos_as_xyz
  'x, y, z'

loop_
  _atom_site_type_symbol
  _atom_site_label
  _atom_site_symmetry_multiplicity
  _atom_site_fract_x
  _atom_site_fract_y
  _atom_site_fract_z
  _atom_site_occupancy
  _atom_site_charge
Tm  Tm1       1.0  0.82337  0.10802  0.20515  1.0000 2.0997026141
Tm  Tm2       1.0  0.17663  0.89198  0.79485  1.0000 2.0997026141
Tm  Tm3       1.0  0.82746  0.40084  0.20225  1.0000 2.1081547911
Tm  Tm4       1.0  0.17254  0.59916  0.79775  1.0000 2.1081547911
Tm  Tm5       1.0  0.76366  0.61027  0.27155  1.0000 2.0997026141
Tm  Tm6       1.0  0.23634  0.38973  0.72845  1.0000 2.0997026141
Tm  Tm7       1.0  0.75087  0.89848  0.27409  1.0000 2.1081547911
Tm  Tm8       1.0  0.24913  0.10152  0.72591  1.0000 2.1081547911
H   H1        1.0  0.44380  0.09560  0.20700  1.0000 0.1197243398
H   H2        1.0  0.55620  0.90440  0.79300  1.0000 0.1197243398
H   H3        1.0  0.23610  0.10130  0.19570  1.0000 0.1197243398
H   H4        1.0  0.76390  0.89870  0.80430  1.0000 0.1197243398
H   H5        1.0  0.13140  0.90880  0.27180  1.0000 0.1255791659
H   H6        1.0  0.86860  0.09120  0.72820  1.0000 0.1255791659
H   H7        1.0  0.33500  0.90170  0.27550  1.0000 0.1197243398
H   H8        1.0  0.66500  0.09830  0.72450  1.0000 0.1197243398
H   H9        1.0  0.94690  0.22020  0.42890  1.0000 0.1197243398
H   H10       1.0  0.05310  0.77980  0.57110  1.0000 0.1197243398
H   H11       1.0  0.02780  0.27270  0.54360  1.0000 0.1197243398
H   H12       1.0  0.97220  0.72730  0.45640  1.0000 0.1197243398
H   H13       1.0  0.95990  0.06350  0.58820  1.0000 0.1197243398
H   H14       1.0  0.04010  0.93650  0.41180  1.0000 0.1197243398
H   H15       1.0  0.88280  0.01390  0.47700  1.0000 0.1115188214
H   H16       1.0  0.11720  0.98610  0.52300  1.0000 0.1115188214
H   H17       1.0  0.56670  0.27230  0.03160  1.0000 0.1197243398
H   H18       1.0  0.43330  0.72770  0.96840  1.0000 0.1197243398
H   H19       1.0  0.43780  0.21470  0.92650  1.0000 0.1197243398
H   H20       1.0  0.56220  0.78530  0.07350  1.0000 0.1197243398
H   H21       1.0  0.38000  0.01610  0.98910  1.0000 0.1115188214
H   H22       1.0  0.62000  0.98390  0.01090  1.0000 0.1115188214
H   H23       1.0  0.52140  0.07320  0.09020  1.0000 0.1115188214
H   H24       1.0  0.47860  0.92680  0.90980  1.0000 0.1115188214
H   H25       1.0  0.16380  0.43060  0.29740  1.0000 0.1197243398
H   H26       1.0  0.83620  0.56940  0.70260  1.0000 0.1197243398
H   H27       1.0  0.38290  0.48510  0.30130  1.0000 0.1115188214
H   H28       1.0  0.61710  0.51490  0.69870  1.0000 0.1115188214
H   H29       1.0  0.41580  0.29130  0.20410  1.0000 0.1197243398
H   H30       1.0  0.58420  0.70870  0.79590  1.0000 0.1197243398
H   H31       1.0  0.19820  0.23640  0.19780  1.0000 0.1197243398
H   H32       1.0  0.80180  0.76360  0.80220  1.0000 0.1197243398
H   H33       1.0  0.16020  0.72640  0.21630  1.0000 0.1197243398
H   H34       1.0  0.83980  0.27360  0.78370  1.0000 0.1197243398
H   H35       1.0  0.37860  0.77630  0.21050  1.0000 0.1197243398
H   H36       1.0  0.62140  0.22370  0.78950  1.0000 0.1197243398
H   H37       1.0  0.42300  0.57020  0.20100  1.0000 0.1115188214
H   H38       1.0  0.57700  0.42980  0.79900  1.0000 0.1115188214
H   H39       1.0  0.20040  0.51830  0.19630  1.0000 0.1115188214
H   H40       1.0  0.79960  0.48170  0.80370  1.0000 0.1115188214
H   H41       1.0  0.56780  0.59650  0.09420  1.0000 0.1197243398
H   H42       1.0  0.43220  0.40350  0.90580  1.0000 0.1197243398
H   H43       1.0  0.57560  0.39600  0.99660  1.0000 0.1197243398
H   H44       1.0  0.42440  0.60400  0.00340  1.0000 0.1197243398
H   H45       1.0  0.90740  0.59220  0.47930  1.0000 0.1197243398
H   H46       1.0  0.09260  0.40780  0.52070  1.0000 0.1197243398
H   H47       1.0  0.00340  0.40980  0.40810  1.0000 0.1197243398
H   H48       1.0  0.99660  0.59020  0.59190  1.0000 0.1197243398
C   C1        1.0  0.55150  0.99660  0.24910  1.0000 0.6423368202
C   C2        1.0  0.44850  0.00340  0.75090  1.0000 0.6423368202
C   C3        1.0  0.41220  0.99990  0.24380  1.0000 -0.0182803099
C   C4        1.0  0.58780  0.00010  0.75620  1.0000 -0.0182803099
C   C5        1.0  0.37960  0.05760  0.21960  1.0000 -0.1085918359
C   C6        1.0  0.62040  0.94240  0.78040  1.0000 -0.1085918359
C   C7        1.0  0.25630  0.06150  0.21320  1.0000 -0.1014764857
C   C8        1.0  0.74370  0.93850  0.78680  1.0000 -0.1014764857
C   C9        1.0  0.15920  0.00510  0.23320  1.0000 -0.0312400426
C   C10       1.0  0.84080  0.99490  0.76680  1.0000 -0.0312400426
C   C11       1.0  0.02370  0.00970  0.22940  1.0000 0.6601646071
C   C12       1.0  0.97630  0.99030  0.77060  1.0000 0.6601646071
C   C13       1.0  0.19380  0.94650  0.25760  1.0000 -0.1014764857
C   C14       1.0  0.80620  0.05350  0.74240  1.0000 -0.1014764857
C   C15       1.0  0.31510  0.94300  0.26110  1.0000 -0.1014764857
C   C16       1.0  0.68490  0.05700  0.73890  1.0000 -0.1014764857
C   C17       1.0  0.86390  0.07820  0.36530  1.0000 0.6601646071
C   C18       1.0  0.13610  0.92180  0.63470  1.0000 0.6601646071
C   C19       1.0  0.90900  0.11120  0.44050  1.0000 -0.0312400426
C   C20       1.0  0.09100  0.88880  0.55950  1.0000 -0.0312400426
C   C21       1.0  0.95200  0.18890  0.46110  1.0000 -0.1014764857
C   C22       1.0  0.04800  0.81110  0.53890  1.0000 -0.1014764857
C   C23       1.0  0.00250  0.22040  0.52920  1.0000 -0.1085918359
C   C24       1.0  0.99750  0.77960  0.47080  1.0000 -0.1085918359
C   C25       1.0  0.01510  0.17290  0.57590  1.0000 -0.0312400426
C   C26       1.0  0.98490  0.82710  0.42410  1.0000 -0.0312400426
C   C27       1.0  0.08630  0.20620  0.64940  1.0000 0.6601646071
C   C28       1.0  0.91370  0.79380  0.35060  1.0000 0.6601646071
C   C29       1.0  0.96200  0.09520  0.55580  1.0000 -0.1189018637
C   C30       1.0  0.03800  0.90480  0.44420  1.0000 -0.1189018637
C   C31       1.0  0.91420  0.06640  0.49030  1.0000 -0.1014764857
C   C32       1.0  0.08580  0.93360  0.50970  1.0000 -0.1014764857
C   C33       1.0  0.66180  0.21600  0.13460  1.0000 0.6601646071
C   C34       1.0  0.33820  0.78400  0.86540  1.0000 0.6601646071
C   C35       1.0  0.56420  0.17900  0.07100  1.0000 -0.0312400426
C   C36       1.0  0.43580  0.82100  0.92900  1.0000 -0.0312400426
C   C37       1.0  0.53210  0.21970  0.02220  1.0000 -0.1085918359
C   C38       1.0  0.46790  0.78030  0.97780  1.0000 -0.1085918359
C   C39       1.0  0.45080  0.18600  0.95980  1.0000 -0.0850333323
C   C40       1.0  0.54920  0.81400  0.04020  1.0000 -0.0847451662
C   C41       1.0  0.39100  0.11070  0.94880  1.0000 -0.0585194056
C   C42       1.0  0.60900  0.88930  0.05120  1.0000 -0.0585194056
C   C43       1.0  0.31060  0.07040  0.88380  1.0000 0.6423368202
C   C44       1.0  0.68940  0.92960  0.11620  1.0000 0.6423368202
C   C45       1.0  0.41920  0.06830  0.99750  1.0000 -0.1014764857
C   C46       1.0  0.58080  0.93170  0.00250  1.0000 -0.1014764857
C   C47       1.0  0.50450  0.10250  0.05800  1.0000 -0.1288531882
C   C48       1.0  0.49550  0.89750  0.94200  1.0000 -0.1288531882
C   C49       1.0  0.01430  0.29100  0.24160  1.0000 0.6601646071
C   C50       1.0  0.98570  0.70900  0.75840  1.0000 0.6601646071
C   C51       1.0  0.15700  0.32770  0.24700  1.0000 -0.0405543449
C   C52       1.0  0.84300  0.67230  0.75300  1.0000 -0.0405543449
C   C53       1.0  0.21350  0.40240  0.27800  1.0000 -0.1189018637
C   C54       1.0  0.78650  0.59760  0.72200  1.0000 -0.1189018637
C   C55       1.0  0.34440  0.43480  0.28000  1.0000 -0.1085918359
C   C56       1.0  0.65560  0.56520  0.72000  1.0000 -0.1085918359
C   C57       1.0  0.42020  0.39440  0.25090  1.0000 -0.0182803099
C   C58       1.0  0.57980  0.60560  0.74910  1.0000 -0.0182803099
C   C59       1.0  0.56610  0.43710  0.25600  1.0000 0.6423368202
C   C60       1.0  0.43390  0.56290  0.74400  1.0000 0.6473837073
C   C61       1.0  0.36490  0.31960  0.22180  1.0000 -0.1014764857
C   C62       1.0  0.63510  0.68040  0.77820  1.0000 -0.1014764857
C   C63       1.0  0.23550  0.28690  0.21890  1.0000 -0.1085918359
C   C64       1.0  0.76450  0.71310  0.78110  1.0000 -0.1085918359
C   C65       1.0  0.01930  0.58360  0.21700  1.0000 0.6473837073
C   C66       1.0  0.98070  0.41640  0.78300  1.0000 0.6473837073
C   C67       1.0  0.15680  0.61510  0.20650  1.0000 -0.0312400426
C   C68       1.0  0.84320  0.38490  0.79350  1.0000 -0.0312400426
C   C69       1.0  0.21230  0.69460  0.21200  1.0000 -0.1014764857
C   C70       1.0  0.78770  0.30540  0.78800  1.0000 -0.1014764857
C   C71       1.0  0.34400  0.72490  0.21110  1.0000 -0.1085918359
C   C72       1.0  0.65600  0.27510  0.78890  1.0000 -0.1085918359
C   C73       1.0  0.42310  0.67920  0.21100  1.0000 -0.0405543449
C   C74       1.0  0.57690  0.32080  0.78900  1.0000 -0.0405543449
C   C75       1.0  0.56810  0.71260  0.22220  1.0000 0.6473837073
C   C76       1.0  0.43190  0.28740  0.77780  1.0000 0.6473837073
C   C77       1.0  0.37010  0.60170  0.20400  1.0000 -0.1189018637
C   C78       1.0  0.62990  0.39830  0.79600  1.0000 -0.1189018637
C   C79       1.0  0.23580  0.57060  0.20150  1.0000 -0.1014764857
C   C80       1.0  0.76420  0.42940  0.79850  1.0000 -0.1014764857
C   C81       1.0  0.68440  0.49100  0.11450  1.0000 0.6423368202
C   C82       1.0  0.31560  0.50900  0.88550  1.0000 0.6423368202
C   C83       1.0  0.58990  0.49520  0.05440  1.0000 -0.0182803099
C   C84       1.0  0.41010  0.50480  0.94560  1.0000 -0.0182803099
C   C85       1.0  0.54090  0.55760  0.05600  1.0000 -0.1085918359
C   C86       1.0  0.45910  0.44240  0.94400  1.0000 -0.1085918359
C   C87       1.0  0.54600  0.43830  0.99820  1.0000 -0.1085918359
C   C88       1.0  0.45400  0.56170  0.00180  1.0000 -0.1085918359
C   C89       1.0  0.88990  0.50370  0.36130  1.0000 0.6601646071
C   C90       1.0  0.11010  0.49630  0.63870  1.0000 0.6601646071
C   C91       1.0  0.94630  0.50170  0.43430  1.0000 -0.0182803099
C   C92       1.0  0.05370  0.49830  0.56570  1.0000 -0.0182803099
C   C93       1.0  0.94480  0.55440  0.48750  1.0000 -0.1014764857
C   C94       1.0  0.05520  0.44560  0.51250  1.0000 -0.1014764857
C   C95       1.0  0.00140  0.44620  0.44470  1.0000 -0.1085918359
C   C96       1.0  0.99860  0.55380  0.55530  1.0000 -0.1085918359
O   O1        1.0  0.63190  0.05250  0.23940  1.0000 -0.6434498851
O   O2        1.0  0.36810  0.94750  0.76060  1.0000 -0.6434498851
O   O3        1.0  0.57000  0.93750  0.26220  1.0000 -0.6593647177
O   O4        1.0  0.43000  0.06250  0.73780  1.0000 -0.6593647177
O   O5        1.0  0.99920  0.06540  0.20890  1.0000 -0.6811736606
O   O6        1.0  0.00080  0.93460  0.79110  1.0000 -0.6811736606
O   O7        1.0  0.94160  0.95700  0.24620  1.0000 -0.6811736606
O   O8        1.0  0.05840  0.04300  0.75380  1.0000 -0.6811736606
O   O9        1.0  0.87150  0.12130  0.32160  1.0000 -0.6713322525
O   O10       1.0  0.12850  0.87870  0.67840  1.0000 -0.6713322525
O   O11       1.0  0.81680  0.00720  0.34910  1.0000 -0.7308330362
O   O12       1.0  0.18320  0.99280  0.65090  1.0000 -0.7308330362
O   O13       1.0  0.10870  0.27560  0.66700  1.0000 -0.6713322525
O   O14       1.0  0.89130  0.72440  0.33300  1.0000 -0.6713322525
O   O15       1.0  0.11650  0.16190  0.68530  1.0000 -0.7091553931
O   O16       1.0  0.88350  0.83810  0.31470  1.0000 -0.7091553931
O   O17       1.0  0.69360  0.17510  0.17170  1.0000 -0.6593647177
O   O18       1.0  0.30640  0.82490  0.82830  1.0000 -0.6593647177
O   O19       1.0  0.70310  0.28700  0.14660  1.0000 -0.6811736606
O   O20       1.0  0.29690  0.71300  0.85340  1.0000 -0.6811736606
O   O21       1.0  0.28610  0.11030  0.84100  1.0000 -0.6593647177
O   O22       1.0  0.71390  0.88970  0.15900  1.0000 -0.6593647177
O   O23       1.0  0.26600  0.00050  0.87250  1.0000 -0.6811736606
O   O24       1.0  0.73400  0.99950  0.12750  1.0000 -0.6811736606
O   O25       1.0  0.97720  0.22110  0.23510  1.0000 -0.6593647177
O   O26       1.0  0.02280  0.77890  0.76490  1.0000 -0.6593647177
O   O27       1.0  0.94280  0.33290  0.24730  1.0000 -0.6890704061
O   O28       1.0  0.05720  0.66710  0.75270  1.0000 -0.6954846208
O   O29       1.0  0.60170  0.50540  0.27590  1.0000 -0.6713322525
O   O30       1.0  0.39830  0.49460  0.72410  1.0000 -0.6713322525
O   O31       1.0  0.62970  0.39610  0.23140  1.0000 -0.6713322525
O   O32       1.0  0.37030  0.60390  0.76860  1.0000 -0.6713322525
O   O33       1.0  0.97380  0.51520  0.20900  1.0000 -0.6811736606
O   O34       1.0  0.02620  0.48480  0.79100  1.0000 -0.6811736606
O   O35       1.0  0.95830  0.62990  0.23150  1.0000 -0.6434498851
O   O36       1.0  0.04170  0.37010  0.76850  1.0000 -0.6459539359
O   O37       1.0  0.61120  0.78050  0.23140  1.0000 -0.62263642
O   O38       1.0  0.38880  0.21950  0.76860  1.0000 -0.62263642
O   O39       1.0  0.63630  0.66920  0.22040  1.0000 -0.6811736606
O   O40       1.0  0.36370  0.33080  0.77960  1.0000 -0.6811736606
O   O41       1.0  0.72920  0.43630  0.10900  1.0000 -0.6593647177
O   O42       1.0  0.27080  0.56370  0.89100  1.0000 -0.6593647177
O   O43       1.0  0.71420  0.54310  0.16330  1.0000 -0.6593647177
O   O44       1.0  0.28580  0.45690  0.83670  1.0000 -0.6593647177
O   O45       1.0  0.87260  0.44540  0.31690  1.0000 -0.6811736606
O   O46       1.0  0.12740  0.55460  0.68310  1.0000 -0.6811736606
O   O47       1.0  0.86910  0.56450  0.35190  1.0000 -0.6890704061
O   O48       1.0  0.13090  0.43550  0.64810  1.0000 -0.6890704061
