# DDEC6 charges by PACMAN v1.1 (https://github.com/mtap-research/PACMAN-charge/)
data_2013[Zn][ths]3[ASR]3
_chemical_formula_sum              "Zn12 H96 C144 I24 N48"
_cell_length_a       18.5814
_cell_length_b       18.5814
_cell_length_c       30.7
_cell_angle_alpha    81.0121
_cell_angle_beta     98.9879
_cell_angle_gamma    133.174

_symmetry_space_group_name_H-M    "P 1"
_symmetry_Int_Tables_number       1

loop_
  _symmetry_equiv_pos_as_xyz
  'x, y, z'

loop_
  _atom_site_type_symbol
  _atom_site_label
  _atom_site_symmetry_multiplicity
  _atom_site_fract_x
  _atom_site_fract_y
  _atom_site_fract_z
  _atom_site_occupancy
  _atom_site_charge
Zn  Zn1       1.0  0.97538  0.23426  0.94154  1.0000 0.4621421579
Zn  Zn2       1.0  0.76574  0.02462  0.44154  1.0000 0.4621421579
Zn  Zn3       1.0  0.02887  0.68609  0.76822  1.0000 0.444777194
Zn  Zn4       1.0  0.31391  0.97113  0.26822  1.0000 0.444777194
Zn  Zn5       1.0  0.70567  0.54901  0.59778  1.0000 0.4700216684
Zn  Zn6       1.0  0.45099  0.29433  0.09778  1.0000 0.4700216684
Zn  Zn7       1.0  0.23426  0.97538  0.55846  1.0000 0.4621421579
Zn  Zn8       1.0  0.02462  0.76574  0.05846  1.0000 0.4621421579
Zn  Zn9       1.0  0.68609  0.02887  0.73178  1.0000 0.444777194
Zn  Zn10      1.0  0.97113  0.31391  0.23178  1.0000 0.4451871846
Zn  Zn11      1.0  0.54901  0.70567  0.90222  1.0000 0.4700216684
Zn  Zn12      1.0  0.29433  0.45099  0.40222  1.0000 0.4700216684
H   H1        1.0  0.95480  0.32720  0.85600  1.0000 0.102770197
H   H2        1.0  0.67280  0.04520  0.35600  1.0000 0.102770197
H   H3        1.0  0.83410  0.30790  0.80890  1.0000 0.1289488232
H   H4        1.0  0.69210  0.16590  0.30890  1.0000 0.1289488232
H   H5        1.0  0.62880  0.05580  0.87990  1.0000 0.1389182774
H   H6        1.0  0.94420  0.37120  0.37990  1.0000 0.1389182774
H   H7        1.0  0.75810  0.08510  0.92640  1.0000 0.102770197
H   H8        1.0  0.91490  0.24190  0.42640  1.0000 0.102770197
H   H9        1.0  0.53430  0.36470  0.63810  1.0000 0.102770197
H   H10       1.0  0.63530  0.46570  0.13810  1.0000 0.102770197
H   H11       1.0  0.48620  0.24080  0.69440  1.0000 0.1289488232
H   H12       1.0  0.75920  0.51380  0.19440  1.0000 0.1289488232
H   H13       1.0  0.77660  0.38780  0.72180  1.0000 0.1289488232
H   H14       1.0  0.61220  0.22340  0.22180  1.0000 0.1289488232
H   H15       1.0  0.81510  0.50290  0.66430  1.0000 0.1087931741
H   H16       1.0  0.49710  0.18490  0.16430  1.0000 0.1087931741
H   H17       1.0  0.21890  0.75870  0.82240  1.0000 0.1087931741
H   H18       1.0  0.24130  0.78110  0.32240  1.0000 0.1087931741
H   H19       1.0  0.38400  0.90280  0.83110  1.0000 0.1389182774
H   H20       1.0  0.09720  0.61600  0.33110  1.0000 0.1389182774
H   H21       1.0  0.32940  0.03760  0.73540  1.0000 0.1389182774
H   H22       1.0  0.96240  0.67060  0.23540  1.0000 0.1389182774
H   H23       1.0  0.16790  0.88990  0.72860  1.0000 0.102770197
H   H24       1.0  0.11010  0.83210  0.22860  1.0000 0.102770197
H   H25       1.0  0.65200  0.42500  0.52730  1.0000 0.1087931741
H   H26       1.0  0.57500  0.34800  0.02730  1.0000 0.1087931741
H   H27       1.0  0.51820  0.30560  0.48210  1.0000 0.1389182774
H   H28       1.0  0.69440  0.48180  0.98210  1.0000 0.1389182774
H   H29       1.0  0.35830  0.34690  0.52650  1.0000 0.1389182774
H   H30       1.0  0.65310  0.64170  0.02650  1.0000 0.1389182774
H   H31       1.0  0.49770  0.46930  0.56920  1.0000 0.102770197
H   H32       1.0  0.53070  0.50230  0.06920  1.0000 0.102770197
H   H33       1.0  0.15630  0.91610  0.31990  1.0000 0.102770197
H   H34       1.0  0.08390  0.84370  0.81990  1.0000 0.102770197
H   H35       1.0  0.13700  0.97360  0.37380  1.0000 0.1289488232
H   H36       1.0  0.02640  0.86300  0.87380  1.0000 0.1289488232
H   H37       1.0  0.43010  0.19610  0.38440  1.0000 0.1389182774
H   H38       1.0  0.80390  0.56990  0.88440  1.0000 0.1389182774
H   H39       1.0  0.44300  0.13540  0.33000  1.0000 0.1087931741
H   H40       1.0  0.86460  0.55700  0.83000  1.0000 0.1087931741
H   H41       1.0  0.94270  0.10290  0.50930  1.0000 0.102770197
H   H42       1.0  0.89710  0.05730  0.00930  1.0000 0.102770197
H   H43       1.0  0.09540  0.14740  0.51100  1.0000 0.1389182774
H   H44       1.0  0.85260  0.90460  0.01100  1.0000 0.1389182774
H   H45       1.0  0.03790  0.08250  0.38440  1.0000 0.1389182774
H   H46       1.0  0.91750  0.96210  0.88440  1.0000 0.1389182774
H   H47       1.0  0.88640  0.03340  0.38510  1.0000 0.1087931741
H   H48       1.0  0.96660  0.11360  0.88510  1.0000 0.1087931741
H   H49       1.0  0.32720  0.95480  0.64400  1.0000 0.102770197
H   H50       1.0  0.04520  0.67280  0.14400  1.0000 0.102770197
H   H51       1.0  0.30790  0.83410  0.69110  1.0000 0.1289488232
H   H52       1.0  0.16590  0.69210  0.19110  1.0000 0.1289488232
H   H53       1.0  0.05580  0.62880  0.62010  1.0000 0.1389182774
H   H54       1.0  0.37120  0.94420  0.12010  1.0000 0.1389182774
H   H55       1.0  0.08510  0.75810  0.57360  1.0000 0.102770197
H   H56       1.0  0.24190  0.91490  0.07360  1.0000 0.102770197
H   H57       1.0  0.36470  0.53430  0.86190  1.0000 0.102770197
H   H58       1.0  0.46570  0.63530  0.36190  1.0000 0.102770197
H   H59       1.0  0.24080  0.48620  0.80560  1.0000 0.1289488232
H   H60       1.0  0.51380  0.75920  0.30560  1.0000 0.1289488232
H   H61       1.0  0.38780  0.77660  0.77820  1.0000 0.1289488232
H   H62       1.0  0.22340  0.61220  0.27820  1.0000 0.1289488232
H   H63       1.0  0.50290  0.81510  0.83570  1.0000 0.1087931741
H   H64       1.0  0.18490  0.49710  0.33570  1.0000 0.1087931741
H   H65       1.0  0.75870  0.21890  0.67760  1.0000 0.1087931741
H   H66       1.0  0.78110  0.24130  0.17760  1.0000 0.1087931741
H   H67       1.0  0.90280  0.38400  0.66890  1.0000 0.1389182774
H   H68       1.0  0.61600  0.09720  0.16890  1.0000 0.1389182774
H   H69       1.0  0.03760  0.32940  0.76460  1.0000 0.1389182774
H   H70       1.0  0.67060  0.96240  0.26460  1.0000 0.1389182774
H   H71       1.0  0.88990  0.16790  0.77140  1.0000 0.102770197
H   H72       1.0  0.83210  0.11010  0.27140  1.0000 0.102770197
H   H73       1.0  0.42500  0.65200  0.97270  1.0000 0.1087931741
H   H74       1.0  0.34800  0.57500  0.47270  1.0000 0.1087931741
H   H75       1.0  0.30560  0.51820  0.01790  1.0000 0.1389182774
H   H76       1.0  0.48180  0.69440  0.51790  1.0000 0.1389182774
H   H77       1.0  0.34690  0.35830  0.97350  1.0000 0.1389182774
H   H78       1.0  0.64170  0.65310  0.47350  1.0000 0.1389182774
H   H79       1.0  0.46930  0.49770  0.93080  1.0000 0.102770197
H   H80       1.0  0.50230  0.53070  0.43080  1.0000 0.102770197
H   H81       1.0  0.91610  0.15630  0.18010  1.0000 0.102770197
H   H82       1.0  0.84370  0.08390  0.68010  1.0000 0.102770197
H   H83       1.0  0.97360  0.13700  0.12620  1.0000 0.1289488232
H   H84       1.0  0.86300  0.02640  0.62620  1.0000 0.1289488232
H   H85       1.0  0.19610  0.43010  0.11560  1.0000 0.1389182774
H   H86       1.0  0.56990  0.80390  0.61560  1.0000 0.1389182774
H   H87       1.0  0.13540  0.44300  0.17000  1.0000 0.1087931741
H   H88       1.0  0.55700  0.86460  0.67000  1.0000 0.1087931741
H   H89       1.0  0.10290  0.94270  0.99070  1.0000 0.102770197
H   H90       1.0  0.05730  0.89710  0.49070  1.0000 0.102770197
H   H91       1.0  0.14740  0.09540  0.98900  1.0000 0.1389182774
H   H92       1.0  0.90460  0.85260  0.48900  1.0000 0.1389182774
H   H93       1.0  0.08250  0.03790  0.11560  1.0000 0.1389182774
H   H94       1.0  0.96210  0.91750  0.61560  1.0000 0.1389182774
H   H95       1.0  0.03340  0.88640  0.11490  1.0000 0.1087931741
H   H96       1.0  0.11360  0.96660  0.61490  1.0000 0.1087931741
C   C1        1.0  0.88740  0.27200  0.86130  1.0000 0.0618932746
C   C2        1.0  0.72800  0.11260  0.36130  1.0000 0.0618932746
C   C3        1.0  0.81610  0.26050  0.83290  1.0000 -0.1394469916
C   C4        1.0  0.73950  0.18390  0.33290  1.0000 -0.1394469916
C   C5        1.0  0.71930  0.18030  0.83920  1.0000 0.052060654
C   C6        1.0  0.81970  0.28070  0.33920  1.0000 0.052060654
C   C7        1.0  0.69570  0.11290  0.87450  1.0000 -0.1394469916
C   C8        1.0  0.88710  0.30430  0.37450  1.0000 -0.1394469916
C   C9        1.0  0.77370  0.13150  0.90220  1.0000 0.102770197
C   C10       1.0  0.86850  0.22630  0.40220  1.0000 0.102770197
C   C11       1.0  0.64010  0.16590  0.80860  1.0000 0.3783448546
C   C12       1.0  0.83410  0.35990  0.30860  1.0000 0.3783448546
C   C13       1.0  0.59900  0.22660  0.75080  1.0000 0.3783448546
C   C14       1.0  0.77340  0.40100  0.25080  1.0000 0.3783448546
C   C15       1.0  0.48090  0.07830  0.78510  1.0000 0.355535451
C   C16       1.0  0.92170  0.51910  0.28510  1.0000 0.355535451
C   C17       1.0  0.58390  0.36810  0.65490  1.0000 0.102770197
C   C18       1.0  0.63190  0.41610  0.15490  1.0000 0.102770197
C   C19       1.0  0.55400  0.29420  0.68910  1.0000 -0.1485243788
C   C20       1.0  0.70580  0.44600  0.18910  1.0000 -0.1485243788
C   C21       1.0  0.62740  0.30260  0.71450  1.0000 0.0618932746
C   C22       1.0  0.69740  0.37260  0.21450  1.0000 0.0618932746
C   C23       1.0  0.72540  0.38120  0.70470  1.0000 -0.1485243788
C   C24       1.0  0.61880  0.27460  0.20470  1.0000 -0.1485243788
C   C25       1.0  0.74780  0.44900  0.67050  1.0000 0.0705633727
C   C26       1.0  0.55100  0.25220  0.17050  1.0000 0.0705633727
C   C27       1.0  0.24170  0.81650  0.80430  1.0000 0.0869887877
C   C28       1.0  0.18350  0.75830  0.30430  1.0000 0.0869887877
C   C29       1.0  0.34090  0.90230  0.80970  1.0000 -0.162055422
C   C30       1.0  0.09770  0.65910  0.30970  1.0000 -0.162055422
C   C31       1.0  0.37560  0.98580  0.78390  1.0000 0.0705633727
C   C32       1.0  0.01420  0.62440  0.28390  1.0000 0.0705633727
C   C33       1.0  0.30860  0.98080  0.75360  1.0000 -0.1485243788
C   C34       1.0  0.01920  0.69140  0.25360  1.0000 -0.1485243788
C   C35       1.0  0.21250  0.89290  0.75010  1.0000 0.0618932746
C   C36       1.0  0.10710  0.78750  0.25010  1.0000 0.0618932746
C   C37       1.0  0.59140  0.40920  0.52710  1.0000 0.0705633727
C   C38       1.0  0.59080  0.40860  0.02710  1.0000 0.0705633727
C   C39       1.0  0.51220  0.33840  0.49980  1.0000 -0.1394469916
C   C40       1.0  0.66160  0.48780  0.99980  1.0000 -0.1394469916
C   C41       1.0  0.42600  0.31660  0.49870  1.0000 0.0705633727
C   C42       1.0  0.68340  0.57400  0.99870  1.0000 0.0618932746
C   C43       1.0  0.41900  0.36320  0.52560  1.0000 -0.1485243788
C   C44       1.0  0.63680  0.58100  0.02560  1.0000 -0.1485243788
C   C45       1.0  0.50190  0.43450  0.55160  1.0000 0.0766638385
C   C46       1.0  0.56550  0.49810  0.05160  1.0000 0.0766638385
C   C47       1.0  0.33780  0.23840  0.47090  1.0000 0.3699474517
C   C48       1.0  0.76160  0.66220  0.97090  1.0000 0.3699474517
C   C49       1.0  0.27280  0.13600  0.41670  1.0000 0.3699474517
C   C50       1.0  0.86400  0.72720  0.91670  1.0000 0.3699474517
C   C51       1.0  0.17810  0.14450  0.44840  1.0000 0.3783448546
C   C52       1.0  0.85550  0.82190  0.94840  1.0000 0.3783448546
C   C53       1.0  0.21340  0.97540  0.33280  1.0000 0.0618932746
C   C54       1.0  0.02460  0.78660  0.83280  1.0000 0.0618932746
C   C55       1.0  0.20110  0.00890  0.36470  1.0000 -0.1394469916
C   C56       1.0  0.99110  0.79890  0.86470  1.0000 -0.1394469916
C   C57       1.0  0.28330  0.09510  0.38370  1.0000 0.0618932746
C   C58       1.0  0.90490  0.71670  0.88370  1.0000 0.0705633727
C   C59       1.0  0.37170  0.13870  0.37090  1.0000 -0.1331957545
C   C60       1.0  0.86130  0.62830  0.87090  1.0000 -0.1331957545
C   C61       1.0  0.37900  0.10160  0.33860  1.0000 0.0705633727
C   C62       1.0  0.89840  0.62100  0.83860  1.0000 0.0766638385
C   C63       1.0  0.96230  0.09810  0.48400  1.0000 0.0766638385
C   C64       1.0  0.90190  0.03770  0.98400  1.0000 0.0766638385
C   C65       1.0  0.05260  0.12380  0.48490  1.0000 -0.1394469916
C   C66       1.0  0.87620  0.94740  0.98490  1.0000 -0.1394469916
C   C67       1.0  0.08020  0.11560  0.44950  1.0000 0.0618932746
C   C68       1.0  0.88440  0.91980  0.94950  1.0000 0.0618932746
C   C69       1.0  0.01840  0.08480  0.41060  1.0000 -0.1394469916
C   C70       1.0  0.91520  0.98160  0.91060  1.0000 -0.1394469916
C   C71       1.0  0.93020  0.05840  0.41090  1.0000 0.0869887877
C   C72       1.0  0.94160  0.06980  0.91090  1.0000 0.0869887877
C   C73       1.0  0.27200  0.88740  0.63870  1.0000 0.0618932746
C   C74       1.0  0.11260  0.72800  0.13870  1.0000 0.0618932746
C   C75       1.0  0.26050  0.81610  0.66710  1.0000 -0.1394469916
C   C76       1.0  0.18390  0.73950  0.16710  1.0000 -0.1394469916
C   C77       1.0  0.18030  0.71930  0.66080  1.0000 0.052060654
C   C78       1.0  0.28070  0.81970  0.16080  1.0000 0.052060654
C   C79       1.0  0.11290  0.69570  0.62550  1.0000 -0.1394469916
C   C80       1.0  0.30430  0.88710  0.12550  1.0000 -0.1394469916
C   C81       1.0  0.13150  0.77370  0.59780  1.0000 0.102770197
C   C82       1.0  0.22630  0.86850  0.09780  1.0000 0.102770197
C   C83       1.0  0.16590  0.64010  0.69140  1.0000 0.3783448546
C   C84       1.0  0.35990  0.83410  0.19140  1.0000 0.3783448546
C   C85       1.0  0.22660  0.59900  0.74920  1.0000 0.3783448546
C   C86       1.0  0.40100  0.77340  0.24920  1.0000 0.3783448546
C   C87       1.0  0.07830  0.48090  0.71490  1.0000 0.355535451
C   C88       1.0  0.51910  0.92170  0.21490  1.0000 0.355535451
C   C89       1.0  0.36810  0.58390  0.84510  1.0000 0.102770197
C   C90       1.0  0.41610  0.63190  0.34510  1.0000 0.102770197
C   C91       1.0  0.29420  0.55400  0.81090  1.0000 -0.1485243788
C   C92       1.0  0.44600  0.70580  0.31090  1.0000 -0.1485243788
C   C93       1.0  0.30260  0.62740  0.78550  1.0000 0.0618932746
C   C94       1.0  0.37260  0.69740  0.28550  1.0000 0.0618932746
C   C95       1.0  0.38120  0.72540  0.79530  1.0000 -0.1485243788
C   C96       1.0  0.27460  0.61880  0.29530  1.0000 -0.1485243788
C   C97       1.0  0.44900  0.74780  0.82950  1.0000 0.0705633727
C   C98       1.0  0.25220  0.55100  0.32950  1.0000 0.0705633727
C   C99       1.0  0.81650  0.24170  0.69570  1.0000 0.0869887877
C   C100      1.0  0.75830  0.18350  0.19570  1.0000 0.0869887877
C   C101      1.0  0.90230  0.34090  0.69030  1.0000 -0.162055422
C   C102      1.0  0.65910  0.09770  0.19030  1.0000 -0.162055422
C   C103      1.0  0.98580  0.37560  0.71610  1.0000 0.0705633727
C   C104      1.0  0.62440  0.01420  0.21610  1.0000 0.0705633727
C   C105      1.0  0.98080  0.30860  0.74640  1.0000 -0.1485243788
C   C106      1.0  0.69140  0.01920  0.24640  1.0000 -0.1485243788
C   C107      1.0  0.89290  0.21250  0.74990  1.0000 0.0618932746
C   C108      1.0  0.78750  0.10710  0.24990  1.0000 0.0618932746
C   C109      1.0  0.40920  0.59140  0.97290  1.0000 0.0705633727
C   C110      1.0  0.40860  0.59080  0.47290  1.0000 0.0705633727
C   C111      1.0  0.33840  0.51220  0.00020  1.0000 -0.1394469916
C   C112      1.0  0.48780  0.66160  0.50020  1.0000 -0.1394469916
C   C113      1.0  0.31660  0.42600  0.00130  1.0000 0.0705633727
C   C114      1.0  0.57400  0.68340  0.50130  1.0000 0.0618932746
C   C115      1.0  0.36320  0.41900  0.97440  1.0000 -0.1485243788
C   C116      1.0  0.58100  0.63680  0.47440  1.0000 -0.1485243788
C   C117      1.0  0.43450  0.50190  0.94840  1.0000 0.0766638385
C   C118      1.0  0.49810  0.56550  0.44840  1.0000 0.0766638385
C   C119      1.0  0.23840  0.33780  0.02910  1.0000 0.3699474517
C   C120      1.0  0.66220  0.76160  0.52910  1.0000 0.3699474517
C   C121      1.0  0.13600  0.27280  0.08330  1.0000 0.3699474517
C   C122      1.0  0.72720  0.86400  0.58330  1.0000 0.3699474517
C   C123      1.0  0.14450  0.17810  0.05160  1.0000 0.3783448546
C   C124      1.0  0.82190  0.85550  0.55160  1.0000 0.3783448546
C   C125      1.0  0.97540  0.21340  0.16720  1.0000 0.0618932746
C   C126      1.0  0.78660  0.02460  0.66720  1.0000 0.0618932746
C   C127      1.0  0.00890  0.20110  0.13530  1.0000 -0.1394469916
C   C128      1.0  0.79890  0.99110  0.63530  1.0000 -0.1394469916
C   C129      1.0  0.09510  0.28330  0.11630  1.0000 0.0618932746
C   C130      1.0  0.71670  0.90490  0.61630  1.0000 0.0705633727
C   C131      1.0  0.13870  0.37170  0.12910  1.0000 -0.1331957545
C   C132      1.0  0.62830  0.86130  0.62910  1.0000 -0.1331957545
C   C133      1.0  0.10160  0.37900  0.16140  1.0000 0.0705633727
C   C134      1.0  0.62100  0.89840  0.66140  1.0000 0.0705633727
C   C135      1.0  0.09810  0.96230  0.01600  1.0000 0.0766638385
C   C136      1.0  0.03770  0.90190  0.51600  1.0000 0.0766638385
C   C137      1.0  0.12380  0.05260  0.01510  1.0000 -0.1394469916
C   C138      1.0  0.94740  0.87620  0.51510  1.0000 -0.1394469916
C   C139      1.0  0.11560  0.08020  0.05050  1.0000 0.0618932746
C   C140      1.0  0.91980  0.88440  0.55050  1.0000 0.0618932746
C   C141      1.0  0.08480  0.01840  0.08940  1.0000 -0.1394469916
C   C142      1.0  0.98160  0.91520  0.58940  1.0000 -0.1394469916
C   C143      1.0  0.05840  0.93020  0.08910  1.0000 0.0869887877
C   C144      1.0  0.06980  0.94160  0.58910  1.0000 0.0869887877
I   I1        1.0  0.13436  0.35214  0.90138  1.0000 -0.4651426937
I   I2        1.0  0.64786  0.86564  0.40138  1.0000 -0.4646250572
I   I3        1.0  0.94620  0.25542  0.01363  1.0000 -0.4286350222
I   I4        1.0  0.74458  0.05380  0.51363  1.0000 -0.4286350222
I   I5        1.0  0.00154  0.53288  0.79132  1.0000 -0.4286350222
I   I6        1.0  0.46712  0.99846  0.29132  1.0000 -0.4286350222
I   I7        1.0  0.96378  0.71520  0.69473  1.0000 -0.4286350222
I   I8        1.0  0.28480  0.03622  0.19473  1.0000 -0.4286350222
I   I9        1.0  0.85858  0.62448  0.56057  1.0000 -0.4437524643
I   I10       1.0  0.37552  0.14142  0.06057  1.0000 -0.4437524643
I   I11       1.0  0.66868  0.63362  0.63433  1.0000 -0.4437524643
I   I12       1.0  0.36638  0.33132  0.13433  1.0000 -0.4437524643
I   I13       1.0  0.35214  0.13436  0.59862  1.0000 -0.4651426937
I   I14       1.0  0.86564  0.64786  0.09862  1.0000 -0.4646250572
I   I15       1.0  0.25542  0.94620  0.48637  1.0000 -0.4286350222
I   I16       1.0  0.05380  0.74458  0.98637  1.0000 -0.4286350222
I   I17       1.0  0.53288  0.00154  0.70868  1.0000 -0.4286350222
I   I18       1.0  0.99846  0.46712  0.20868  1.0000 -0.4286350222
I   I19       1.0  0.71520  0.96378  0.80527  1.0000 -0.4248915281
I   I20       1.0  0.03622  0.28480  0.30527  1.0000 -0.4286350222
I   I21       1.0  0.62448  0.85858  0.93943  1.0000 -0.4437524643
I   I22       1.0  0.14142  0.37552  0.43943  1.0000 -0.4437524643
I   I23       1.0  0.63362  0.66868  0.86567  1.0000 -0.4437524643
I   I24       1.0  0.33132  0.36638  0.36567  1.0000 -0.4437524643
N   N1        1.0  0.86610  0.20890  0.89660  1.0000 -0.1803821172
N   N2        1.0  0.79110  0.13390  0.39660  1.0000 -0.1803821172
N   N3        1.0  0.67210  0.23770  0.77590  1.0000 -0.3974975016
N   N4        1.0  0.76230  0.32790  0.27590  1.0000 -0.3974975016
N   N5        1.0  0.50340  0.15000  0.75380  1.0000 -0.3927338587
N   N6        1.0  0.85000  0.49660  0.25380  1.0000 -0.3927338587
N   N7        1.0  0.54600  0.08460  0.81460  1.0000 -0.3927338587
N   N8        1.0  0.91540  0.45400  0.31460  1.0000 -0.3927338587
N   N9        1.0  0.67590  0.44110  0.64480  1.0000 -0.1803821172
N   N10       1.0  0.55890  0.32410  0.14480  1.0000 -0.1803821172
N   N11       1.0  0.17830  0.81110  0.77570  1.0000 -0.1803821172
N   N12       1.0  0.18890  0.82170  0.27570  1.0000 -0.1803821172
N   N13       1.0  0.58610  0.45630  0.55300  1.0000 -0.1876235646
N   N14       1.0  0.54370  0.41390  0.05300  1.0000 -0.1876235646
N   N15       1.0  0.35230  0.20390  0.44180  1.0000 -0.3824957576
N   N16       1.0  0.79610  0.64770  0.94180  1.0000 -0.3824957576
N   N17       1.0  0.18280  0.10300  0.41890  1.0000 -0.3974975016
N   N18       1.0  0.89700  0.81720  0.91890  1.0000 -0.3974975016
N   N19       1.0  0.25120  0.21020  0.47600  1.0000 -0.3927338587
N   N20       1.0  0.78980  0.74880  0.97600  1.0000 -0.3927338587
N   N21       1.0  0.90270  0.06590  0.44610  1.0000 -0.1803821172
N   N22       1.0  0.93410  0.09730  0.94610  1.0000 -0.1803821172
N   N23       1.0  0.30150  0.02110  0.31870  1.0000 -0.1803821172
N   N24       1.0  0.97890  0.69850  0.81870  1.0000 -0.1803821172
N   N25       1.0  0.20890  0.86610  0.60340  1.0000 -0.1803821172
N   N26       1.0  0.13390  0.79110  0.10340  1.0000 -0.1803821172
N   N27       1.0  0.23770  0.67210  0.72410  1.0000 -0.3974975016
N   N28       1.0  0.32790  0.76230  0.22410  1.0000 -0.3974975016
N   N29       1.0  0.15000  0.50340  0.74620  1.0000 -0.3927338587
N   N30       1.0  0.49660  0.85000  0.24620  1.0000 -0.3927338587
N   N31       1.0  0.08460  0.54600  0.68540  1.0000 -0.3927338587
N   N32       1.0  0.45400  0.91540  0.18540  1.0000 -0.3927338587
N   N33       1.0  0.44110  0.67590  0.85520  1.0000 -0.1803821172
N   N34       1.0  0.32410  0.55890  0.35520  1.0000 -0.1803821172
N   N35       1.0  0.81110  0.17830  0.72430  1.0000 -0.1803821172
N   N36       1.0  0.82170  0.18890  0.22430  1.0000 -0.1803821172
N   N37       1.0  0.45630  0.58610  0.94700  1.0000 -0.1876235646
N   N38       1.0  0.41390  0.54370  0.44700  1.0000 -0.1876235646
N   N39       1.0  0.20390  0.35230  0.05820  1.0000 -0.3824957576
N   N40       1.0  0.64770  0.79610  0.55820  1.0000 -0.3824957576
N   N41       1.0  0.10300  0.18280  0.08110  1.0000 -0.3974975016
N   N42       1.0  0.81720  0.89700  0.58110  1.0000 -0.3974975016
N   N43       1.0  0.21020  0.25120  0.02400  1.0000 -0.3927338587
N   N44       1.0  0.74880  0.78980  0.52400  1.0000 -0.3927338587
N   N45       1.0  0.06590  0.90270  0.05390  1.0000 -0.1803821172
N   N46       1.0  0.09730  0.93410  0.55390  1.0000 -0.1803821172
N   N47       1.0  0.02110  0.30150  0.18130  1.0000 -0.1803821172
N   N48       1.0  0.69850  0.97890  0.68130  1.0000 -0.1803821172
