# DDEC6 charges by PACMAN v1.1 (https://github.com/mtap-research/PACMAN-charge/)
data_2013[Cu][pts]3[ASR]7
_chemical_formula_sum              "Cu4 H30 C48 N2 O16"
_cell_length_a       10.6325
_cell_length_b       10.7258
_cell_length_c       18.3532
_cell_angle_alpha    103.329
_cell_angle_beta     86.717
_cell_angle_gamma    105.722

_symmetry_space_group_name_H-M    "P 1"
_symmetry_Int_Tables_number       1

loop_
  _symmetry_equiv_pos_as_xyz
  'x, y, z'

loop_
  _atom_site_type_symbol
  _atom_site_label
  _atom_site_symmetry_multiplicity
  _atom_site_fract_x
  _atom_site_fract_y
  _atom_site_fract_z
  _atom_site_occupancy
  _atom_site_charge
Cu  Cu1       1.0  0.07069  0.10292  0.97548  1.0000 0.8379500901
Cu  Cu2       1.0  0.92931  0.89708  0.02452  1.0000 0.8379500901
Cu  Cu3       1.0  0.90979  0.91545  0.45389  1.0000 0.8276363408
Cu  Cu4       1.0  0.09021  0.08455  0.54611  1.0000 0.8276363408
H   H1        1.0  0.66490  0.71810  0.83270  1.0000 0.1283844059
H   H2        1.0  0.33510  0.28190  0.16730  1.0000 0.1283844059
H   H3        1.0  0.29870  0.89400  0.81970  1.0000 0.1283844059
H   H4        1.0  0.70130  0.10600  0.18030  1.0000 0.1283844059
H   H5        1.0  0.68800  0.69590  0.60890  1.0000 0.1198769478
H   H6        1.0  0.31200  0.30410  0.39110  1.0000 0.1198769478
H   H7        1.0  0.19640  0.64150  0.95690  1.0000 0.1283844059
H   H8        1.0  0.80360  0.35850  0.04310  1.0000 0.1283844059
H   H9        1.0  0.51430  0.55140  0.59730  1.0000 0.1198769478
H   H10       1.0  0.48570  0.44860  0.40270  1.0000 0.1198769478
H   H11       1.0  0.41660  0.44240  0.63470  1.0000 0.1283844059
H   H12       1.0  0.58340  0.55760  0.36530  1.0000 0.1283844059
H   H13       1.0  0.32450  0.51050  0.88850  1.0000 0.1283844059
H   H14       1.0  0.67550  0.48950  0.11150  1.0000 0.1283844059
H   H15       1.0  0.43070  0.76380  0.75220  1.0000 0.1198769478
H   H16       1.0  0.56930  0.23620  0.24780  1.0000 0.1198769478
H   H17       1.0  0.53470  0.52650  0.80410  1.0000 0.1198769478
H   H18       1.0  0.46530  0.47350  0.19590  1.0000 0.1198769478
H   H19       1.0  0.41150  0.44500  0.75120  1.0000 0.1198769478
H   H20       1.0  0.58850  0.55500  0.24880  1.0000 0.1198769478
H   H21       1.0  0.72540  0.47850  0.69310  1.0000 0.1141247435
H   H22       1.0  0.27460  0.52150  0.30690  1.0000 0.1141247435
H   H23       1.0  0.94970  0.97850  0.74760  1.0000 0.144403795
H   H24       1.0  0.05030  0.02150  0.25240  1.0000 0.144403795
H   H25       1.0  0.86170  0.33910  0.65060  1.0000 0.1283844059
H   H26       1.0  0.13830  0.66090  0.34940  1.0000 0.1283844059
H   H27       1.0  0.48360  0.29120  0.51810  1.0000 0.1283844059
H   H28       1.0  0.51640  0.70880  0.48190  1.0000 0.1283844059
H   H29       1.0  0.61650  0.14840  0.47500  1.0000 0.1283844059
H   H30       1.0  0.38350  0.85160  0.52500  1.0000 0.1283844059
C   C1        1.0  0.87430  0.91840  0.87910  1.0000 0.5730750954
C   C2        1.0  0.12570  0.08160  0.12090  1.0000 0.5730750954
C   C3        1.0  0.64960  0.68760  0.71840  1.0000 0.1726006364
C   C4        1.0  0.35040  0.31240  0.28160  1.0000 0.1726006364
C   C5        1.0  0.15120  0.86300  0.93730  1.0000 0.576128999
C   C6        1.0  0.84880  0.13700  0.06270  1.0000 0.5730750954
C   C7        1.0  0.70410  0.75100  0.79070  1.0000 -0.1980086172
C   C8        1.0  0.29590  0.24900  0.20930  1.0000 -0.1980086172
C   C9        1.0  0.81150  0.85820  0.80150  1.0000 0.0046988374
C   C10       1.0  0.18850  0.14180  0.19850  1.0000 0.0046988374
C   C11       1.0  0.30350  0.81560  0.83390  1.0000 -0.0891744934
C   C12       1.0  0.69650  0.18440  0.16610  1.0000 -0.0891744934
C   C13       1.0  0.82590  0.84610  0.67140  1.0000 0.0113782307
C   C14       1.0  0.17410  0.15390  0.32860  1.0000 0.0113782307
C   C15       1.0  0.71720  0.73740  0.65880  1.0000 -0.2176062742
C   C16       1.0  0.28280  0.26260  0.34120  1.0000 -0.2176062742
C   C17       1.0  0.38950  0.62330  0.81420  1.0000 0.100206366
C   C18       1.0  0.61050  0.37670  0.18580  1.0000 0.100206366
C   C19       1.0  0.23360  0.77780  0.89380  1.0000 -0.0258231934
C   C20       1.0  0.76640  0.22220  0.10620  1.0000 -0.0258231934
C   C21       1.0  0.24300  0.66640  0.91450  1.0000 -0.0891744934
C   C22       1.0  0.75700  0.33360  0.08550  1.0000 -0.0891744934
C   C23       1.0  0.50830  0.49630  0.63450  1.0000 -0.1868060374
C   C24       1.0  0.49170  0.50370  0.36550  1.0000 -0.1846643293
C   C25       1.0  0.84450  0.14600  0.53000  1.0000 0.5730750954
C   C26       1.0  0.15550  0.85400  0.47000  1.0000 0.5730750954
C   C27       1.0  0.32040  0.58880  0.87390  1.0000 -0.1674947159
C   C28       1.0  0.67960  0.41120  0.12610  1.0000 -0.1674947159
C   C29       1.0  0.38210  0.73790  0.79380  1.0000 -0.1674947159
C   C30       1.0  0.61790  0.26210  0.20620  1.0000 -0.1674947159
C   C31       1.0  0.47000  0.53480  0.77010  1.0000 -0.1868060374
C   C32       1.0  0.53000  0.46520  0.22990  1.0000 -0.1868060374
C   C33       1.0  0.59550  0.40220  0.60880  1.0000 0.100206366
C   C34       1.0  0.40450  0.59780  0.39120  1.0000 0.100206366
C   C35       1.0  0.70440  0.41280  0.64780  1.0000 -0.1587177271
C   C36       1.0  0.29560  0.58720  0.35220  1.0000 -0.1587177271
C   C37       1.0  0.75480  0.23300  0.55710  1.0000 -0.0258231934
C   C38       1.0  0.24520  0.76700  0.44290  1.0000 -0.0258231934
C   C39       1.0  0.87400  0.90530  0.74040  1.0000 -0.1300063634
C   C40       1.0  0.12600  0.09470  0.25960  1.0000 -0.1300063634
C   C41       1.0  0.78570  0.32970  0.62290  1.0000 -0.0891744934
C   C42       1.0  0.21430  0.67030  0.37710  1.0000 -0.0891744934
C   C43       1.0  0.56140  0.30190  0.54460  1.0000 -0.1868060374
C   C44       1.0  0.43860  0.69810  0.45540  1.0000 -0.1868060374
C   C45       1.0  0.64050  0.21720  0.51880  1.0000 -0.0953110436
C   C46       1.0  0.35950  0.78280  0.48120  1.0000 -0.0953110436
C   C47       1.0  0.89420  0.89470  0.60410  1.0000 0.5730750954
C   C48       1.0  0.10580  0.10530  0.39590  1.0000 0.5730750954
N   N1        1.0  0.53860  0.58310  0.70700  1.0000 -0.0722046549
N   N2        1.0  0.46140  0.41690  0.29300  1.0000 -0.0722046549
O   O1        1.0  0.17550  0.97880  0.93040  1.0000 -0.5106304491
O   O2        1.0  0.82450  0.02120  0.06960  1.0000 -0.5106304491
O   O3        1.0  0.05910  0.80660  0.97580  1.0000 -0.5389350856
O   O4        1.0  0.94090  0.19340  0.02420  1.0000 -0.5338412428
O   O5        1.0  0.80110  0.04120  0.48170  1.0000 -0.5180599296
O   O6        1.0  0.19890  0.95880  0.51830  1.0000 -0.5180599296
O   O7        1.0  0.95740  0.18340  0.55990  1.0000 -0.5389350856
O   O8        1.0  0.04260  0.81660  0.44010  1.0000 -0.5389350856
O   O9        1.0  0.84170  0.84370  0.54120  1.0000 -0.5180599296
O   O10       1.0  0.15830  0.15630  0.45880  1.0000 -0.5180599296
O   O11       1.0  0.83710  0.84920  0.92780  1.0000 -0.5389350856
O   O12       1.0  0.16290  0.15080  0.07220  1.0000 -0.5338412428
O   O13       1.0  0.95720  0.02550  0.88690  1.0000 -0.4890045131
O   O14       1.0  0.04280  0.97450  0.11310  1.0000 -0.4890045131
O   O15       1.0  0.99710  0.98480  0.61900  1.0000 -0.5006652528
O   O16       1.0  0.00290  0.01520  0.38100  1.0000 -0.5006652528
