# DDEC6 charges by PACMAN v1.1 (https://github.com/mtap-research/PACMAN-charge/)
data_2013[NiW][mmo]3[ASR]1
_chemical_formula_sum              "Ni3 H60 W3 C72 N12 O6"
_cell_length_a       13.5977
_cell_length_b       13.5977
_cell_length_c       13.5977
_cell_angle_alpha    101.965
_cell_angle_beta     101.965
_cell_angle_gamma    101.965

_symmetry_space_group_name_H-M    "P 1"
_symmetry_Int_Tables_number       1

loop_
  _symmetry_equiv_pos_as_xyz
  'x, y, z'

loop_
  _atom_site_type_symbol
  _atom_site_label
  _atom_site_symmetry_multiplicity
  _atom_site_fract_x
  _atom_site_fract_y
  _atom_site_fract_z
  _atom_site_occupancy
  _atom_site_charge
Ni  Ni1       1.0  0.61805  0.38195  0.00000  1.0000 0.7196670894
Ni  Ni2       1.0  0.38195  0.00000  0.61805  1.0000 0.7196670894
Ni  Ni3       1.0  1.00000  0.61805  0.38195  1.0000 0.7196670894
H   H1        1.0  0.62050  0.17470  0.87100  1.0000 0.0971229349
H   H2        1.0  0.17470  0.87100  0.62050  1.0000 0.0971229349
H   H3        1.0  0.87100  0.62050  0.17470  1.0000 0.0971229349
H   H4        1.0  0.82530  0.37950  0.12900  1.0000 0.0971229349
H   H5        1.0  0.12900  0.82530  0.37950  1.0000 0.0971229349
H   H6        1.0  0.37950  0.12900  0.82530  1.0000 0.0971229349
H   H7        1.0  0.63430  0.09150  0.18250  1.0000 0.1211860272
H   H8        1.0  0.09150  0.18250  0.63430  1.0000 0.1211860272
H   H9        1.0  0.18250  0.63430  0.09150  1.0000 0.1211860272
H   H10       1.0  0.90850  0.36570  0.81750  1.0000 0.1211860272
H   H11       1.0  0.81750  0.90850  0.36570  1.0000 0.1211860272
H   H12       1.0  0.36570  0.81750  0.90850  1.0000 0.1211860272
H   H13       1.0  0.60550  0.75430  0.11830  1.0000 0.1211860272
H   H14       1.0  0.75430  0.11830  0.60550  1.0000 0.1211860272
H   H15       1.0  0.11830  0.60550  0.75430  1.0000 0.1211860272
H   H16       1.0  0.24570  0.39450  0.88170  1.0000 0.1211860272
H   H17       1.0  0.88170  0.24570  0.39450  1.0000 0.1211860272
H   H18       1.0  0.39450  0.88170  0.24570  1.0000 0.1211860272
H   H19       1.0  0.59370  0.58390  0.12050  1.0000 0.0871823757
H   H20       1.0  0.58390  0.12050  0.59370  1.0000 0.0871823757
H   H21       1.0  0.12050  0.59370  0.58390  1.0000 0.0871823757
H   H22       1.0  0.41610  0.40630  0.87950  1.0000 0.0871823757
H   H23       1.0  0.87950  0.41610  0.40630  1.0000 0.0871823757
H   H24       1.0  0.40630  0.87950  0.41610  1.0000 0.0871823757
H   H25       1.0  0.66830  0.52410  0.85550  1.0000 0.0871823757
H   H26       1.0  0.52410  0.85550  0.66830  1.0000 0.0871823757
H   H27       1.0  0.85550  0.66830  0.52410  1.0000 0.0871823757
H   H28       1.0  0.47590  0.33170  0.14450  1.0000 0.0871823757
H   H29       1.0  0.14450  0.47590  0.33170  1.0000 0.0871823757
H   H30       1.0  0.33170  0.14450  0.47590  1.0000 0.0871823757
H   H31       1.0  0.64100  0.01380  0.88240  1.0000 0.1211860272
H   H32       1.0  0.01380  0.88240  0.64100  1.0000 0.1211860272
H   H33       1.0  0.88240  0.64100  0.01380  1.0000 0.1211860272
H   H34       1.0  0.98620  0.35900  0.11760  1.0000 0.1211860272
H   H35       1.0  0.11760  0.98620  0.35900  1.0000 0.1211860272
H   H36       1.0  0.35900  0.11760  0.98620  1.0000 0.1211860272
H   H37       1.0  0.63970  0.91490  0.11040  1.0000 0.1090939839
H   H38       1.0  0.91490  0.11040  0.63970  1.0000 0.1090939839
H   H39       1.0  0.11040  0.63970  0.91490  1.0000 0.1090939839
H   H40       1.0  0.08510  0.36030  0.88960  1.0000 0.1090939839
H   H41       1.0  0.88960  0.08510  0.36030  1.0000 0.1090939839
H   H42       1.0  0.36030  0.88960  0.08510  1.0000 0.1090939839
H   H43       1.0  0.65190  0.86360  0.90710  1.0000 0.1090939839
H   H44       1.0  0.86360  0.90710  0.65190  1.0000 0.1090939839
H   H45       1.0  0.90710  0.65190  0.86360  1.0000 0.1090939839
H   H46       1.0  0.13640  0.34810  0.09290  1.0000 0.1090939839
H   H47       1.0  0.09290  0.13640  0.34810  1.0000 0.1090939839
H   H48       1.0  0.34810  0.09290  0.13640  1.0000 0.1090939839
H   H49       1.0  0.68230  0.69260  0.84580  1.0000 0.1211860272
H   H50       1.0  0.69260  0.84580  0.68230  1.0000 0.1211860272
H   H51       1.0  0.84580  0.68230  0.69260  1.0000 0.1211860272
H   H52       1.0  0.30740  0.31770  0.15420  1.0000 0.1211860272
H   H53       1.0  0.15420  0.30740  0.31770  1.0000 0.1211860272
H   H54       1.0  0.31770  0.15420  0.30740  1.0000 0.1211860272
H   H55       1.0  0.61750  0.25200  0.16330  1.0000 0.0871823757
H   H56       1.0  0.25200  0.16330  0.61750  1.0000 0.0871823757
H   H57       1.0  0.16330  0.61750  0.25200  1.0000 0.0871823757
H   H58       1.0  0.74800  0.38250  0.83670  1.0000 0.0871823757
H   H59       1.0  0.83670  0.74800  0.38250  1.0000 0.0871823757
H   H60       1.0  0.38250  0.83670  0.74800  1.0000 0.0871823757
W   W1        1.0  0.70715  0.50000  0.29285  1.0000 0.9950190906
W   W2        1.0  0.50000  0.29285  0.70715  1.0000 0.9921236758
W   W3        1.0  0.29285  0.70715  0.50000  1.0000 0.9921236758
C   C1        1.0  0.62348  0.15762  0.93490  1.0000 0.0735673917
C   C2        1.0  0.15762  0.93490  0.62348  1.0000 0.0735673917
C   C3        1.0  0.93490  0.62348  0.15762  1.0000 0.0735673917
C   C4        1.0  0.84238  0.37652  0.06510  1.0000 0.0735673917
C   C5        1.0  0.06510  0.84238  0.37652  1.0000 0.0735673917
C   C6        1.0  0.37652  0.06510  0.84238  1.0000 0.0735673917
C   C7        1.0  0.63113  0.10637  0.11770  1.0000 -0.2222719574
C   C8        1.0  0.10637  0.11770  0.63113  1.0000 -0.2222719574
C   C9        1.0  0.11770  0.63113  0.10637  1.0000 -0.2222719574
C   C10       1.0  0.89363  0.36887  0.88230  1.0000 -0.2222719574
C   C11       1.0  0.88230  0.89363  0.36887  1.0000 -0.2222719574
C   C12       1.0  0.36887  0.88230  0.89363  1.0000 -0.2222719574
C   C13       1.0  0.61790  0.70840  0.06300  1.0000 -0.2126115693
C   C14       1.0  0.70840  0.06300  0.61790  1.0000 -0.2126115693
C   C15       1.0  0.06300  0.61790  0.70840  1.0000 -0.2126115693
C   C16       1.0  0.29160  0.38210  0.93700  1.0000 -0.2126115693
C   C17       1.0  0.93700  0.29160  0.38210  1.0000 -0.2126115693
C   C18       1.0  0.38210  0.93700  0.29160  1.0000 -0.2126115693
C   C19       1.0  0.63635  0.03157  0.03326  1.0000 0.1471407835
C   C20       1.0  0.03157  0.03326  0.63635  1.0000 0.1471407835
C   C21       1.0  0.03326  0.63635  0.03157  1.0000 0.1471407835
C   C22       1.0  0.96843  0.36365  0.96674  1.0000 0.1471407835
C   C23       1.0  0.96674  0.96843  0.36365  1.0000 0.1471407835
C   C24       1.0  0.36365  0.96674  0.96843  1.0000 0.1471407835
C   C25       1.0  0.61170  0.60630  0.06420  1.0000 0.0579869031
C   C26       1.0  0.60630  0.06420  0.61170  1.0000 0.0579869031
C   C27       1.0  0.06420  0.61170  0.60630  1.0000 0.0579869031
C   C28       1.0  0.39370  0.38830  0.93580  1.0000 0.0579869031
C   C29       1.0  0.93580  0.39370  0.38830  1.0000 0.0579869031
C   C30       1.0  0.38830  0.93580  0.39370  1.0000 0.0579869031
C   C31       1.0  0.65530  0.57120  0.90930  1.0000 0.0579869031
C   C32       1.0  0.57120  0.90930  0.65530  1.0000 0.0579869031
C   C33       1.0  0.90930  0.65530  0.57120  1.0000 0.0579869031
C   C34       1.0  0.42880  0.34470  0.09070  1.0000 0.0579869031
C   C35       1.0  0.09070  0.42880  0.34470  1.0000 0.0579869031
C   C36       1.0  0.34470  0.09070  0.42880  1.0000 0.0579869031
C   C37       1.0  0.64270  0.74350  0.98090  1.0000 0.1471407835
C   C38       1.0  0.74350  0.98090  0.64270  1.0000 0.1471407835
C   C39       1.0  0.98090  0.64270  0.74350  1.0000 0.1471407835
C   C40       1.0  0.25650  0.35730  0.01910  1.0000 0.1471407835
C   C41       1.0  0.01910  0.25650  0.35730  1.0000 0.1471407835
C   C42       1.0  0.35730  0.01910  0.25650  1.0000 0.1471407835
C   C43       1.0  0.63465  0.06049  0.94082  1.0000 -0.2126115693
C   C44       1.0  0.06049  0.94082  0.63465  1.0000 -0.2126115693
C   C45       1.0  0.94082  0.63465  0.06049  1.0000 -0.2126115693
C   C46       1.0  0.93951  0.36535  0.05918  1.0000 -0.2126115693
C   C47       1.0  0.05918  0.93951  0.36535  1.0000 -0.2126115693
C   C48       1.0  0.36535  0.05918  0.93951  1.0000 -0.2126115693
C   C49       1.0  0.64060  0.92740  0.04510  1.0000 -0.161649853
C   C50       1.0  0.92740  0.04510  0.64060  1.0000 -0.161649853
C   C51       1.0  0.04510  0.64060  0.92740  1.0000 -0.161649853
C   C52       1.0  0.07260  0.35940  0.95490  1.0000 -0.161649853
C   C53       1.0  0.95490  0.07260  0.35940  1.0000 -0.161649853
C   C54       1.0  0.35940  0.95490  0.07260  1.0000 -0.161649853
C   C55       1.0  0.64580  0.84980  0.97080  1.0000 -0.1655386215
C   C56       1.0  0.84980  0.97080  0.64580  1.0000 -0.1655386215
C   C57       1.0  0.97080  0.64580  0.84980  1.0000 -0.1655386215
C   C58       1.0  0.15020  0.35420  0.02920  1.0000 -0.1655386215
C   C59       1.0  0.02920  0.15020  0.35420  1.0000 -0.1655386215
C   C60       1.0  0.35420  0.02920  0.15020  1.0000 -0.1655386215
C   C61       1.0  0.66310  0.67190  0.90250  1.0000 -0.2222719574
C   C62       1.0  0.67190  0.90250  0.66310  1.0000 -0.2222719574
C   C63       1.0  0.90250  0.66310  0.67190  1.0000 -0.2222719574
C   C64       1.0  0.32810  0.33690  0.09750  1.0000 -0.2222719574
C   C65       1.0  0.09750  0.32810  0.33690  1.0000 -0.2222719574
C   C66       1.0  0.33690  0.09750  0.32810  1.0000 -0.2222719574
C   C67       1.0  0.62118  0.20267  0.10548  1.0000 0.0579869031
C   C68       1.0  0.20267  0.10548  0.62118  1.0000 0.0579869031
C   C69       1.0  0.10548  0.62118  0.20267  1.0000 0.0579869031
C   C70       1.0  0.79733  0.37882  0.89452  1.0000 0.0579869031
C   C71       1.0  0.89452  0.79733  0.37882  1.0000 0.0579869031
C   C72       1.0  0.37882  0.89452  0.79733  1.0000 0.0579869031
N   N1        1.0  0.61666  0.22894  0.01569  1.0000 -0.2222719574
N   N2        1.0  0.22894  0.01569  0.61666  1.0000 -0.2222719574
N   N3        1.0  0.01569  0.61666  0.22894  1.0000 -0.2222719574
N   N4        1.0  0.77106  0.38334  0.98431  1.0000 -0.2222719574
N   N5        1.0  0.98431  0.77106  0.38334  1.0000 -0.2222719574
N   N6        1.0  0.38334  0.98431  0.77106  1.0000 -0.2222719574
N   N7        1.0  0.62996  0.53662  0.98860  1.0000 -0.2126115693
N   N8        1.0  0.53662  0.98860  0.62996  1.0000 -0.2126115693
N   N9        1.0  0.98860  0.62996  0.53662  1.0000 -0.2126115693
N   N10       1.0  0.46338  0.37004  0.01140  1.0000 -0.2126115693
N   N11       1.0  0.01140  0.46338  0.37004  1.0000 -0.2126115693
N   N12       1.0  0.37004  0.01140  0.46338  1.0000 -0.2126115693
O   O1        1.0  0.66947  0.43726  0.15771  1.0000 -0.8279507036
O   O2        1.0  0.43726  0.15771  0.66947  1.0000 -0.8279507036
O   O3        1.0  0.15771  0.66947  0.43726  1.0000 -0.8279507036
O   O4        1.0  0.56274  0.33053  0.84229  1.0000 -0.8279507036
O   O5        1.0  0.84229  0.56274  0.33053  1.0000 -0.8279507036
O   O6        1.0  0.33053  0.84229  0.56274  1.0000 -0.8279507036
