# DDEC6 charges by PACMAN v1.1 (https://github.com/mtap-research/PACMAN-charge/)
data_2013[Co][nan]3[ASR]15
_chemical_formula_sum              "Co6 H16 C28 N4 O20"
_cell_length_a       11.1496
_cell_length_b       11.1496
_cell_length_c       10.825
_cell_angle_alpha    77.714
_cell_angle_beta     102.286
_cell_angle_gamma    103.004

_symmetry_space_group_name_H-M    "P 1"
_symmetry_Int_Tables_number       1

loop_
  _symmetry_equiv_pos_as_xyz
  'x, y, z'

loop_
  _atom_site_type_symbol
  _atom_site_label
  _atom_site_symmetry_multiplicity
  _atom_site_fract_x
  _atom_site_fract_y
  _atom_site_fract_z
  _atom_site_occupancy
  _atom_site_charge
Co  Co1       1.0  0.87891  0.06087  0.94988  1.0000 0.9620840748
Co  Co2       1.0  0.06087  0.87891  0.55012  1.0000 0.9620840748
Co  Co3       1.0  0.12109  0.93913  0.05012  1.0000 0.9620840748
Co  Co4       1.0  0.93913  0.12109  0.44988  1.0000 0.9620840748
Co  Co5       1.0  0.90484  0.90484  0.75000  1.0000 1.0620508094
Co  Co6       1.0  0.09516  0.09516  0.25000  1.0000 1.0620508094
H   H1        1.0  0.45020  0.95940  0.86570  1.0000 0.1515190949
H   H2        1.0  0.95940  0.45020  0.63430  1.0000 0.1515190949
H   H3        1.0  0.54980  0.04060  0.13430  1.0000 0.1515190949
H   H4        1.0  0.04060  0.54980  0.36570  1.0000 0.1515190949
H   H5        1.0  0.51570  0.85490  0.54580  1.0000 0.1325667773
H   H6        1.0  0.85490  0.51570  0.95420  1.0000 0.1325667773
H   H7        1.0  0.48430  0.14510  0.45420  1.0000 0.1325667773
H   H8        1.0  0.14510  0.48430  0.04580  1.0000 0.1325667773
H   H9        1.0  0.31470  0.83690  0.47800  1.0000 0.1088074243
H   H10       1.0  0.83690  0.31470  0.02200  1.0000 0.1088074243
H   H11       1.0  0.68530  0.16310  0.52200  1.0000 0.1088074243
H   H12       1.0  0.16310  0.68530  0.97800  1.0000 0.1088074243
H   H13       1.0  0.90180  0.83220  0.97980  1.0000 0.3742958282
H   H14       1.0  0.83220  0.90180  0.52020  1.0000 0.3742958282
H   H15       1.0  0.09820  0.16780  0.02020  1.0000 0.3742958282
H   H16       1.0  0.16780  0.09820  0.47980  1.0000 0.3742958282
C   C1        1.0  0.29994  0.91482  0.73380  1.0000 0.1088074243
C   C2        1.0  0.91482  0.29994  0.76620  1.0000 0.1088074243
C   C3        1.0  0.70006  0.08518  0.26620  1.0000 0.1088074243
C   C4        1.0  0.08518  0.70006  0.23380  1.0000 0.1088074243
C   C5        1.0  0.42554  0.93248  0.78760  1.0000 -0.1551511089
C   C6        1.0  0.93248  0.42554  0.71240  1.0000 -0.1551511089
C   C7        1.0  0.57446  0.06752  0.21240  1.0000 -0.1551511089
C   C8        1.0  0.06752  0.57446  0.28760  1.0000 -0.1551511089
C   C9        1.0  0.51037  0.91163  0.72050  1.0000 0.0322733962
C   C10       1.0  0.91163  0.51037  0.77950  1.0000 0.0322733962
C   C11       1.0  0.48963  0.08837  0.27950  1.0000 0.0322733962
C   C12       1.0  0.08837  0.48963  0.22050  1.0000 0.0322733962
C   C13       1.0  0.46503  0.86997  0.60440  1.0000 -0.1800283964
C   C14       1.0  0.86997  0.46503  0.89560  1.0000 -0.1800283964
C   C15       1.0  0.53497  0.13003  0.39560  1.0000 -0.1800283964
C   C16       1.0  0.13003  0.53497  0.10440  1.0000 -0.1800283964
C   C17       1.0  0.33797  0.85639  0.55630  1.0000 0.0953361386
C   C18       1.0  0.85639  0.33797  0.94370  1.0000 0.0953361386
C   C19       1.0  0.66203  0.14361  0.44370  1.0000 0.0953361386
C   C20       1.0  0.14361  0.66203  0.05630  1.0000 0.0953361386
C   C21       1.0  0.20144  0.93480  0.79940  1.0000 0.561659952
C   C22       1.0  0.93480  0.20144  0.70060  1.0000 0.561659952
C   C23       1.0  0.79856  0.06520  0.20060  1.0000 0.561659952
C   C24       1.0  0.06520  0.79856  0.29940  1.0000 0.561659952
C   C25       1.0  0.64974  0.93396  0.77070  1.0000 0.5691651602
C   C26       1.0  0.93396  0.64974  0.72930  1.0000 0.5691651602
C   C27       1.0  0.35026  0.06604  0.22930  1.0000 0.5691651602
C   C28       1.0  0.06604  0.35026  0.27070  1.0000 0.5691651602
N   N1        1.0  0.25646  0.87920  0.61871  1.0000 -0.2689154993
N   N2        1.0  0.87920  0.25646  0.88129  1.0000 -0.2689154993
N   N3        1.0  0.74354  0.12080  0.38129  1.0000 -0.2689154993
N   N4        1.0  0.12080  0.74354  0.11871  1.0000 -0.2689154993
O   O1        1.0  0.09377  0.93025  0.73242  1.0000 -0.5738051187
O   O2        1.0  0.93025  0.09377  0.76758  1.0000 -0.5738051187
O   O3        1.0  0.90623  0.06975  0.26758  1.0000 -0.5738051187
O   O4        1.0  0.06975  0.90623  0.23242  1.0000 -0.5738051187
O   O5        1.0  0.23081  0.95187  0.91211  1.0000 -0.5020629565
O   O6        1.0  0.95187  0.23081  0.58789  1.0000 -0.5020629565
O   O7        1.0  0.76919  0.04813  0.08789  1.0000 -0.5020629565
O   O8        1.0  0.04813  0.76919  0.41211  1.0000 -0.5020629565
O   O9        1.0  0.69015  0.00795  0.84936  1.0000 -0.5533366005
O   O10       1.0  0.00795  0.69015  0.65064  1.0000 -0.5533366005
O   O11       1.0  0.30985  0.99205  0.15064  1.0000 -0.5533366005
O   O12       1.0  0.99205  0.30985  0.34936  1.0000 -0.5533366005
O   O13       1.0  0.71205  0.87869  0.72697  1.0000 -0.5556589465
O   O14       1.0  0.87869  0.71205  0.77303  1.0000 -0.5556589465
O   O15       1.0  0.28795  0.12131  0.27303  1.0000 -0.5556589465
O   O16       1.0  0.12131  0.28795  0.22697  1.0000 -0.5556589465
O   O17       1.0  0.93817  0.89651  0.94815  1.0000 -0.8385820489
O   O18       1.0  0.89651  0.93817  0.55185  1.0000 -0.8385820489
O   O19       1.0  0.06183  0.10349  0.05185  1.0000 -0.8385820489
O   O20       1.0  0.10349  0.06183  0.44815  1.0000 -0.8385820489
