# DDEC6 charges by PACMAN v1.1 (https://github.com/mtap-research/PACMAN-charge/)
data_2013[Co][dia]3[ASR]6
_chemical_formula_sum              "Co4 H28 C48 Br8 N8 O18"
_cell_length_a       11.2911
_cell_length_b       11.2911
_cell_length_c       14.538
_cell_angle_alpha    70.3667
_cell_angle_beta     109.633
_cell_angle_gamma    82.2544

_symmetry_space_group_name_H-M    "P 1"
_symmetry_Int_Tables_number       1

loop_
  _symmetry_equiv_pos_as_xyz
  'x, y, z'

loop_
  _atom_site_type_symbol
  _atom_site_label
  _atom_site_symmetry_multiplicity
  _atom_site_fract_x
  _atom_site_fract_y
  _atom_site_fract_z
  _atom_site_occupancy
  _atom_site_charge
Co  Co1       1.0  0.78714  0.97156  0.79215  1.0000 0.8994828624
Co  Co2       1.0  0.97156  0.78714  0.70785  1.0000 0.8994828624
Co  Co3       1.0  0.21286  0.02844  0.20785  1.0000 0.8994828624
Co  Co4       1.0  0.02844  0.21286  0.29215  1.0000 0.8994828624
H   H1        1.0  0.72990  0.82310  0.68890  1.0000 0.3829755125
H   H2        1.0  0.82310  0.72990  0.81110  1.0000 0.3829755125
H   H3        1.0  0.27010  0.17690  0.31110  1.0000 0.3829755125
H   H4        1.0  0.17690  0.27010  0.18890  1.0000 0.3829755125
H   H5        1.0  0.69190  0.27550  0.69020  1.0000 0.1199400027
H   H6        1.0  0.27550  0.69190  0.80980  1.0000 0.1199400027
H   H7        1.0  0.30810  0.72450  0.30980  1.0000 0.1199400027
H   H8        1.0  0.72450  0.30810  0.19020  1.0000 0.1199400027
H   H9        1.0  0.87730  0.02050  0.99200  1.0000 0.113520074
H   H10       1.0  0.02050  0.87730  0.50800  1.0000 0.113520074
H   H11       1.0  0.12270  0.97950  0.00800  1.0000 0.113520074
H   H12       1.0  0.97950  0.12270  0.49200  1.0000 0.113520074
H   H13       1.0  0.80020  0.40960  0.92380  1.0000 0.1453235087
H   H14       1.0  0.40960  0.80020  0.57620  1.0000 0.1453235087
H   H15       1.0  0.19980  0.59040  0.07620  1.0000 0.1453235087
H   H16       1.0  0.59040  0.19980  0.42380  1.0000 0.1453235087
H   H17       1.0  0.57870  0.95750  0.88910  1.0000 0.113520074
H   H18       1.0  0.95750  0.57870  0.61090  1.0000 0.113520074
H   H19       1.0  0.42130  0.04250  0.11090  1.0000 0.113520074
H   H20       1.0  0.04250  0.42130  0.38910  1.0000 0.113520074
H   H21       1.0  0.53890  0.07550  0.59000  1.0000 0.1199400027
H   H22       1.0  0.07550  0.53890  0.91000  1.0000 0.1199400027
H   H23       1.0  0.46110  0.92450  0.41000  1.0000 0.1199400027
H   H24       1.0  0.92450  0.46110  0.09000  1.0000 0.1199400027
H   H25       1.0  0.21510  0.09950  0.65370  1.0000 0.1389113826
H   H26       1.0  0.09950  0.21510  0.84630  1.0000 0.1389113826
H   H27       1.0  0.78490  0.90050  0.34630  1.0000 0.1389113826
H   H28       1.0  0.90050  0.78490  0.15370  1.0000 0.1389113826
C   C1        1.0  0.73910  0.36210  0.79440  1.0000 0.0583891527
C   C2        1.0  0.36210  0.73910  0.70560  1.0000 0.0583891527
C   C3        1.0  0.26090  0.63790  0.20560  1.0000 0.0583891527
C   C4        1.0  0.63790  0.26090  0.29440  1.0000 0.0583891527
C   C5        1.0  0.73170  0.25750  0.76410  1.0000 0.0059390357
C   C6        1.0  0.25750  0.73170  0.73590  1.0000 0.0059390357
C   C7        1.0  0.26830  0.74250  0.23590  1.0000 0.0059390357
C   C8        1.0  0.74250  0.26830  0.26410  1.0000 0.0059390357
C   C9        1.0  0.83940  0.10860  0.94080  1.0000 0.0360211071
C   C10       1.0  0.10860  0.83940  0.55920  1.0000 0.0360211071
C   C11       1.0  0.16060  0.89140  0.05920  1.0000 0.0360211071
C   C12       1.0  0.89140  0.16060  0.44080  1.0000 0.0360211071
C   C13       1.0  0.84820  0.20800  0.97640  1.0000 -0.0315943674
C   C14       1.0  0.20800  0.84820  0.52360  1.0000 -0.0315943674
C   C15       1.0  0.15180  0.79200  0.02360  1.0000 -0.0315943674
C   C16       1.0  0.79200  0.15180  0.47640  1.0000 -0.0315943674
C   C17       1.0  0.79630  0.33950  0.90170  1.0000 -0.12768508
C   C18       1.0  0.33950  0.79630  0.59830  1.0000 -0.12768508
C   C19       1.0  0.20370  0.66050  0.09830  1.0000 -0.12768508
C   C20       1.0  0.66050  0.20370  0.40170  1.0000 -0.12768508
C   C21       1.0  0.92890  0.16830  0.09560  1.0000 0.5758489531
C   C22       1.0  0.16830  0.92890  0.40440  1.0000 0.5758489531
C   C23       1.0  0.07110  0.83170  0.90440  1.0000 0.5758489531
C   C24       1.0  0.83170  0.07110  0.59560  1.0000 0.5758489531
C   C25       1.0  0.39100  0.01980  0.78300  1.0000 0.0531621708
C   C26       1.0  0.01980  0.39100  0.71700  1.0000 0.0531621708
C   C27       1.0  0.60900  0.98020  0.21700  1.0000 0.0531621708
C   C28       1.0  0.98020  0.60900  0.28300  1.0000 0.0531621708
C   C29       1.0  0.52380  0.99120  0.81500  1.0000 -0.0029911482
C   C30       1.0  0.99120  0.52380  0.68500  1.0000 -0.0029911482
C   C31       1.0  0.47620  0.00880  0.18500  1.0000 -0.0029911482
C   C32       1.0  0.00880  0.47620  0.31500  1.0000 -0.0029911482
C   C33       1.0  0.50070  0.06190  0.64040  1.0000 0.0705623266
C   C34       1.0  0.06190  0.50070  0.85960  1.0000 0.0705623266
C   C35       1.0  0.49930  0.93810  0.35960  1.0000 0.0705623266
C   C36       1.0  0.93810  0.49930  0.14040  1.0000 0.0705623266
C   C37       1.0  0.36460  0.09720  0.60340  1.0000 -0.0402878553
C   C38       1.0  0.09720  0.36460  0.89660  1.0000 -0.0402878553
C   C39       1.0  0.63540  0.90280  0.39660  1.0000 -0.0402878553
C   C40       1.0  0.90280  0.63540  0.10340  1.0000 -0.0402878553
C   C41       1.0  0.30750  0.07610  0.67640  1.0000 -0.1122893158
C   C42       1.0  0.07610  0.30750  0.82360  1.0000 -0.1122893158
C   C43       1.0  0.69250  0.92390  0.32360  1.0000 -0.1122893158
C   C44       1.0  0.92390  0.69250  0.17640  1.0000 -0.1122893158
C   C45       1.0  0.28520  0.15700  0.48250  1.0000 0.5681758535
C   C46       1.0  0.15700  0.28520  0.01750  1.0000 0.5681758535
C   C47       1.0  0.71480  0.84300  0.51750  1.0000 0.5681758535
C   C48       1.0  0.84300  0.71480  0.98250  1.0000 0.5681758535
Br  Br1       1.0  0.68163  0.53167  0.68654  1.0000 -0.0315943674
Br  Br2       1.0  0.53167  0.68163  0.81346  1.0000 -0.0315943674
Br  Br3       1.0  0.31837  0.46833  0.31346  1.0000 -0.0315943674
Br  Br4       1.0  0.46833  0.31837  0.18654  1.0000 -0.0315943674
Br  Br5       1.0  0.32217  0.98219  0.88865  1.0000 -0.0402878553
Br  Br6       1.0  0.98219  0.32217  0.61135  1.0000 -0.0402878553
Br  Br7       1.0  0.67783  0.01781  0.11135  1.0000 -0.0402878553
Br  Br8       1.0  0.01781  0.67783  0.38865  1.0000 -0.0402878553
N   N1        1.0  0.77920  0.13180  0.83620  1.0000 -0.219179942
N   N2        1.0  0.13180  0.77920  0.66380  1.0000 -0.219179942
N   N3        1.0  0.22080  0.86820  0.16380  1.0000 -0.219179942
N   N4        1.0  0.86820  0.22080  0.33620  1.0000 -0.219179942
N   N5        1.0  0.57850  0.00990  0.74400  1.0000 -0.2303192902
N   N6        1.0  0.00990  0.57850  0.75600  1.0000 -0.2303192902
N   N7        1.0  0.42150  0.99010  0.25600  1.0000 -0.2303192902
N   N8        1.0  0.99010  0.42150  0.24400  1.0000 -0.2303192902
O   O1        1.0  0.90740  0.24800  0.13520  1.0000 -0.5501472417
O   O2        1.0  0.24800  0.90740  0.36480  1.0000 -0.5501472417
O   O3        1.0  0.09260  0.75200  0.86480  1.0000 -0.5501472417
O   O4        1.0  0.75200  0.09260  0.63520  1.0000 -0.5501472417
O   O5        1.0  0.01240  0.06060  0.13900  1.0000 -0.529084428
O   O6        1.0  0.06060  0.01240  0.36100  1.0000 -0.529084428
O   O7        1.0  0.98760  0.93940  0.86100  1.0000 -0.529084428
O   O8        1.0  0.93940  0.98760  0.63900  1.0000 -0.529084428
O   O9        1.0  0.16270  0.18410  0.44880  1.0000 -0.5501472417
O   O10       1.0  0.18410  0.16270  0.05120  1.0000 -0.5501472417
O   O11       1.0  0.83730  0.81590  0.55120  1.0000 -0.5501472417
O   O12       1.0  0.81590  0.83730  0.94880  1.0000 -0.5501472417
O   O13       1.0  0.35170  0.16830  0.42740  1.0000 -0.5396254498
O   O14       1.0  0.16830  0.35170  0.07260  1.0000 -0.5396254498
O   O15       1.0  0.64830  0.83170  0.57260  1.0000 -0.5396254498
O   O16       1.0  0.83170  0.64830  0.92740  1.0000 -0.5396254498
O   O17       1.0  0.81080  0.81080  0.75000  1.0000 -0.7929568726
O   O18       1.0  0.18920  0.18920  0.25000  1.0000 -0.7929568726
