# DDEC6 charges by PACMAN v1.1 (https://github.com/mtap-research/PACMAN-charge/)
data_2013[Eu][nan]3[ASR]7
_chemical_formula_sum              "Eu4 H60 C90 S6 O48"
_cell_length_a       9.2706
_cell_length_b       15.663
_cell_length_c       22.31
_cell_angle_alpha    102.25
_cell_angle_beta     101.47
_cell_angle_gamma    104.51

_symmetry_space_group_name_H-M    "P 1"
_symmetry_Int_Tables_number       1

loop_
  _symmetry_equiv_pos_as_xyz
  'x, y, z'

loop_
  _atom_site_type_symbol
  _atom_site_label
  _atom_site_symmetry_multiplicity
  _atom_site_fract_x
  _atom_site_fract_y
  _atom_site_fract_z
  _atom_site_occupancy
  _atom_site_charge
Eu  Eu1       1.0  0.51438  0.86034  0.80213  1.0000 2.1472784479
Eu  Eu2       1.0  0.02951  0.91201  0.85658  1.0000 2.1601532896
Eu  Eu3       1.0  0.48562  0.13966  0.19787  1.0000 2.1472784479
Eu  Eu4       1.0  0.97049  0.08799  0.14342  1.0000 2.1601532896
H   H1        1.0  0.86890  0.83500  0.66510  1.0000 0.1217757281
H   H2        1.0  0.74690  0.83490  0.56680  1.0000 0.1294490064
H   H3        1.0  0.28100  0.91460  0.62680  1.0000 0.1395867785
H   H4        1.0  0.66820  0.78630  0.45140  1.0000 0.1294490064
H   H5        1.0  0.66810  0.88640  0.48100  1.0000 0.108954267
H   H6        1.0  0.68150  0.85730  0.41110  1.0000 0.1217757281
H   H7        1.0  0.98400  0.84950  0.37030  1.0000 0.1294490064
H   H8        1.0  0.97100  0.90470  0.28140  1.0000 0.1217757281
H   H9        1.0  0.43000  0.01260  0.33230  1.0000 0.1294490064
H   H10       1.0  0.44210  0.95270  0.41990  1.0000 0.1294490064
H   H11       1.0  0.00440  0.66210  0.90850  1.0000 0.1217757281
H   H12       1.0  0.94220  0.51890  0.92590  1.0000 0.1294490064
H   H13       1.0  0.27330  0.46380  0.84700  1.0000 0.1294490064
H   H14       1.0  0.33840  0.60970  0.83250  1.0000 0.1395867785
H   H15       1.0  0.12690  0.26660  0.02150  1.0000 0.1508184051
H   H16       1.0  0.50940  0.19200  0.03110  1.0000 0.1294490064
H   H17       1.0  0.59420  0.29350  0.97480  1.0000 0.1294490064
H   H18       1.0  0.68240  0.44520  0.96370  1.0000 0.1217757281
H   H19       1.0  0.61400  0.36830  0.89890  1.0000 0.1217757281
H   H20       1.0  0.61950  0.46970  0.90100  1.0000 0.1294490064
H   H21       1.0  0.59120  0.56260  0.80170  1.0000 0.1508184051
H   H22       1.0  0.99200  0.56380  0.70670  1.0000 0.1217757281
H   H23       1.0  0.92330  0.69420  0.73310  1.0000 0.1294490064
H   H24       1.0  0.93380  0.36440  0.64820  1.0000 0.1294490064
H   H25       1.0  0.04770  0.45520  0.69700  1.0000 0.108954267
H   H26       1.0  0.04110  0.36040  0.71070  1.0000 0.1217757281
H   H27       1.0  0.25930  0.27160  0.79070  1.0000 0.1294490064
H   H28       1.0  0.23230  0.15690  0.84190  1.0000 0.1294490064
H   H29       1.0  0.58890  0.09370  0.79040  1.0000 0.1217757281
H   H30       1.0  0.62300  0.20980  0.73990  1.0000 0.1294490064
H   H31       1.0  0.13110  0.16500  0.33490  1.0000 0.1217757281
H   H32       1.0  0.25310  0.16510  0.43320  1.0000 0.1294490064
H   H33       1.0  0.71900  0.08540  0.37320  1.0000 0.1395867785
H   H34       1.0  0.33180  0.21370  0.54860  1.0000 0.1294490064
H   H35       1.0  0.33190  0.11360  0.51900  1.0000 0.108954267
H   H36       1.0  0.31850  0.14270  0.58890  1.0000 0.1217757281
H   H37       1.0  0.01600  0.15050  0.62970  1.0000 0.1294490064
H   H38       1.0  0.02900  0.09530  0.71860  1.0000 0.1217757281
H   H39       1.0  0.57000  0.98740  0.66770  1.0000 0.1294490064
H   H40       1.0  0.55790  0.04730  0.58010  1.0000 0.1294490064
H   H41       1.0  0.99560  0.33790  0.09150  1.0000 0.1217757281
H   H42       1.0  0.05780  0.48110  0.07410  1.0000 0.1294490064
H   H43       1.0  0.72670  0.53620  0.15300  1.0000 0.1294490064
H   H44       1.0  0.66160  0.39030  0.16750  1.0000 0.1395867785
H   H45       1.0  0.87310  0.73340  0.97850  1.0000 0.1508184051
H   H46       1.0  0.49060  0.80800  0.96890  1.0000 0.1294490064
H   H47       1.0  0.40580  0.70650  0.02520  1.0000 0.1294490064
H   H48       1.0  0.31760  0.55480  0.03630  1.0000 0.1217757281
H   H49       1.0  0.38600  0.63170  0.10110  1.0000 0.1217757281
H   H50       1.0  0.38050  0.53030  0.09900  1.0000 0.1294490064
H   H51       1.0  0.40880  0.43740  0.19830  1.0000 0.1508184051
H   H52       1.0  0.00800  0.43620  0.29330  1.0000 0.1217757281
H   H53       1.0  0.07670  0.30580  0.26690  1.0000 0.1294490064
H   H54       1.0  0.06620  0.63560  0.35180  1.0000 0.1294490064
H   H55       1.0  0.95230  0.54480  0.30300  1.0000 0.108954267
H   H56       1.0  0.95890  0.63960  0.28930  1.0000 0.1217757281
H   H57       1.0  0.74070  0.72840  0.20930  1.0000 0.1294490064
H   H58       1.0  0.76770  0.84310  0.15810  1.0000 0.1294490064
H   H59       1.0  0.41110  0.90630  0.20960  1.0000 0.1217757281
H   H60       1.0  0.37700  0.79020  0.26010  1.0000 0.1294490064
C   C1        1.0  0.16970  0.87640  0.72290  1.0000 0.6515517583
C   C2        1.0  0.09040  0.87630  0.65850  1.0000 -0.04256885
C   C3        1.0  0.92720  0.85150  0.63760  1.0000 -0.0891120657
C   C4        1.0  0.85430  0.85100  0.57880  1.0000 -0.2038368782
C   C5        1.0  0.93600  0.87410  0.53610  1.0000 0.1666181286
C   C6        1.0  0.09350  0.89800  0.55590  1.0000 0.1395867785
C   C7        1.0  0.17370  0.89900  0.61560  1.0000 -0.1807138373
C   C8        1.0  0.70940  0.84970  0.45300  1.0000 -0.2127571235
C   C9        1.0  0.21480  0.89280  0.40120  1.0000 -0.0976723643
C   C10       1.0  0.07400  0.88050  0.36200  1.0000 -0.0891120657
C   C11       1.0  0.06650  0.91510  0.30930  1.0000 -0.080592944
C   C12       1.0  0.19930  0.96460  0.29800  1.0000 -0.0218209221
C   C13       1.0  0.33980  0.97890  0.33910  1.0000 -0.0891120657
C   C14       1.0  0.34710  0.94270  0.39160  1.0000 -0.080592944
C   C15       1.0  0.19000  0.00500  0.24190  1.0000 0.6515517583
C   C16       1.0  0.20650  0.74220  0.85470  1.0000 0.6564610203
C   C17       1.0  0.17440  0.64890  0.86770  1.0000 -0.0279010075
C   C18       1.0  0.05860  0.62190  0.89620  1.0000 -0.0891120657
C   C19       1.0  0.02130  0.53680  0.90700  1.0000 -0.0976723643
C   C20       1.0  0.10410  0.47860  0.88900  1.0000 -0.0976723643
C   C21       1.0  0.22040  0.50440  0.86000  1.0000 -0.0891120657
C   C22       1.0  0.25770  0.59100  0.85040  1.0000 -0.080592944
C   C23       1.0  0.27170  0.33280  0.98060  1.0000 0.1395867785
C   C24       1.0  0.22200  0.27220  0.01250  1.0000 -0.1898661355
C   C25       1.0  0.30860  0.21780  0.03220  1.0000 -0.0218209221
C   C26       1.0  0.44850  0.22720  0.01810  1.0000 -0.080592944
C   C27       1.0  0.50000  0.28870  0.98450  1.0000 -0.2268700475
C   C28       1.0  0.41210  0.34330  0.96530  1.0000 0.176668038
C   C29       1.0  0.25140  0.15440  0.06960  1.0000 0.6515517583
C   C30       1.0  0.60510  0.42390  0.92360  1.0000 -0.2127571235
C   C31       1.0  0.70100  0.72710  0.78830  1.0000 0.6104634007
C   C32       1.0  0.75070  0.64310  0.77080  1.0000 -0.0218209221
C   C33       1.0  0.67180  0.56330  0.78260  1.0000 -0.1807138373
C   C34       1.0  0.71340  0.48580  0.76590  1.0000 0.1395867785
C   C35       1.0  0.83240  0.48360  0.73730  1.0000 0.1637181987
C   C36       1.0  0.91110  0.56340  0.72560  1.0000 -0.2127571235
C   C37       1.0  0.87040  0.64130  0.74170  1.0000 -0.0891120657
C   C38       1.0  0.98130  0.39500  0.69250  1.0000 -0.2161210651
C   C39       1.0  0.44700  0.25210  0.76250  1.0000 -0.0976723643
C   C40       1.0  0.32660  0.23640  0.79150  1.0000 -0.0976723643
C   C41       1.0  0.31010  0.16740  0.82120  1.0000 -0.0891120657
C   C42       1.0  0.40760  0.11330  0.82080  1.0000 -0.0279010075
C   C43       1.0  0.52340  0.13000  0.79060  1.0000 -0.0891120657
C   C44       1.0  0.54520  0.19940  0.76060  1.0000 -0.0891120657
C   C45       1.0  0.38890  0.03830  0.85380  1.0000 0.6515517583
C   C46       1.0  0.83030  0.12360  0.27710  1.0000 0.6515517583
C   C47       1.0  0.90960  0.12370  0.34150  1.0000 -0.04256885
C   C48       1.0  0.07280  0.14850  0.36240  1.0000 -0.0891120657
C   C49       1.0  0.14570  0.14900  0.42120  1.0000 -0.2038368782
C   C50       1.0  0.06400  0.12590  0.46390  1.0000 0.1666181286
C   C51       1.0  0.90650  0.10200  0.44410  1.0000 0.1395867785
C   C52       1.0  0.82630  0.10100  0.38440  1.0000 -0.1807138373
C   C53       1.0  0.29060  0.15030  0.54700  1.0000 -0.2127571235
C   C54       1.0  0.78520  0.10720  0.59880  1.0000 -0.0976723643
C   C55       1.0  0.92600  0.11950  0.63800  1.0000 -0.0891120657
C   C56       1.0  0.93350  0.08490  0.69070  1.0000 -0.080592944
C   C57       1.0  0.80070  0.03540  0.70200  1.0000 -0.0218209221
C   C58       1.0  0.66020  0.02110  0.66090  1.0000 -0.0891120657
C   C59       1.0  0.65290  0.05730  0.60840  1.0000 -0.080592944
C   C60       1.0  0.81000  0.99500  0.75810  1.0000 0.6515517583
C   C61       1.0  0.79350  0.25780  0.14530  1.0000 0.6564610203
C   C62       1.0  0.82560  0.35110  0.13230  1.0000 -0.0279010075
C   C63       1.0  0.94140  0.37810  0.10380  1.0000 -0.0891120657
C   C64       1.0  0.97870  0.46320  0.09300  1.0000 -0.0976723643
C   C65       1.0  0.89590  0.52140  0.11100  1.0000 -0.0976723643
C   C66       1.0  0.77960  0.49560  0.14000  1.0000 -0.0891120657
C   C67       1.0  0.74230  0.40900  0.14960  1.0000 -0.080592944
C   C68       1.0  0.72830  0.66720  0.01940  1.0000 0.1395867785
C   C69       1.0  0.77800  0.72780  0.98750  1.0000 -0.1898661355
C   C70       1.0  0.69140  0.78220  0.96780  1.0000 -0.0218209221
C   C71       1.0  0.55150  0.77280  0.98190  1.0000 -0.080592944
C   C72       1.0  0.50000  0.71130  0.01550  1.0000 -0.2268700475
C   C73       1.0  0.58790  0.65670  0.03470  1.0000 0.176668038
C   C74       1.0  0.74860  0.84560  0.93040  1.0000 0.6515517583
C   C75       1.0  0.39490  0.57610  0.07640  1.0000 -0.2127571235
C   C76       1.0  0.29900  0.27290  0.21170  1.0000 0.6104634007
C   C77       1.0  0.24930  0.35690  0.22920  1.0000 -0.0218209221
C   C78       1.0  0.32820  0.43670  0.21740  1.0000 -0.1807138373
C   C79       1.0  0.28660  0.51420  0.23410  1.0000 0.1395867785
C   C80       1.0  0.16760  0.51640  0.26270  1.0000 0.1637181987
C   C81       1.0  0.08890  0.43660  0.27440  1.0000 -0.2038368782
C   C82       1.0  0.12960  0.35870  0.25830  1.0000 -0.0891120657
C   C83       1.0  0.01870  0.60500  0.30750  1.0000 -0.2161210651
C   C84       1.0  0.55300  0.74790  0.23750  1.0000 -0.0976723643
C   C85       1.0  0.67340  0.76360  0.20850  1.0000 -0.0976723643
C   C86       1.0  0.68990  0.83260  0.17880  1.0000 -0.0891120657
C   C87       1.0  0.59240  0.88670  0.17920  1.0000 -0.0279010075
C   C88       1.0  0.47660  0.87000  0.20940  1.0000 -0.0891120657
C   C89       1.0  0.45480  0.80060  0.23940  1.0000 -0.0891120657
C   C90       1.0  0.61110  0.96170  0.14620  1.0000 0.6515517583
S   S1        1.0  0.22590  0.84884  0.46751  1.0000 1.1187464197
S   S2        1.0  0.06000  0.36935  0.90257  1.0000 1.1122906407
S   S3        1.0  0.47460  0.34414  0.72837  1.0000 1.1122906407
S   S4        1.0  0.77410  0.15116  0.53249  1.0000 1.1187464197
S   S5        1.0  0.94000  0.63065  0.09743  1.0000 1.1122906407
S   S6        1.0  0.52540  0.65586  0.27163  1.0000 1.1122906407
O   O1        1.0  0.08950  0.86100  0.76140  1.0000 -0.6816374461
O   O2        1.0  0.31210  0.88950  0.73550  1.0000 -0.6714628339
O   O3        1.0  0.87610  0.87830  0.47640  1.0000 -0.1807138373
O   O4        1.0  0.18240  0.92530  0.51390  1.0000 -0.3379615942
O   O5        1.0  0.10930  0.76370  0.45250  1.0000 -0.5109379838
O   O6        1.0  0.38340  0.85650  0.49470  1.0000 -0.5295689702
O   O7        1.0  0.05980  0.00100  0.21070  1.0000 -0.6479835312
O   O8        1.0  0.31570  0.03650  0.22930  1.0000 -0.7180349628
O   O9        1.0  0.12990  0.79250  0.87320  1.0000 -0.6714628339
O   O10       1.0  0.30830  0.76280  0.82510  1.0000 -0.6945450107
O   O11       1.0  0.91330  0.34860  0.91710  1.0000 -0.5295689702
O   O12       1.0  0.08640  0.30360  0.85570  1.0000 -0.5109379838
O   O13       1.0  0.19160  0.39480  0.96830  1.0000 -0.3194838564
O   O14       1.0  0.49690  0.00160  0.86230  1.0000 -0.6594371597
O   O15       1.0  0.27000  0.01760  0.87220  1.0000 -0.6816374461
O   O16       1.0  0.12060  0.14600  0.07590  1.0000 -0.6374028722
O   O17       1.0  0.34110  0.11470  0.09420  1.0000 -0.6714628339
O   O18       1.0  0.36410  0.39120  0.73630  1.0000 -0.5295689702
O   O19       1.0  0.63540  0.40520  0.77880  1.0000 -0.3194838564
O   O20       1.0  0.57190  0.71690  0.80120  1.0000 -0.6374028722
O   O21       1.0  0.45420  0.40660  0.93470  1.0000 -0.1398022497
O   O22       1.0  0.78580  0.80520  0.78960  1.0000 -0.7296631138
O   O23       1.0  0.86360  0.40270  0.72480  1.0000 -0.1630439783
O   O24       1.0  0.50090  0.31950  0.66810  1.0000 -0.5043771068
O   O25       1.0  0.91050  0.13900  0.23860  1.0000 -0.6816374461
O   O26       1.0  0.68790  0.11050  0.26450  1.0000 -0.6714628339
O   O27       1.0  0.12390  0.12170  0.52360  1.0000 -0.1807138373
O   O28       1.0  0.81760  0.07470  0.48610  1.0000 -0.3379615942
O   O29       1.0  0.89070  0.23630  0.54750  1.0000 -0.5109379838
O   O30       1.0  0.61660  0.14350  0.50530  1.0000 -0.5295689702
O   O31       1.0  0.94020  0.99900  0.78930  1.0000 -0.6479835312
O   O32       1.0  0.68430  0.96350  0.77070  1.0000 -0.7180349628
O   O33       1.0  0.87010  0.20750  0.12680  1.0000 -0.6714628339
O   O34       1.0  0.69170  0.23720  0.17490  1.0000 -0.6945450107
O   O35       1.0  0.08670  0.65140  0.08290  1.0000 -0.5295689702
O   O36       1.0  0.91360  0.69640  0.14430  1.0000 -0.5109379838
O   O37       1.0  0.80840  0.60520  0.03170  1.0000 -0.3194838564
O   O38       1.0  0.50310  0.99840  0.13770  1.0000 -0.6594371597
O   O39       1.0  0.73000  0.98240  0.12780  1.0000 -0.6816374461
O   O40       1.0  0.87940  0.85400  0.92410  1.0000 -0.6374028722
O   O41       1.0  0.65890  0.88530  0.90580  1.0000 -0.6714628339
O   O42       1.0  0.63590  0.60880  0.26370  1.0000 -0.5295689702
O   O43       1.0  0.36460  0.59480  0.22120  1.0000 -0.3194838564
O   O44       1.0  0.42810  0.28310  0.19880  1.0000 -0.6374028722
O   O45       1.0  0.54580  0.59340  0.06530  1.0000 -0.1398022497
O   O46       1.0  0.21420  0.19480  0.21040  1.0000 -0.7296631138
O   O47       1.0  0.13640  0.59730  0.27520  1.0000 -0.1630439783
O   O48       1.0  0.49910  0.68050  0.33190  1.0000 -0.5043771068
