# DDEC6 charges by PACMAN v1.1 (https://github.com/mtap-research/PACMAN-charge/)
data_2013[Zn][crb]3[ASR]4
_chemical_formula_sum              "Zn8 H96 C144 N16 O24"
_cell_length_a       26.772
_cell_length_b       26.772
_cell_length_c       5.0662
_cell_angle_alpha    90
_cell_angle_beta     90
_cell_angle_gamma    90

_symmetry_space_group_name_H-M    "P 1"
_symmetry_Int_Tables_number       1

loop_
  _symmetry_equiv_pos_as_xyz
  'x, y, z'

loop_
  _atom_site_type_symbol
  _atom_site_label
  _atom_site_symmetry_multiplicity
  _atom_site_fract_x
  _atom_site_fract_y
  _atom_site_fract_z
  _atom_site_occupancy
  _atom_site_charge
Zn  Zn1       1.0  0.21308  0.22922  0.70829  1.0000 0.9091843874
Zn  Zn2       1.0  0.71308  0.72922  0.20829  1.0000 0.9091843874
Zn  Zn3       1.0  0.78692  0.77078  0.70829  1.0000 0.9091843874
Zn  Zn4       1.0  0.28692  0.27078  0.20829  1.0000 0.9091843874
Zn  Zn5       1.0  0.22922  0.78692  0.29171  1.0000 0.9091843874
Zn  Zn6       1.0  0.72922  0.28692  0.79171  1.0000 0.9091843874
Zn  Zn7       1.0  0.77078  0.21308  0.29171  1.0000 0.9091843874
Zn  Zn8       1.0  0.27078  0.71308  0.79171  1.0000 0.9091843874
H   H1        1.0  0.10660  0.20770  0.94190  1.0000 0.1296231216
H   H2        1.0  0.18010  0.31260  0.29050  1.0000 0.1525269807
H   H3        1.0  0.17240  0.37820  0.94370  1.0000 0.1296231216
H   H4        1.0  0.12420  0.43590  0.71220  1.0000 0.1111621966
H   H5        1.0  0.03930  0.44740  0.82430  1.0000 0.1111621966
H   H6        1.0  0.00240  0.40040  0.14750  1.0000 0.1229439372
H   H7        1.0  0.00670  0.33120  0.47910  1.0000 0.1415383534
H   H8        1.0  0.03770  0.22250  0.21420  1.0000 0.1229439372
H   H9        1.0  0.95950  0.20090  0.39430  1.0000 0.0921916959
H   H10       1.0  0.89240  0.23750  0.70760  1.0000 0.1296231216
H   H11       1.0  0.97040  0.25670  0.52380  1.0000 0.1111621966
H   H12       1.0  0.31850  0.75667  0.11390  1.0000 0.3673322968
H   H13       1.0  0.60660  0.70770  0.44190  1.0000 0.1296231216
H   H14       1.0  0.68010  0.81260  0.79050  1.0000 0.1525269807
H   H15       1.0  0.67240  0.87820  0.44370  1.0000 0.1296231216
H   H16       1.0  0.62420  0.93590  0.21220  1.0000 0.1111621966
H   H17       1.0  0.53930  0.94740  0.32430  1.0000 0.1111621966
H   H18       1.0  0.50240  0.90040  0.64750  1.0000 0.1229439372
H   H19       1.0  0.50670  0.83120  0.97910  1.0000 0.1415383534
H   H20       1.0  0.53770  0.72250  0.71420  1.0000 0.1229439372
H   H21       1.0  0.45950  0.70090  0.89430  1.0000 0.0921916959
H   H22       1.0  0.39240  0.73750  0.20760  1.0000 0.1296231216
H   H23       1.0  0.47040  0.75670  0.02380  1.0000 0.1111621966
H   H24       1.0  0.81850  0.25667  0.61390  1.0000 0.3673322968
H   H25       1.0  0.89340  0.79230  0.94190  1.0000 0.1296231216
H   H26       1.0  0.81990  0.68740  0.29050  1.0000 0.1525269807
H   H27       1.0  0.82760  0.62180  0.94370  1.0000 0.1296231216
H   H28       1.0  0.87580  0.56410  0.71220  1.0000 0.1111621966
H   H29       1.0  0.96070  0.55260  0.82430  1.0000 0.1111621966
H   H30       1.0  0.99760  0.59960  0.14750  1.0000 0.1229439372
H   H31       1.0  0.99330  0.66880  0.47910  1.0000 0.1415383534
H   H32       1.0  0.96230  0.77750  0.21420  1.0000 0.1229439372
H   H33       1.0  0.04050  0.79910  0.39430  1.0000 0.0921916959
H   H34       1.0  0.10760  0.76250  0.70760  1.0000 0.1296231216
H   H35       1.0  0.02960  0.74330  0.52380  1.0000 0.1111621966
H   H36       1.0  0.68150  0.24333  0.11390  1.0000 0.3673322968
H   H37       1.0  0.39340  0.29230  0.44190  1.0000 0.1296231216
H   H38       1.0  0.31990  0.18740  0.79050  1.0000 0.1525269807
H   H39       1.0  0.32760  0.12180  0.44370  1.0000 0.1296231216
H   H40       1.0  0.37580  0.06410  0.21220  1.0000 0.1111621966
H   H41       1.0  0.46070  0.05260  0.32430  1.0000 0.1111621966
H   H42       1.0  0.49760  0.09960  0.64750  1.0000 0.1229439372
H   H43       1.0  0.49330  0.16880  0.97910  1.0000 0.1415383534
H   H44       1.0  0.46230  0.27750  0.71420  1.0000 0.1229439372
H   H45       1.0  0.54050  0.29910  0.89430  1.0000 0.0921916959
H   H46       1.0  0.60760  0.26250  0.20760  1.0000 0.1296231216
H   H47       1.0  0.52960  0.24330  0.02380  1.0000 0.1111621966
H   H48       1.0  0.18150  0.74333  0.61390  1.0000 0.3673322968
H   H49       1.0  0.20770  0.89340  0.05810  1.0000 0.1296231216
H   H50       1.0  0.31260  0.81990  0.70950  1.0000 0.1525269807
H   H51       1.0  0.37820  0.82760  0.05630  1.0000 0.1296231216
H   H52       1.0  0.43590  0.87580  0.28780  1.0000 0.1111621966
H   H53       1.0  0.44740  0.96070  0.17570  1.0000 0.1111621966
H   H54       1.0  0.40040  0.99760  0.85250  1.0000 0.1229439372
H   H55       1.0  0.33120  0.99330  0.52090  1.0000 0.1415383534
H   H56       1.0  0.22250  0.96230  0.78580  1.0000 0.1229439372
H   H57       1.0  0.20090  0.04050  0.60570  1.0000 0.0921916959
H   H58       1.0  0.23750  0.10760  0.29240  1.0000 0.1296231216
H   H59       1.0  0.25670  0.02960  0.47620  1.0000 0.1111621966
H   H60       1.0  0.75667  0.68150  0.88610  1.0000 0.3673322968
H   H61       1.0  0.70770  0.39340  0.55810  1.0000 0.1296231216
H   H62       1.0  0.81260  0.31990  0.20950  1.0000 0.1525269807
H   H63       1.0  0.87820  0.32760  0.55630  1.0000 0.1296231216
H   H64       1.0  0.93590  0.37580  0.78780  1.0000 0.1111621966
H   H65       1.0  0.94740  0.46070  0.67570  1.0000 0.1111621966
H   H66       1.0  0.90040  0.49760  0.35250  1.0000 0.1229439372
H   H67       1.0  0.83120  0.49330  0.02090  1.0000 0.1415383534
H   H68       1.0  0.72250  0.46230  0.28580  1.0000 0.1229439372
H   H69       1.0  0.70090  0.54050  0.10570  1.0000 0.0921916959
H   H70       1.0  0.73750  0.60760  0.79240  1.0000 0.1296231216
H   H71       1.0  0.75670  0.52960  0.97620  1.0000 0.1111621966
H   H72       1.0  0.25667  0.18150  0.38610  1.0000 0.3673322968
H   H73       1.0  0.79230  0.10660  0.05810  1.0000 0.1296231216
H   H74       1.0  0.68740  0.18010  0.70950  1.0000 0.1525269807
H   H75       1.0  0.62180  0.17240  0.05630  1.0000 0.1296231216
H   H76       1.0  0.56410  0.12420  0.28780  1.0000 0.1111621966
H   H77       1.0  0.55260  0.03930  0.17570  1.0000 0.1111621966
H   H78       1.0  0.59960  0.00240  0.85250  1.0000 0.1229439372
H   H79       1.0  0.66880  0.00670  0.52090  1.0000 0.1415383534
H   H80       1.0  0.77750  0.03770  0.78580  1.0000 0.1229439372
H   H81       1.0  0.79910  0.95950  0.60570  1.0000 0.0921916959
H   H82       1.0  0.76250  0.89240  0.29240  1.0000 0.1296231216
H   H83       1.0  0.74330  0.97040  0.47620  1.0000 0.1111621966
H   H84       1.0  0.24333  0.31850  0.88610  1.0000 0.3673322968
H   H85       1.0  0.29230  0.60660  0.55810  1.0000 0.1296231216
H   H86       1.0  0.18740  0.68010  0.20950  1.0000 0.1525269807
H   H87       1.0  0.12180  0.67240  0.55630  1.0000 0.1296231216
H   H88       1.0  0.06410  0.62420  0.78780  1.0000 0.1111621966
H   H89       1.0  0.05260  0.53930  0.67570  1.0000 0.1111621966
H   H90       1.0  0.09960  0.50240  0.35250  1.0000 0.1229439372
H   H91       1.0  0.16880  0.50670  0.02090  1.0000 0.1415383534
H   H92       1.0  0.27750  0.53770  0.28580  1.0000 0.1229439372
H   H93       1.0  0.29910  0.45950  0.10570  1.0000 0.0921916959
H   H94       1.0  0.26250  0.39240  0.79240  1.0000 0.1296231216
H   H95       1.0  0.24330  0.47040  0.97620  1.0000 0.1111621966
H   H96       1.0  0.74333  0.81850  0.38610  1.0000 0.3673322968
C   C1        1.0  0.10368  0.23377  0.81570  1.0000 0.1415383534
C   C2        1.0  0.12192  0.28824  0.51460  1.0000 0.1415383534
C   C3        1.0  0.14553  0.31670  0.32620  1.0000 -0.2186191861
C   C4        1.0  0.11667  0.35218  0.18760  1.0000 0.0828127846
C   C5        1.0  0.13800  0.38204  0.98590  1.0000 -0.1499822453
C   C6        1.0  0.10957  0.41664  0.84940  1.0000 -0.0998453736
C   C7        1.0  0.05856  0.42310  0.91560  1.0000 -0.0998453736
C   C8        1.0  0.03663  0.39527  0.10700  1.0000 -0.1564048767
C   C9        1.0  0.06437  0.35820  0.24870  1.0000 0.0921916959
C   C10       1.0  0.04126  0.32786  0.43940  1.0000 -0.2332964331
C   C11       1.0  0.07051  0.29310  0.56640  1.0000 0.0921916959
C   C12       1.0  0.01195  0.24239  0.86060  1.0000 0.1789340437
C   C13       1.0  0.91952  0.21381  0.05060  1.0000 -0.0282967105
C   C14       1.0  0.86981  0.19891  0.16440  1.0000 0.5637599737
C   C15       1.0  0.00850  0.22530  0.10930  1.0000 -0.214464882
C   C16       1.0  0.96220  0.21150  0.21590  1.0000 -0.0862128526
C   C17       1.0  0.92200  0.23280  0.80770  1.0000 -0.0663567871
C   C18       1.0  0.96810  0.24570  0.70170  1.0000 -0.2016480729
C   C19       1.0  0.60368  0.73377  0.31570  1.0000 0.1415383534
C   C20       1.0  0.62192  0.78824  0.01460  1.0000 0.1415383534
C   C21       1.0  0.64553  0.81670  0.82620  1.0000 -0.2186191861
C   C22       1.0  0.61667  0.85218  0.68760  1.0000 0.0828127846
C   C23       1.0  0.63800  0.88204  0.48590  1.0000 -0.1499822453
C   C24       1.0  0.60957  0.91664  0.34940  1.0000 -0.0998453736
C   C25       1.0  0.55856  0.92310  0.41560  1.0000 -0.0998453736
C   C26       1.0  0.53663  0.89527  0.60700  1.0000 -0.1564048767
C   C27       1.0  0.56437  0.85820  0.74870  1.0000 0.0921916959
C   C28       1.0  0.54126  0.82786  0.93940  1.0000 -0.2332964331
C   C29       1.0  0.57051  0.79310  0.06640  1.0000 0.0921916959
C   C30       1.0  0.51195  0.74239  0.36060  1.0000 0.1789340437
C   C31       1.0  0.41952  0.71381  0.55060  1.0000 -0.0282967105
C   C32       1.0  0.36981  0.69891  0.66440  1.0000 0.5637599737
C   C33       1.0  0.50850  0.72530  0.60930  1.0000 -0.214464882
C   C34       1.0  0.46220  0.71150  0.71590  1.0000 -0.0862128526
C   C35       1.0  0.42200  0.73280  0.30770  1.0000 -0.0663567871
C   C36       1.0  0.46810  0.74570  0.20170  1.0000 -0.2016480729
C   C37       1.0  0.89632  0.76623  0.81570  1.0000 0.1415383534
C   C38       1.0  0.87808  0.71176  0.51460  1.0000 0.1415383534
C   C39       1.0  0.85447  0.68330  0.32620  1.0000 -0.2186191861
C   C40       1.0  0.88333  0.64782  0.18760  1.0000 0.0828127846
C   C41       1.0  0.86200  0.61796  0.98590  1.0000 -0.1499822453
C   C42       1.0  0.89043  0.58336  0.84940  1.0000 -0.0998453736
C   C43       1.0  0.94144  0.57690  0.91560  1.0000 -0.0998453736
C   C44       1.0  0.96337  0.60473  0.10700  1.0000 -0.1564048767
C   C45       1.0  0.93563  0.64180  0.24870  1.0000 0.0921916959
C   C46       1.0  0.95874  0.67214  0.43940  1.0000 -0.2332964331
C   C47       1.0  0.92949  0.70690  0.56640  1.0000 0.0921916959
C   C48       1.0  0.98805  0.75761  0.86060  1.0000 0.1789340437
C   C49       1.0  0.08048  0.78619  0.05060  1.0000 -0.0282967105
C   C50       1.0  0.13019  0.80109  0.16440  1.0000 0.5637599737
C   C51       1.0  0.99150  0.77470  0.10930  1.0000 -0.214464882
C   C52       1.0  0.03780  0.78850  0.21590  1.0000 -0.0862128526
C   C53       1.0  0.07800  0.76720  0.80770  1.0000 -0.0663567871
C   C54       1.0  0.03190  0.75430  0.70170  1.0000 -0.2016480729
C   C55       1.0  0.39632  0.26623  0.31570  1.0000 0.1415383534
C   C56       1.0  0.37808  0.21176  0.01460  1.0000 0.1415383534
C   C57       1.0  0.35447  0.18330  0.82620  1.0000 -0.2186191861
C   C58       1.0  0.38333  0.14782  0.68760  1.0000 0.0828127846
C   C59       1.0  0.36200  0.11796  0.48590  1.0000 -0.1499822453
C   C60       1.0  0.39043  0.08336  0.34940  1.0000 -0.0998453736
C   C61       1.0  0.44144  0.07690  0.41560  1.0000 -0.0998453736
C   C62       1.0  0.46337  0.10473  0.60700  1.0000 -0.1564048767
C   C63       1.0  0.43563  0.14180  0.74870  1.0000 0.0921916959
C   C64       1.0  0.45874  0.17214  0.93940  1.0000 -0.2332964331
C   C65       1.0  0.42949  0.20690  0.06640  1.0000 0.0921916959
C   C66       1.0  0.48805  0.25761  0.36060  1.0000 0.1789340437
C   C67       1.0  0.58048  0.28619  0.55060  1.0000 -0.0282967105
C   C68       1.0  0.63019  0.30109  0.66440  1.0000 0.5637599737
C   C69       1.0  0.49150  0.27470  0.60930  1.0000 -0.214464882
C   C70       1.0  0.53780  0.28850  0.71590  1.0000 -0.0862128526
C   C71       1.0  0.57800  0.26720  0.30770  1.0000 -0.0663567871
C   C72       1.0  0.53190  0.25430  0.20170  1.0000 -0.2016480729
C   C73       1.0  0.23377  0.89632  0.18430  1.0000 0.1415383534
C   C74       1.0  0.28824  0.87808  0.48540  1.0000 0.1415383534
C   C75       1.0  0.31670  0.85447  0.67380  1.0000 -0.2186191861
C   C76       1.0  0.35218  0.88333  0.81240  1.0000 0.0828127846
C   C77       1.0  0.38204  0.86200  0.01410  1.0000 -0.1499822453
C   C78       1.0  0.41664  0.89043  0.15060  1.0000 -0.0998453736
C   C79       1.0  0.42310  0.94144  0.08440  1.0000 -0.0998453736
C   C80       1.0  0.39527  0.96337  0.89300  1.0000 -0.1564048767
C   C81       1.0  0.35820  0.93563  0.75130  1.0000 0.0921916959
C   C82       1.0  0.32786  0.95874  0.56060  1.0000 -0.2332964331
C   C83       1.0  0.29310  0.92949  0.43360  1.0000 0.0921916959
C   C84       1.0  0.24239  0.98805  0.13940  1.0000 0.1789340437
C   C85       1.0  0.21381  0.08048  0.94940  1.0000 -0.0282967105
C   C86       1.0  0.19891  0.13019  0.83560  1.0000 0.5637599737
C   C87       1.0  0.22530  0.99150  0.89070  1.0000 -0.214464882
C   C88       1.0  0.21150  0.03780  0.78410  1.0000 -0.0862128526
C   C89       1.0  0.23280  0.07800  0.19230  1.0000 -0.0663567871
C   C90       1.0  0.24570  0.03190  0.29830  1.0000 -0.2016480729
C   C91       1.0  0.73377  0.39632  0.68430  1.0000 0.1415383534
C   C92       1.0  0.78824  0.37808  0.98540  1.0000 0.1415383534
C   C93       1.0  0.81670  0.35447  0.17380  1.0000 -0.2186191861
C   C94       1.0  0.85218  0.38333  0.31240  1.0000 0.0828127846
C   C95       1.0  0.88204  0.36200  0.51410  1.0000 -0.1499822453
C   C96       1.0  0.91664  0.39043  0.65060  1.0000 -0.0998453736
C   C97       1.0  0.92310  0.44144  0.58440  1.0000 -0.0998453736
C   C98       1.0  0.89527  0.46337  0.39300  1.0000 -0.1564048767
C   C99       1.0  0.85820  0.43563  0.25130  1.0000 0.0921916959
C   C100      1.0  0.82786  0.45874  0.06060  1.0000 -0.2332964331
C   C101      1.0  0.79310  0.42949  0.93360  1.0000 0.0921916959
C   C102      1.0  0.74239  0.48805  0.63940  1.0000 0.1789340437
C   C103      1.0  0.71381  0.58048  0.44940  1.0000 -0.0282967105
C   C104      1.0  0.69891  0.63019  0.33560  1.0000 0.5637599737
C   C105      1.0  0.72530  0.49150  0.39070  1.0000 -0.214464882
C   C106      1.0  0.71150  0.53780  0.28410  1.0000 -0.0862128526
C   C107      1.0  0.73280  0.57800  0.69230  1.0000 -0.0663567871
C   C108      1.0  0.74570  0.53190  0.79830  1.0000 -0.2016480729
C   C109      1.0  0.76623  0.10368  0.18430  1.0000 0.1415383534
C   C110      1.0  0.71176  0.12192  0.48540  1.0000 0.1415383534
C   C111      1.0  0.68330  0.14553  0.67380  1.0000 -0.2186191861
C   C112      1.0  0.64782  0.11667  0.81240  1.0000 0.0828127846
C   C113      1.0  0.61796  0.13800  0.01410  1.0000 -0.1499822453
C   C114      1.0  0.58336  0.10957  0.15060  1.0000 -0.0998453736
C   C115      1.0  0.57690  0.05856  0.08440  1.0000 -0.0998453736
C   C116      1.0  0.60473  0.03663  0.89300  1.0000 -0.1564048767
C   C117      1.0  0.64180  0.06437  0.75130  1.0000 0.0921916959
C   C118      1.0  0.67214  0.04126  0.56060  1.0000 -0.2332964331
C   C119      1.0  0.70690  0.07051  0.43360  1.0000 0.0921916959
C   C120      1.0  0.75761  0.01195  0.13940  1.0000 0.1789340437
C   C121      1.0  0.78619  0.91952  0.94940  1.0000 -0.0282967105
C   C122      1.0  0.80109  0.86981  0.83560  1.0000 0.5637599737
C   C123      1.0  0.77470  0.00850  0.89070  1.0000 -0.214464882
C   C124      1.0  0.78850  0.96220  0.78410  1.0000 -0.0862128526
C   C125      1.0  0.76720  0.92200  0.19230  1.0000 -0.0663567871
C   C126      1.0  0.75430  0.96810  0.29830  1.0000 -0.2016480729
C   C127      1.0  0.26623  0.60368  0.68430  1.0000 0.1415383534
C   C128      1.0  0.21176  0.62192  0.98540  1.0000 0.1415383534
C   C129      1.0  0.18330  0.64553  0.17380  1.0000 -0.2186191861
C   C130      1.0  0.14782  0.61667  0.31240  1.0000 0.0828127846
C   C131      1.0  0.11796  0.63800  0.51410  1.0000 -0.1499822453
C   C132      1.0  0.08336  0.60957  0.65060  1.0000 -0.0998453736
C   C133      1.0  0.07690  0.55856  0.58440  1.0000 -0.0998453736
C   C134      1.0  0.10473  0.53663  0.39300  1.0000 -0.1564048767
C   C135      1.0  0.14180  0.56437  0.25130  1.0000 0.0921916959
C   C136      1.0  0.17214  0.54126  0.06060  1.0000 -0.2332964331
C   C137      1.0  0.20690  0.57051  0.93360  1.0000 0.0921916959
C   C138      1.0  0.25761  0.51195  0.63940  1.0000 0.1789340437
C   C139      1.0  0.28619  0.41952  0.44940  1.0000 -0.0282967105
C   C140      1.0  0.30109  0.36981  0.33560  1.0000 0.5637599737
C   C141      1.0  0.27470  0.50850  0.39070  1.0000 -0.214464882
C   C142      1.0  0.28850  0.46220  0.28410  1.0000 -0.0862128526
C   C143      1.0  0.26720  0.42200  0.69230  1.0000 -0.0663567871
C   C144      1.0  0.25430  0.46810  0.79830  1.0000 -0.2016480729
N   N1        1.0  0.14148  0.25085  0.67860  1.0000 -0.3490893147
N   N2        1.0  0.05991  0.25707  0.75920  1.0000 -0.0481195828
N   N3        1.0  0.64148  0.75085  0.17860  1.0000 -0.3490893147
N   N4        1.0  0.55991  0.75707  0.25920  1.0000 -0.0481195828
N   N5        1.0  0.85852  0.74915  0.67860  1.0000 -0.3490893147
N   N6        1.0  0.94009  0.74293  0.75920  1.0000 -0.0481195828
N   N7        1.0  0.35852  0.24915  0.17860  1.0000 -0.3490893147
N   N8        1.0  0.44009  0.24293  0.25920  1.0000 -0.0481195828
N   N9        1.0  0.25085  0.85852  0.32140  1.0000 -0.3490893147
N   N10       1.0  0.25707  0.94009  0.24080  1.0000 -0.0481195828
N   N11       1.0  0.75085  0.35852  0.82140  1.0000 -0.3490893147
N   N12       1.0  0.75707  0.44009  0.74080  1.0000 -0.0481195828
N   N13       1.0  0.74915  0.14148  0.32140  1.0000 -0.3490893147
N   N14       1.0  0.74293  0.05991  0.24080  1.0000 -0.0481195828
N   N15       1.0  0.24915  0.64148  0.82140  1.0000 -0.3490893147
N   N16       1.0  0.24293  0.55991  0.74080  1.0000 -0.0481195828
O   O1        1.0  0.25080  0.28115  0.88610  1.0000 -0.8523055181
O   O2        1.0  0.83166  0.21955  0.07390  1.0000 -0.528180936
O   O3        1.0  0.86850  0.18330  0.41060  1.0000 -0.5913162991
O   O4        1.0  0.75080  0.78115  0.38610  1.0000 -0.8523055181
O   O5        1.0  0.33166  0.71955  0.57390  1.0000 -0.528180936
O   O6        1.0  0.36850  0.68330  0.91060  1.0000 -0.5913162991
O   O7        1.0  0.74920  0.71885  0.88610  1.0000 -0.8523055181
O   O8        1.0  0.16834  0.78045  0.07390  1.0000 -0.528180936
O   O9        1.0  0.13150  0.81670  0.41060  1.0000 -0.5913162991
O   O10       1.0  0.24920  0.21885  0.38610  1.0000 -0.8523055181
O   O11       1.0  0.66834  0.28045  0.57390  1.0000 -0.528180936
O   O12       1.0  0.63150  0.31670  0.91060  1.0000 -0.5913162991
O   O13       1.0  0.28115  0.74920  0.11390  1.0000 -0.8523055181
O   O14       1.0  0.21955  0.16834  0.92610  1.0000 -0.528180936
O   O15       1.0  0.18330  0.13150  0.58940  1.0000 -0.5913162991
O   O16       1.0  0.78115  0.24920  0.61390  1.0000 -0.8523055181
O   O17       1.0  0.71955  0.66834  0.42610  1.0000 -0.528180936
O   O18       1.0  0.68330  0.63150  0.08940  1.0000 -0.5913162991
O   O19       1.0  0.71885  0.25080  0.11390  1.0000 -0.8523055181
O   O20       1.0  0.78045  0.83166  0.92610  1.0000 -0.528180936
O   O21       1.0  0.81670  0.86850  0.58940  1.0000 -0.5913162991
O   O22       1.0  0.21885  0.75080  0.61390  1.0000 -0.8523055181
O   O23       1.0  0.28045  0.33166  0.42610  1.0000 -0.528180936
O   O24       1.0  0.31670  0.36850  0.08940  1.0000 -0.5913162991
