# DDEC6 charges by PACMAN v1.1 (https://github.com/mtap-research/PACMAN-charge/)
data_2013[Cd][tfw]3[ASR]1
_chemical_formula_sum              "Cd4 H36 C56 N24 O8"
_cell_length_a       12.8304
_cell_length_b       12.8304
_cell_length_c       17.7135
_cell_angle_alpha    58.2979
_cell_angle_beta     121.702
_cell_angle_gamma    133.838

_symmetry_space_group_name_H-M    "P 1"
_symmetry_Int_Tables_number       1

loop_
  _symmetry_equiv_pos_as_xyz
  'x, y, z'

loop_
  _atom_site_type_symbol
  _atom_site_label
  _atom_site_symmetry_multiplicity
  _atom_site_fract_x
  _atom_site_fract_y
  _atom_site_fract_z
  _atom_site_occupancy
  _atom_site_charge
Cd  Cd1       1.0  0.23505  0.96367  0.62633  1.0000 0.817371632
Cd  Cd2       1.0  0.96367  0.23505  0.87367  1.0000 0.817371632
Cd  Cd3       1.0  0.76495  0.03633  0.37367  1.0000 0.817371632
Cd  Cd4       1.0  0.03633  0.76495  0.12633  1.0000 0.817371632
H   H1        1.0  0.97390  0.37430  0.67170  1.0000 0.1127060102
H   H2        1.0  0.37430  0.97390  0.82830  1.0000 0.1127060102
H   H3        1.0  0.02610  0.62570  0.32830  1.0000 0.1127060102
H   H4        1.0  0.62570  0.02610  0.17170  1.0000 0.1127060102
H   H5        1.0  0.23930  0.51990  0.53470  1.0000 0.1176713816
H   H6        1.0  0.51990  0.23930  0.96530  1.0000 0.1176713816
H   H7        1.0  0.76070  0.48010  0.46530  1.0000 0.1176713816
H   H8        1.0  0.48010  0.76070  0.03470  1.0000 0.1176713816
H   H9        1.0  0.41800  0.73400  0.58600  1.0000 0.1127060102
H   H10       1.0  0.73400  0.41800  0.91400  1.0000 0.1127060102
H   H11       1.0  0.58200  0.26600  0.41400  1.0000 0.1127060102
H   H12       1.0  0.26600  0.58200  0.08600  1.0000 0.1127060102
H   H13       1.0  0.37690  0.77070  0.67990  1.0000 0.1176713816
H   H14       1.0  0.77070  0.37690  0.82010  1.0000 0.1176713816
H   H15       1.0  0.62310  0.22930  0.32010  1.0000 0.1176713816
H   H16       1.0  0.22930  0.62310  0.17990  1.0000 0.1176713816
H   H17       1.0  0.05470  0.30490  0.48120  1.0000 0.1372673167
H   H18       1.0  0.30490  0.05470  0.01880  1.0000 0.1372673167
H   H19       1.0  0.94530  0.69510  0.51880  1.0000 0.1372673167
H   H20       1.0  0.69510  0.94530  0.98120  1.0000 0.1372673167
H   H21       1.0  0.66540  0.98860  0.53940  1.0000 0.1127060102
H   H22       1.0  0.98860  0.66540  0.96060  1.0000 0.1127060102
H   H23       1.0  0.33460  0.01140  0.46060  1.0000 0.1127060102
H   H24       1.0  0.01140  0.33460  0.03940  1.0000 0.1127060102
H   H25       1.0  0.57950  0.57950  0.75000  1.0000 0.1176713816
H   H26       1.0  0.42050  0.42050  0.25000  1.0000 0.1176713816
H   H27       1.0  0.74140  0.64920  0.68340  1.0000 0.1176713816
H   H28       1.0  0.64920  0.74140  0.81660  1.0000 0.1176713816
H   H29       1.0  0.25860  0.35080  0.31660  1.0000 0.1176713816
H   H30       1.0  0.35080  0.25860  0.18340  1.0000 0.1176713816
H   H31       1.0  0.04060  0.04060  0.75000  1.0000 0.1271805792
H   H32       1.0  0.95940  0.95940  0.25000  1.0000 0.1271805792
H   H33       1.0  0.80760  0.17000  0.61990  1.0000 0.2666979236
H   H34       1.0  0.17000  0.80760  0.88010  1.0000 0.2666979236
H   H35       1.0  0.19240  0.83000  0.38010  1.0000 0.2666979236
H   H36       1.0  0.83000  0.19240  0.11990  1.0000 0.2666979236
C   C1        1.0  0.17112  0.57528  0.68575  1.0000 0.0401067604
C   C2        1.0  0.57528  0.17112  0.81425  1.0000 0.0401067604
C   C3        1.0  0.82888  0.42472  0.31425  1.0000 0.0401067604
C   C4        1.0  0.42472  0.82888  0.18575  1.0000 0.0401067604
C   C5        1.0  0.06337  0.44603  0.65470  1.0000 -0.1720226826
C   C6        1.0  0.44603  0.06337  0.84530  1.0000 -0.1720226826
C   C7        1.0  0.93663  0.55397  0.34530  1.0000 -0.1720226826
C   C8        1.0  0.55397  0.93663  0.15470  1.0000 -0.1720226826
C   C9        1.0  0.08806  0.42294  0.59837  1.0000 0.0646982891
C   C10       1.0  0.42294  0.08806  0.90163  1.0000 0.0646982891
C   C11       1.0  0.91194  0.57706  0.40163  1.0000 0.0646982891
C   C12       1.0  0.57706  0.91194  0.09837  1.0000 0.0646982891
C   C13       1.0  0.22146  0.53274  0.57280  1.0000 -0.136653007
C   C14       1.0  0.53274  0.22146  0.92720  1.0000 -0.136653007
C   C15       1.0  0.77854  0.46726  0.42720  1.0000 -0.136653007
C   C16       1.0  0.46726  0.77854  0.07280  1.0000 -0.136653007
C   C17       1.0  0.32900  0.66180  0.60350  1.0000 -0.0900645526
C   C18       1.0  0.66180  0.32900  0.89650  1.0000 -0.0900645526
C   C19       1.0  0.67100  0.33820  0.39650  1.0000 -0.0900645526
C   C20       1.0  0.33820  0.67100  0.10350  1.0000 -0.0900645526
C   C21       1.0  0.30466  0.68394  0.65970  1.0000 -0.1337457495
C   C22       1.0  0.68394  0.30466  0.84030  1.0000 -0.1337457495
C   C23       1.0  0.69534  0.31606  0.34030  1.0000 -0.1337457495
C   C24       1.0  0.31606  0.69534  0.15970  1.0000 -0.1337457495
C   C25       1.0  0.14547  0.59713  0.74682  1.0000 0.2666979236
C   C26       1.0  0.59713  0.14547  0.75318  1.0000 0.2666979236
C   C27       1.0  0.85453  0.40287  0.25318  1.0000 0.2666979236
C   C28       1.0  0.40287  0.85453  0.24682  1.0000 0.2666979236
C   C29       1.0  0.97653  0.28887  0.56503  1.0000 0.1176713816
C   C30       1.0  0.28887  0.97653  0.93497  1.0000 0.1176713816
C   C31       1.0  0.02347  0.71113  0.43497  1.0000 0.1176713816
C   C32       1.0  0.71113  0.02347  0.06503  1.0000 0.1176713816
C   C33       1.0  0.97597  0.24963  0.50610  1.0000 -0.0773721756
C   C34       1.0  0.24963  0.97597  0.99390  1.0000 -0.0773721756
C   C35       1.0  0.02403  0.75037  0.49390  1.0000 -0.0773721756
C   C36       1.0  0.75037  0.02403  0.00610  1.0000 -0.0773721756
C   C37       1.0  0.76171  0.07529  0.53780  1.0000 0.1457947446
C   C38       1.0  0.07529  0.76171  0.96220  1.0000 0.1457947446
C   C39       1.0  0.23829  0.92471  0.46220  1.0000 0.1457947446
C   C40       1.0  0.92471  0.23829  0.03780  1.0000 0.1457947446
C   C41       1.0  0.67190  0.67190  0.75000  1.0000 -0.110721214
C   C42       1.0  0.32810  0.32810  0.25000  1.0000 -0.110721214
C   C43       1.0  0.76919  0.71361  0.71030  1.0000 -0.110721214
C   C44       1.0  0.71361  0.76919  0.78970  1.0000 -0.110721214
C   C45       1.0  0.23081  0.28639  0.28970  1.0000 -0.110721214
C   C46       1.0  0.28639  0.23081  0.21030  1.0000 -0.110721214
C   C47       1.0  0.90642  0.85018  0.71080  1.0000 -0.0261006439
C   C48       1.0  0.85018  0.90642  0.78920  1.0000 -0.0261006439
C   C49       1.0  0.09358  0.14982  0.28920  1.0000 -0.0261006439
C   C50       1.0  0.14982  0.09358  0.21080  1.0000 -0.0261006439
C   C51       1.0  0.94810  0.94810  0.75000  1.0000 -0.1214065934
C   C52       1.0  0.05190  0.05190  0.25000  1.0000 -0.1214065934
C   C53       1.0  0.01330  0.89290  0.67061  1.0000 0.5520172222
C   C54       1.0  0.89290  0.01330  0.82939  1.0000 0.5520172222
C   C55       1.0  0.98670  0.10710  0.32939  1.0000 0.5520172222
C   C56       1.0  0.10710  0.98670  0.17061  1.0000 0.5520172222
N   N1        1.0  0.18758  0.72702  0.74501  1.0000 -0.2678118692
N   N2        1.0  0.72702  0.18758  0.75499  1.0000 -0.2678118692
N   N3        1.0  0.81242  0.27298  0.25499  1.0000 -0.2678118692
N   N4        1.0  0.27298  0.81242  0.24501  1.0000 -0.2678118692
N   N5        1.0  0.14466  0.69434  0.81370  1.0000 -0.0637758802
N   N6        1.0  0.69434  0.14466  0.68630  1.0000 -0.0637758802
N   N7        1.0  0.85534  0.30566  0.18630  1.0000 -0.0637758802
N   N8        1.0  0.30566  0.85534  0.31370  1.0000 -0.0637758802
N   N9        1.0  0.07930  0.55210  0.85543  1.0000 -0.1214065934
N   N10       1.0  0.55210  0.07930  0.64457  1.0000 -0.1214065934
N   N11       1.0  0.92070  0.44790  0.14457  1.0000 -0.1214065934
N   N12       1.0  0.44790  0.92070  0.35543  1.0000 -0.1214065934
N   N13       1.0  0.07723  0.48657  0.81367  1.0000 -0.2892264323
N   N14       1.0  0.48657  0.07723  0.68633  1.0000 -0.2892264323
N   N15       1.0  0.92277  0.51343  0.18633  1.0000 -0.2892264323
N   N16       1.0  0.51343  0.92277  0.31367  1.0000 -0.2892264323
N   N17       1.0  0.83871  0.17549  0.58431  1.0000 -0.2344939755
N   N18       1.0  0.17549  0.83871  0.91569  1.0000 -0.2344939755
N   N19       1.0  0.16129  0.82451  0.41569  1.0000 -0.2344939755
N   N20       1.0  0.82451  0.16129  0.08431  1.0000 -0.2344939755
N   N21       1.0  0.84180  0.11660  0.48920  1.0000 -0.2892264323
N   N22       1.0  0.11660  0.84180  0.01080  1.0000 -0.2892264323
N   N23       1.0  0.15820  0.88340  0.51080  1.0000 -0.2892264323
N   N24       1.0  0.88340  0.15820  0.98920  1.0000 -0.2892264323
O   O1        1.0  0.96393  0.82507  0.61530  1.0000 -0.5505015003
O   O2        1.0  0.82507  0.96393  0.88470  1.0000 -0.5505015003
O   O3        1.0  0.03607  0.17493  0.38470  1.0000 -0.5505015003
O   O4        1.0  0.17493  0.03607  0.11530  1.0000 -0.5505015003
O   O5        1.0  0.14997  0.99043  0.69604  1.0000 -0.5426947372
O   O6        1.0  0.99043  0.14997  0.80396  1.0000 -0.5426947372
O   O7        1.0  0.85003  0.00957  0.30396  1.0000 -0.5426947372
O   O8        1.0  0.00957  0.85003  0.19604  1.0000 -0.5426947372
