# DDEC6 charges by PACMAN v1.1 (https://github.com/mtap-research/PACMAN-charge/)
data_2013[Zn][ths]3[ASR]12
_chemical_formula_sum              "Zn12 H96 C144 I24 N48"
_cell_length_a       18.852
_cell_length_b       18.852
_cell_length_c       30.836
_cell_angle_alpha    79.1817
_cell_angle_beta     100.818
_cell_angle_gamma    133.515

_symmetry_space_group_name_H-M    "P 1"
_symmetry_Int_Tables_number       1

loop_
  _symmetry_equiv_pos_as_xyz
  'x, y, z'

loop_
  _atom_site_type_symbol
  _atom_site_label
  _atom_site_symmetry_multiplicity
  _atom_site_fract_x
  _atom_site_fract_y
  _atom_site_fract_z
  _atom_site_occupancy
  _atom_site_charge
Zn  Zn1       1.0  0.47960  0.73168  0.94168  1.0000 0.4547108464
Zn  Zn2       1.0  0.26832  0.52040  0.44168  1.0000 0.4547108464
Zn  Zn3       1.0  0.20025  0.04627  0.59669  1.0000 0.4628048517
Zn  Zn4       1.0  0.95373  0.79975  0.09669  1.0000 0.4628048517
Zn  Zn5       1.0  0.81868  0.46692  0.27631  1.0000 0.4402113758
Zn  Zn6       1.0  0.53308  0.18132  0.77631  1.0000 0.4402113758
Zn  Zn7       1.0  0.73168  0.47960  0.55832  1.0000 0.4547108464
Zn  Zn8       1.0  0.52040  0.26832  0.05832  1.0000 0.4547108464
Zn  Zn9       1.0  0.04627  0.20025  0.90331  1.0000 0.4628048517
Zn  Zn10      1.0  0.79975  0.95373  0.40331  1.0000 0.4628048517
Zn  Zn11      1.0  0.46692  0.81868  0.22369  1.0000 0.4402113758
Zn  Zn12      1.0  0.18132  0.53308  0.72369  1.0000 0.4402113758
H   H1        1.0  0.25960  0.58300  0.92730  1.0000 0.1090316841
H   H2        1.0  0.41700  0.74040  0.42730  1.0000 0.1090316841
H   H3        1.0  0.13270  0.54590  0.87560  1.0000 0.132555328
H   H4        1.0  0.45410  0.86730  0.37560  1.0000 0.132555328
H   H5        1.0  0.33720  0.79980  0.80430  1.0000 0.1238275521
H   H6        1.0  0.20020  0.66280  0.30430  1.0000 0.1238275521
H   H7        1.0  0.45740  0.82400  0.85460  1.0000 0.1019545208
H   H8        1.0  0.17600  0.54260  0.35460  1.0000 0.1019545208
H   H9        1.0  0.66720  0.38820  0.73950  1.0000 0.1019545208
H   H10       1.0  0.61180  0.33280  0.23950  1.0000 0.1019545208
H   H11       1.0  0.82880  0.53260  0.73880  1.0000 0.1400045832
H   H12       1.0  0.46740  0.17120  0.23880  1.0000 0.1400045832
H   H13       1.0  0.89310  0.39970  0.83000  1.0000 0.1400045832
H   H14       1.0  0.60030  0.10690  0.33000  1.0000 0.1400045832
H   H15       1.0  0.73000  0.25860  0.83030  1.0000 0.1090316841
H   H16       1.0  0.74140  0.27000  0.33030  1.0000 0.1090316841
H   H17       1.0  0.30830  0.00130  0.66400  1.0000 0.1090316841
H   H18       1.0  0.99870  0.69170  0.16400  1.0000 0.1090316841
H   H19       1.0  0.27540  0.88460  0.71940  1.0000 0.132555328
H   H20       1.0  0.11540  0.72460  0.21940  1.0000 0.132555328
H   H21       1.0  0.98940  0.72800  0.68620  1.0000 0.132555328
H   H22       1.0  0.27200  0.01060  0.18620  1.0000 0.132555328
H   H23       1.0  0.02910  0.85070  0.63470  1.0000 0.1019545208
H   H24       1.0  0.14930  0.97090  0.13470  1.0000 0.1019545208
H   H25       1.0  0.99180  0.96160  0.56630  1.0000 0.1090316841
H   H26       1.0  0.03840  0.00820  0.06630  1.0000 0.1090316841
H   H27       1.0  0.85550  0.84290  0.52540  1.0000 0.1400045832
H   H28       1.0  0.15710  0.14450  0.02540  1.0000 0.1400045832
H   H29       1.0  0.02120  0.81900  0.47680  1.0000 0.1400045832
H   H30       1.0  0.18100  0.97880  0.97680  1.0000 0.1400045832
H   H31       1.0  0.14980  0.93120  0.52580  1.0000 0.1090316841
H   H32       1.0  0.06880  0.85020  0.02580  1.0000 0.1090316841
H   H33       1.0  0.36730  0.49270  0.39370  1.0000 0.1090316841
H   H34       1.0  0.50730  0.63270  0.89370  1.0000 0.1090316841
H   H35       1.0  0.52080  0.55140  0.38960  1.0000 0.1400045832
H   H36       1.0  0.44860  0.47920  0.88960  1.0000 0.1400045832
H   H37       1.0  0.60450  0.66090  0.50550  1.0000 0.1400045832
H   H38       1.0  0.33910  0.39550  0.00550  1.0000 0.1400045832
H   H39       1.0  0.45740  0.61180  0.50490  1.0000 0.1090316841
H   H40       1.0  0.38820  0.54260  0.00490  1.0000 0.1090316841
H   H41       1.0  0.92280  0.56760  0.36270  1.0000 0.1090316841
H   H42       1.0  0.43240  0.07720  0.86270  1.0000 0.1090316841
H   H43       1.0  0.91130  0.63730  0.41150  1.0000 0.132555328
H   H44       1.0  0.36270  0.08870  0.91150  1.0000 0.132555328
H   H45       1.0  0.65640  0.53760  0.34380  1.0000 0.1400045832
H   H46       1.0  0.46240  0.34360  0.84380  1.0000 0.1400045832
H   H47       1.0  0.68060  0.48020  0.29360  1.0000 0.1019545208
H   H48       1.0  0.51980  0.31940  0.79360  1.0000 0.1019545208
H   H49       1.0  0.58300  0.25960  0.57270  1.0000 0.1090316841
H   H50       1.0  0.74040  0.41700  0.07270  1.0000 0.1090316841
H   H51       1.0  0.54590  0.13270  0.62440  1.0000 0.132555328
H   H52       1.0  0.86730  0.45410  0.12440  1.0000 0.132555328
H   H53       1.0  0.79980  0.33720  0.69570  1.0000 0.1238275521
H   H54       1.0  0.66280  0.20020  0.19570  1.0000 0.1238275521
H   H55       1.0  0.82400  0.45740  0.64540  1.0000 0.1019545208
H   H56       1.0  0.54260  0.17600  0.14540  1.0000 0.1019545208
H   H57       1.0  0.38820  0.66720  0.76050  1.0000 0.1019545208
H   H58       1.0  0.33280  0.61180  0.26050  1.0000 0.1019545208
H   H59       1.0  0.53260  0.82880  0.76120  1.0000 0.1400045832
H   H60       1.0  0.17120  0.46740  0.26120  1.0000 0.1400045832
H   H61       1.0  0.39970  0.89310  0.67000  1.0000 0.1400045832
H   H62       1.0  0.10690  0.60030  0.17000  1.0000 0.1400045832
H   H63       1.0  0.25860  0.73000  0.66970  1.0000 0.1090316841
H   H64       1.0  0.27000  0.74140  0.16970  1.0000 0.1090316841
H   H65       1.0  0.00130  0.30830  0.83600  1.0000 0.1090316841
H   H66       1.0  0.69170  0.99870  0.33600  1.0000 0.1090316841
H   H67       1.0  0.88460  0.27540  0.78060  1.0000 0.132555328
H   H68       1.0  0.72460  0.11540  0.28060  1.0000 0.132555328
H   H69       1.0  0.72800  0.98940  0.81380  1.0000 0.132555328
H   H70       1.0  0.01060  0.27200  0.31380  1.0000 0.132555328
H   H71       1.0  0.85070  0.02910  0.86530  1.0000 0.1019545208
H   H72       1.0  0.97090  0.14930  0.36530  1.0000 0.1019545208
H   H73       1.0  0.96160  0.99180  0.93370  1.0000 0.1090316841
H   H74       1.0  0.00820  0.03840  0.43370  1.0000 0.1090316841
H   H75       1.0  0.84290  0.85550  0.97460  1.0000 0.1400045832
H   H76       1.0  0.14450  0.15710  0.47460  1.0000 0.1400045832
H   H77       1.0  0.81900  0.02120  0.02320  1.0000 0.1400045832
H   H78       1.0  0.97880  0.18100  0.52320  1.0000 0.1400045832
H   H79       1.0  0.93120  0.14980  0.97420  1.0000 0.1090316841
H   H80       1.0  0.85020  0.06880  0.47420  1.0000 0.1090316841
H   H81       1.0  0.49270  0.36730  0.10630  1.0000 0.1090316841
H   H82       1.0  0.63270  0.50730  0.60630  1.0000 0.1090316841
H   H83       1.0  0.55140  0.52080  0.11040  1.0000 0.1400045832
H   H84       1.0  0.47920  0.44860  0.61040  1.0000 0.1400045832
H   H85       1.0  0.66090  0.60450  0.99450  1.0000 0.1400045832
H   H86       1.0  0.39550  0.33910  0.49450  1.0000 0.1400045832
H   H87       1.0  0.61180  0.45740  0.99510  1.0000 0.1090316841
H   H88       1.0  0.54260  0.38820  0.49510  1.0000 0.1090316841
H   H89       1.0  0.56760  0.92280  0.13730  1.0000 0.1090316841
H   H90       1.0  0.07720  0.43240  0.63730  1.0000 0.1090316841
H   H91       1.0  0.63730  0.91130  0.08850  1.0000 0.132555328
H   H92       1.0  0.08870  0.36270  0.58850  1.0000 0.132555328
H   H93       1.0  0.53760  0.65640  0.15620  1.0000 0.1400045832
H   H94       1.0  0.34360  0.46240  0.65620  1.0000 0.1400045832
H   H95       1.0  0.48020  0.68060  0.20640  1.0000 0.1019545208
H   H96       1.0  0.31940  0.51980  0.70640  1.0000 0.1019545208
C   C1        1.0  0.27510  0.62510  0.90090  1.0000 0.088508898
C   C2        1.0  0.37490  0.72490  0.40090  1.0000 0.088508898
C   C3        1.0  0.19890  0.60430  0.87140  1.0000 -0.1413983099
C   C4        1.0  0.39570  0.80110  0.37140  1.0000 -0.1413983099
C   C5        1.0  0.22300  0.67320  0.83460  1.0000 0.0520658596
C   C6        1.0  0.32680  0.77700  0.33460  1.0000 0.0520658596
C   C7        1.0  0.31940  0.75320  0.82900  1.0000 -0.1413983099
C   C8        1.0  0.24680  0.68060  0.32900  1.0000 -0.1413983099
C   C9        1.0  0.39080  0.76680  0.85890  1.0000 0.0820858065
C   C10       1.0  0.23320  0.60920  0.35890  1.0000 0.0820858065
C   C11       1.0  0.14400  0.66060  0.80540  1.0000 0.3609917216
C   C12       1.0  0.33940  0.85600  0.30540  1.0000 0.3609917216
C   C13       1.0  0.98480  0.57140  0.78340  1.0000 0.3609917216
C   C14       1.0  0.42860  0.01520  0.28340  1.0000 0.3609917216
C   C15       1.0  0.09980  0.71700  0.74890  1.0000 0.3676160627
C   C16       1.0  0.28300  0.90020  0.24890  1.0000 0.3676160627
C   C17       1.0  0.71460  0.38980  0.75790  1.0000 0.0710809118
C   C18       1.0  0.61020  0.28540  0.25790  1.0000 0.0710809118
C   C19       1.0  0.81008  0.47672  0.75750  1.0000 -0.152437561
C   C20       1.0  0.52328  0.18992  0.25750  1.0000 -0.152437561
C   C21       1.0  0.87750  0.47930  0.78540  1.0000 0.0710809118
C   C22       1.0  0.52070  0.12250  0.28540  1.0000 0.0710809118
C   C23       1.0  0.84630  0.39830  0.81090  1.0000 -0.152437561
C   C24       1.0  0.60170  0.15370  0.31090  1.0000 -0.152437561
C   C25       1.0  0.74990  0.31350  0.81050  1.0000 0.0569410863
C   C26       1.0  0.68650  0.25010  0.31050  1.0000 0.0569410863
C   C27       1.0  0.24170  0.94490  0.66900  1.0000 0.0710809118
C   C28       1.0  0.05510  0.75830  0.16900  1.0000 0.0710809118
C   C29       1.0  0.22270  0.87630  0.70260  1.0000 -0.1584261715
C   C30       1.0  0.12370  0.77730  0.20260  1.0000 -0.1584261715
C   C31       1.0  0.12760  0.79540  0.71200  1.0000 0.0710809118
C   C32       1.0  0.20460  0.87240  0.21200  1.0000 0.0710809118
C   C33       1.0  0.05660  0.78580  0.68350  1.0000 -0.152437561
C   C34       1.0  0.21420  0.94340  0.18350  1.0000 -0.152437561
C   C35       1.0  0.08100  0.85780  0.65170  1.0000 0.0820858065
C   C36       1.0  0.14220  0.91900  0.15170  1.0000 0.0820858065
C   C37       1.0  0.99720  0.92900  0.54900  1.0000 0.0569410863
C   C38       1.0  0.07100  0.00280  0.04900  1.0000 0.0569410863
C   C39       1.0  0.91550  0.85970  0.52420  1.0000 -0.152437561
C   C40       1.0  0.14030  0.08450  0.02420  1.0000 -0.152437561
C   C41       1.0  0.92150  0.81490  0.49780  1.0000 0.0569410863
C   C42       1.0  0.18510  0.07850  0.99780  1.0000 0.0569410863
C   C43       1.0  0.01210  0.84470  0.49660  1.0000 -0.1413983099
C   C44       1.0  0.15530  0.98790  0.99660  1.0000 -0.1413983099
C   C45       1.0  0.08870  0.91350  0.52530  1.0000 0.0710809118
C   C46       1.0  0.08650  0.91130  0.02530  1.0000 0.0710809118
C   C47       1.0  0.83520  0.73820  0.46930  1.0000 0.3972875901
C   C48       1.0  0.26180  0.16480  0.96930  1.0000 0.3972875901
C   C49       1.0  0.67410  0.63950  0.44550  1.0000 0.3808414243
C   C50       1.0  0.36050  0.32590  0.94550  1.0000 0.3808414243
C   C51       1.0  0.77000  0.63540  0.41510  1.0000 0.3808414243
C   C52       1.0  0.36460  0.23000  0.91510  1.0000 0.3808414243
C   C53       1.0  0.41790  0.53150  0.41600  1.0000 0.0569410863
C   C54       1.0  0.46850  0.58210  0.91600  1.0000 0.0569410863
C   C55       1.0  0.50750  0.56210  0.41470  1.0000 -0.1413983099
C   C56       1.0  0.43790  0.49250  0.91470  1.0000 -0.1413983099
C   C57       1.0  0.57750  0.60770  0.44850  1.0000 0.0520658596
C   C58       1.0  0.39230  0.42250  0.94850  1.0000 0.0520658596
C   C59       1.0  0.55680  0.62700  0.48140  1.0000 -0.1413983099
C   C60       1.0  0.37300  0.44320  0.98140  1.0000 -0.1413983099
C   C61       1.0  0.47000  0.59900  0.48030  1.0000 0.0569410863
C   C62       1.0  0.40100  0.53000  0.98030  1.0000 0.0569410863
C   C63       1.0  0.86900  0.56360  0.35840  1.0000 0.0710809118
C   C64       1.0  0.43640  0.13100  0.85840  1.0000 0.0710809118
C   C65       1.0  0.86210  0.60430  0.38780  1.0000 -0.1320485122
C   C66       1.0  0.39570  0.13790  0.88780  1.0000 -0.1320485122
C   C67       1.0  0.78280  0.59700  0.38270  1.0000 0.0710809118
C   C68       1.0  0.40300  0.21720  0.88270  1.0000 0.0710809118
C   C69       1.0  0.71360  0.54700  0.34760  1.0000 -0.152437561
C   C70       1.0  0.45300  0.28640  0.84760  1.0000 -0.152437561
C   C71       1.0  0.72730  0.51110  0.31830  1.0000 0.088508898
C   C72       1.0  0.48890  0.27270  0.81830  1.0000 0.088508898
C   C73       1.0  0.62510  0.27510  0.59910  1.0000 0.088508898
C   C74       1.0  0.72490  0.37490  0.09910  1.0000 0.088508898
C   C75       1.0  0.60430  0.19890  0.62860  1.0000 -0.1413983099
C   C76       1.0  0.80110  0.39570  0.12860  1.0000 -0.1413983099
C   C77       1.0  0.67320  0.22300  0.66540  1.0000 0.0520658596
C   C78       1.0  0.77700  0.32680  0.16540  1.0000 0.0520658596
C   C79       1.0  0.75320  0.31940  0.67100  1.0000 -0.1413983099
C   C80       1.0  0.68060  0.24680  0.17100  1.0000 -0.1413983099
C   C81       1.0  0.76680  0.39080  0.64110  1.0000 0.0820858065
C   C82       1.0  0.60920  0.23320  0.14110  1.0000 0.0820858065
C   C83       1.0  0.66060  0.14400  0.69460  1.0000 0.3609917216
C   C84       1.0  0.85600  0.33940  0.19460  1.0000 0.3609917216
C   C85       1.0  0.57140  0.98480  0.71660  1.0000 0.3609917216
C   C86       1.0  0.01520  0.42860  0.21660  1.0000 0.3609917216
C   C87       1.0  0.71700  0.09980  0.75110  1.0000 0.3676160627
C   C88       1.0  0.90020  0.28300  0.25110  1.0000 0.3676160627
C   C89       1.0  0.38980  0.71460  0.74210  1.0000 0.0710809118
C   C90       1.0  0.28540  0.61020  0.24210  1.0000 0.0710809118
C   C91       1.0  0.47672  0.81008  0.74250  1.0000 -0.152437561
C   C92       1.0  0.18992  0.52328  0.24250  1.0000 -0.152437561
C   C93       1.0  0.47930  0.87750  0.71460  1.0000 0.0710809118
C   C94       1.0  0.12250  0.52070  0.21460  1.0000 0.0710809118
C   C95       1.0  0.39830  0.84630  0.68910  1.0000 -0.152437561
C   C96       1.0  0.15370  0.60170  0.18910  1.0000 -0.152437561
C   C97       1.0  0.31350  0.74990  0.68950  1.0000 0.0569410863
C   C98       1.0  0.25010  0.68650  0.18950  1.0000 0.0569410863
C   C99       1.0  0.94490  0.24170  0.83100  1.0000 0.0710809118
C   C100      1.0  0.75830  0.05510  0.33100  1.0000 0.0710809118
C   C101      1.0  0.87630  0.22270  0.79740  1.0000 -0.1584261715
C   C102      1.0  0.77730  0.12370  0.29740  1.0000 -0.1584261715
C   C103      1.0  0.79540  0.12760  0.78800  1.0000 0.0710809118
C   C104      1.0  0.87240  0.20460  0.28800  1.0000 0.0710809118
C   C105      1.0  0.78580  0.05660  0.81650  1.0000 -0.152437561
C   C106      1.0  0.94340  0.21420  0.31650  1.0000 -0.152437561
C   C107      1.0  0.85780  0.08100  0.84830  1.0000 0.0820858065
C   C108      1.0  0.91900  0.14220  0.34830  1.0000 0.0820858065
C   C109      1.0  0.92900  0.99720  0.95100  1.0000 0.0569410863
C   C110      1.0  0.00280  0.07100  0.45100  1.0000 0.0569410863
C   C111      1.0  0.85970  0.91550  0.97580  1.0000 -0.152437561
C   C112      1.0  0.08450  0.14030  0.47580  1.0000 -0.152437561
C   C113      1.0  0.81490  0.92150  0.00220  1.0000 0.0569410863
C   C114      1.0  0.07850  0.18510  0.50220  1.0000 0.0569410863
C   C115      1.0  0.84470  0.01210  0.00340  1.0000 -0.1413983099
C   C116      1.0  0.98790  0.15530  0.50340  1.0000 -0.1413983099
C   C117      1.0  0.91350  0.08870  0.97470  1.0000 0.0710809118
C   C118      1.0  0.91130  0.08650  0.47470  1.0000 0.0710809118
C   C119      1.0  0.73820  0.83520  0.03070  1.0000 0.3972875901
C   C120      1.0  0.16480  0.26180  0.53070  1.0000 0.3972875901
C   C121      1.0  0.63950  0.67410  0.05450  1.0000 0.3808414243
C   C122      1.0  0.32590  0.36050  0.55450  1.0000 0.3808414243
C   C123      1.0  0.63540  0.77000  0.08490  1.0000 0.3808414243
C   C124      1.0  0.23000  0.36460  0.58490  1.0000 0.3808414243
C   C125      1.0  0.53150  0.41790  0.08400  1.0000 0.0569410863
C   C126      1.0  0.58210  0.46850  0.58400  1.0000 0.0569410863
C   C127      1.0  0.56210  0.50750  0.08530  1.0000 -0.1413983099
C   C128      1.0  0.49250  0.43790  0.58530  1.0000 -0.1413983099
C   C129      1.0  0.60770  0.57750  0.05150  1.0000 0.0520658596
C   C130      1.0  0.42250  0.39230  0.55150  1.0000 0.0520658596
C   C131      1.0  0.62700  0.55680  0.01860  1.0000 -0.1413983099
C   C132      1.0  0.44320  0.37300  0.51860  1.0000 -0.1413983099
C   C133      1.0  0.59900  0.47000  0.01970  1.0000 0.0569410863
C   C134      1.0  0.53000  0.40100  0.51970  1.0000 0.0569410863
C   C135      1.0  0.56360  0.86900  0.14160  1.0000 0.0710809118
C   C136      1.0  0.13100  0.43640  0.64160  1.0000 0.0710809118
C   C137      1.0  0.60430  0.86210  0.11220  1.0000 -0.1320485122
C   C138      1.0  0.13790  0.39570  0.61220  1.0000 -0.1320485122
C   C139      1.0  0.59700  0.78280  0.11730  1.0000 0.0710809118
C   C140      1.0  0.21720  0.40300  0.61730  1.0000 0.0710809118
C   C141      1.0  0.54700  0.71360  0.15240  1.0000 -0.152437561
C   C142      1.0  0.28640  0.45300  0.65240  1.0000 -0.152437561
C   C143      1.0  0.51110  0.72730  0.18170  1.0000 0.088508898
C   C144      1.0  0.27270  0.48890  0.68170  1.0000 0.088508898
I   I1        1.0  0.43912  0.74368  0.01195  1.0000 -0.4383465774
I   I2        1.0  0.25632  0.56088  0.51195  1.0000 -0.4383465774
I   I3        1.0  0.63472  0.85696  0.90549  1.0000 -0.4316127716
I   I4        1.0  0.14304  0.36528  0.40549  1.0000 -0.4316127716
I   I5        1.0  0.16608  0.12814  0.63383  1.0000 -0.4316127716
I   I6        1.0  0.87186  0.83392  0.13383  1.0000 -0.4316127716
I   I7        1.0  0.35344  0.12706  0.56072  1.0000 -0.4316127716
I   I8        1.0  0.87294  0.64656  0.06072  1.0000 -0.4383465774
I   I9        1.0  0.96689  0.48885  0.30226  1.0000 -0.4228189297
I   I10       1.0  0.51115  0.03311  0.80226  1.0000 -0.4228189297
I   I11       1.0  0.79806  0.53758  0.20065  1.0000 -0.4316127716
I   I12       1.0  0.46242  0.20194  0.70065  1.0000 -0.4228189297
I   I13       1.0  0.74368  0.43912  0.48805  1.0000 -0.4383465774
I   I14       1.0  0.56088  0.25632  0.98805  1.0000 -0.4383465774
I   I15       1.0  0.85696  0.63472  0.59451  1.0000 -0.4316127716
I   I16       1.0  0.36528  0.14304  0.09451  1.0000 -0.4316127716
I   I17       1.0  0.12814  0.16608  0.86617  1.0000 -0.4316127716
I   I18       1.0  0.83392  0.87186  0.36617  1.0000 -0.4316127716
I   I19       1.0  0.12706  0.35344  0.93928  1.0000 -0.4316127716
I   I20       1.0  0.64656  0.87294  0.43928  1.0000 -0.4316127716
I   I21       1.0  0.48885  0.96689  0.19774  1.0000 -0.4228189297
I   I22       1.0  0.03311  0.51115  0.69774  1.0000 -0.4228189297
I   I23       1.0  0.53758  0.79806  0.29935  1.0000 -0.4316127716
I   I24       1.0  0.20194  0.46242  0.79935  1.0000 -0.4316127716
N   N1        1.0  0.37090  0.70270  0.89410  1.0000 -0.1877859835
N   N2        1.0  0.29730  0.62910  0.39410  1.0000 -0.1877859835
N   N3        1.0  0.05120  0.57900  0.81200  1.0000 -0.3813600637
N   N4        1.0  0.42100  0.94880  0.31200  1.0000 -0.3813600637
N   N5        1.0  0.00630  0.64350  0.75200  1.0000 -0.3813600637
N   N6        1.0  0.35650  0.99370  0.25200  1.0000 -0.3813600637
N   N7        1.0  0.17180  0.72900  0.77350  1.0000 -0.373300562
N   N8        1.0  0.27100  0.82820  0.27350  1.0000 -0.373300562
N   N9        1.0  0.68240  0.30780  0.78160  1.0000 -0.1738278449
N   N10       1.0  0.69220  0.31760  0.28160  1.0000 -0.1738278449
N   N11       1.0  0.17090  0.93670  0.64270  1.0000 -0.1738278449
N   N12       1.0  0.06330  0.82910  0.14270  1.0000 -0.1738278449
N   N13       1.0  0.08270  0.95590  0.55170  1.0000 -0.1877859835
N   N14       1.0  0.04410  0.91730  0.05170  1.0000 -0.1877859835
N   N15       1.0  0.74790  0.70570  0.47400  1.0000 -0.3916523851
N   N16       1.0  0.29430  0.25210  0.97400  1.0000 -0.3916523851
N   N17       1.0  0.68150  0.60310  0.41600  1.0000 -0.3916523851
N   N18       1.0  0.39690  0.31850  0.91600  1.0000 -0.3916523851
N   N19       1.0  0.85110  0.70330  0.44150  1.0000 -0.3992118187
N   N20       1.0  0.29670  0.14890  0.94150  1.0000 -0.3992118187
N   N21       1.0  0.39930  0.55470  0.44820  1.0000 -0.1806085398
N   N22       1.0  0.44530  0.60070  0.94820  1.0000 -0.1806085398
N   N23       1.0  0.80240  0.51800  0.32330  1.0000 -0.1806085398
N   N24       1.0  0.48200  0.19760  0.82330  1.0000 -0.1806085398
N   N25       1.0  0.70270  0.37090  0.60590  1.0000 -0.1877859835
N   N26       1.0  0.62910  0.29730  0.10590  1.0000 -0.1877859835
N   N27       1.0  0.57900  0.05120  0.68800  1.0000 -0.3813600637
N   N28       1.0  0.94880  0.42100  0.18800  1.0000 -0.3813600637
N   N29       1.0  0.64350  0.00630  0.74800  1.0000 -0.3813600637
N   N30       1.0  0.99370  0.35650  0.24800  1.0000 -0.3813600637
N   N31       1.0  0.72900  0.17180  0.72650  1.0000 -0.373300562
N   N32       1.0  0.82820  0.27100  0.22650  1.0000 -0.373300562
N   N33       1.0  0.30780  0.68240  0.71840  1.0000 -0.1738278449
N   N34       1.0  0.31760  0.69220  0.21840  1.0000 -0.1738278449
N   N35       1.0  0.93670  0.17090  0.85730  1.0000 -0.1738278449
N   N36       1.0  0.82910  0.06330  0.35730  1.0000 -0.1738278449
N   N37       1.0  0.95590  0.08270  0.94830  1.0000 -0.1877859835
N   N38       1.0  0.91730  0.04410  0.44830  1.0000 -0.1877859835
N   N39       1.0  0.70570  0.74790  0.02600  1.0000 -0.3916523851
N   N40       1.0  0.25210  0.29430  0.52600  1.0000 -0.3916523851
N   N41       1.0  0.60310  0.68150  0.08400  1.0000 -0.3916523851
N   N42       1.0  0.31850  0.39690  0.58400  1.0000 -0.3916523851
N   N43       1.0  0.70330  0.85110  0.05850  1.0000 -0.3992118187
N   N44       1.0  0.14890  0.29670  0.55850  1.0000 -0.3992118187
N   N45       1.0  0.55470  0.39930  0.05180  1.0000 -0.1738278449
N   N46       1.0  0.60070  0.44530  0.55180  1.0000 -0.1806085398
N   N47       1.0  0.51800  0.80240  0.17670  1.0000 -0.1806085398
N   N48       1.0  0.19760  0.48200  0.67670  1.0000 -0.1806085398
