# DDEC6 charges by PACMAN v1.1 (https://github.com/mtap-research/PACMAN-charge/)
data_2013[Nd][nan]3[ASR]1
_chemical_formula_sum              "Nd4 H108 C84 N24 O24"
_cell_length_a       8.1881
_cell_length_b       26.7362
_cell_length_c       16.5888
_cell_angle_alpha    90
_cell_angle_beta     100.939
_cell_angle_gamma    90

_symmetry_space_group_name_H-M    "P 1"
_symmetry_Int_Tables_number       1

loop_
  _symmetry_equiv_pos_as_xyz
  'x, y, z'

loop_
  _atom_site_type_symbol
  _atom_site_label
  _atom_site_symmetry_multiplicity
  _atom_site_fract_x
  _atom_site_fract_y
  _atom_site_fract_z
  _atom_site_occupancy
  _atom_site_charge
Nd  Nd1       1.0  0.78511  0.74410  0.76964  1.0000 2.1105425471
Nd  Nd2       1.0  0.71489  0.24410  0.23036  1.0000 2.1105425471
Nd  Nd3       1.0  0.21489  0.25590  0.23036  1.0000 2.1105425471
Nd  Nd4       1.0  0.28511  0.75590  0.76964  1.0000 2.1105425471
H   H1        1.0  0.10300  0.81400  0.57900  1.0000 0.1180773418
H   H2        1.0  0.39700  0.31400  0.42100  1.0000 0.1180773418
H   H3        1.0  0.89700  0.18600  0.42100  1.0000 0.1180773418
H   H4        1.0  0.60300  0.68600  0.57900  1.0000 0.1180773418
H   H5        1.0  0.81640  0.78280  0.46890  1.0000 0.1180773418
H   H6        1.0  0.68360  0.28280  0.53110  1.0000 0.1180773418
H   H7        1.0  0.18360  0.21720  0.53110  1.0000 0.1180773418
H   H8        1.0  0.31640  0.71720  0.46890  1.0000 0.1180773418
H   H9        1.0  0.98770  0.75460  0.48520  1.0000 0.1180773418
H   H10       1.0  0.51230  0.25460  0.51480  1.0000 0.1180773418
H   H11       1.0  0.01230  0.24540  0.51480  1.0000 0.1180773418
H   H12       1.0  0.48770  0.74540  0.48520  1.0000 0.1180773418
H   H13       1.0  0.11340  0.82000  0.42590  1.0000 0.1006902282
H   H14       1.0  0.38660  0.32000  0.57410  1.0000 0.1006902282
H   H15       1.0  0.88660  0.18000  0.57410  1.0000 0.1006902282
H   H16       1.0  0.61340  0.68000  0.42590  1.0000 0.1006902282
H   H17       1.0  0.95640  0.80230  0.36260  1.0000 0.1006902282
H   H18       1.0  0.54360  0.30230  0.63740  1.0000 0.1006902282
H   H19       1.0  0.04360  0.19770  0.63740  1.0000 0.1006902282
H   H20       1.0  0.45640  0.69770  0.36260  1.0000 0.1006902282
H   H21       1.0  0.92060  0.92790  0.48450  1.0000 0.1006902282
H   H22       1.0  0.57940  0.42790  0.51550  1.0000 0.1006902282
H   H23       1.0  0.07940  0.07210  0.51550  1.0000 0.1006902282
H   H24       1.0  0.42060  0.57210  0.48450  1.0000 0.1006902282
H   H25       1.0  0.09110  0.89930  0.50250  1.0000 0.093052026
H   H26       1.0  0.40890  0.39930  0.49750  1.0000 0.093052026
H   H27       1.0  0.90890  0.10070  0.49750  1.0000 0.093052026
H   H28       1.0  0.59110  0.60070  0.50250  1.0000 0.093052026
H   H29       1.0  0.79420  0.86600  0.54890  1.0000 0.1180773418
H   H30       1.0  0.70580  0.36600  0.45110  1.0000 0.1180773418
H   H31       1.0  0.20580  0.13400  0.45110  1.0000 0.1180773418
H   H32       1.0  0.29420  0.63400  0.54890  1.0000 0.1180773418
H   H33       1.0  0.95390  0.88370  0.61020  1.0000 0.1180773418
H   H34       1.0  0.54610  0.38370  0.38980  1.0000 0.1180773418
H   H35       1.0  0.04610  0.11630  0.38980  1.0000 0.1180773418
H   H36       1.0  0.45390  0.61630  0.61020  1.0000 0.1180773418
H   H37       1.0  0.50300  0.78200  0.99300  1.0000 0.1180773418
H   H38       1.0  0.99700  0.28200  0.00700  1.0000 0.1180773418
H   H39       1.0  0.49700  0.21800  0.00700  1.0000 0.1180773418
H   H40       1.0  0.00300  0.71800  0.99300  1.0000 0.1180773418
H   H41       1.0  0.68410  0.87340  0.99600  1.0000 0.1122531507
H   H42       1.0  0.81590  0.37340  0.00400  1.0000 0.1122531507
H   H43       1.0  0.31590  0.12660  0.00400  1.0000 0.1122531507
H   H44       1.0  0.18410  0.62660  0.99600  1.0000 0.1122531507
H   H45       1.0  0.50000  0.86640  0.94930  1.0000 0.1122531507
H   H46       1.0  0.00000  0.36640  0.05070  1.0000 0.1122531507
H   H47       1.0  0.50000  0.13360  0.05070  1.0000 0.1122531507
H   H48       1.0  0.00000  0.63360  0.94930  1.0000 0.1122531507
H   H49       1.0  0.50720  0.90560  0.08020  1.0000 0.1006902282
H   H50       1.0  0.99280  0.40560  0.91980  1.0000 0.1006902282
H   H51       1.0  0.49280  0.09440  0.91980  1.0000 0.1006902282
H   H52       1.0  0.00720  0.59440  0.08020  1.0000 0.1006902282
H   H53       1.0  0.40760  0.85510  0.07440  1.0000 0.1006902282
H   H54       1.0  0.09240  0.35510  0.92560  1.0000 0.1006902282
H   H55       1.0  0.59240  0.14490  0.92560  1.0000 0.1006902282
H   H56       1.0  0.90760  0.64490  0.07440  1.0000 0.1006902282
H   H57       1.0  0.57080  0.77810  0.15140  1.0000 0.1006902282
H   H58       1.0  0.92920  0.27810  0.84860  1.0000 0.1006902282
H   H59       1.0  0.42920  0.22190  0.84860  1.0000 0.1006902282
H   H60       1.0  0.07080  0.72190  0.15140  1.0000 0.1006902282
H   H61       1.0  0.75480  0.78880  0.19500  1.0000 0.1006902282
H   H62       1.0  0.74520  0.28880  0.80500  1.0000 0.1006902282
H   H63       1.0  0.24520  0.21120  0.80500  1.0000 0.1006902282
H   H64       1.0  0.25480  0.71120  0.19500  1.0000 0.1006902282
H   H65       1.0  0.74220  0.74530  0.06890  1.0000 0.1122531507
H   H66       1.0  0.75780  0.24530  0.93110  1.0000 0.1122531507
H   H67       1.0  0.25780  0.25470  0.93110  1.0000 0.1122531507
H   H68       1.0  0.24220  0.75470  0.06890  1.0000 0.1122531507
H   H69       1.0  0.84000  0.79580  0.07020  1.0000 0.1122531507
H   H70       1.0  0.66000  0.29580  0.92980  1.0000 0.1122531507
H   H71       1.0  0.16000  0.20420  0.92980  1.0000 0.1122531507
H   H72       1.0  0.34000  0.70420  0.07020  1.0000 0.1122531507
H   H73       1.0  0.36100  0.08600  0.32200  1.0000 0.1006902282
H   H74       1.0  0.13900  0.58600  0.67800  1.0000 0.1006902282
H   H75       1.0  0.63900  0.91400  0.67800  1.0000 0.1006902282
H   H76       1.0  0.86100  0.41400  0.32200  1.0000 0.1006902282
H   H77       1.0  0.71320  0.08600  0.33670  1.0000 0.1180773418
H   H78       1.0  0.78680  0.58600  0.66330  1.0000 0.1180773418
H   H79       1.0  0.28680  0.91400  0.66330  1.0000 0.1180773418
H   H80       1.0  0.21320  0.41400  0.33670  1.0000 0.1180773418
H   H81       1.0  0.62290  0.09420  0.41120  1.0000 0.1122531507
H   H82       1.0  0.87710  0.59420  0.58880  1.0000 0.1122531507
H   H83       1.0  0.37710  0.90580  0.58880  1.0000 0.1122531507
H   H84       1.0  0.12290  0.40580  0.41120  1.0000 0.1122531507
H   H85       1.0  0.35090  0.07810  0.17960  1.0000 0.1180773418
H   H86       1.0  0.14910  0.57810  0.82040  1.0000 0.1180773418
H   H87       1.0  0.64910  0.92190  0.82040  1.0000 0.1180773418
H   H88       1.0  0.85090  0.42190  0.17960  1.0000 0.1180773418
H   H89       1.0  0.54600  0.07760  0.19400  1.0000 0.1122531507
H   H90       1.0  0.95400  0.57760  0.80600  1.0000 0.1122531507
H   H91       1.0  0.45400  0.92240  0.80600  1.0000 0.1122531507
H   H92       1.0  0.04600  0.42240  0.19400  1.0000 0.1122531507
H   H93       1.0  0.34780  0.00160  0.24660  1.0000 0.1006902282
H   H94       1.0  0.15220  0.50160  0.75340  1.0000 0.1006902282
H   H95       1.0  0.65220  0.99840  0.75340  1.0000 0.1006902282
H   H96       1.0  0.84780  0.49840  0.24660  1.0000 0.1006902282
H   H97       1.0  0.45510  0.99500  0.17820  1.0000 0.1006902282
H   H98       1.0  0.04490  0.49500  0.82180  1.0000 0.1006902282
H   H99       1.0  0.54490  0.00500  0.82180  1.0000 0.1006902282
H   H100      1.0  0.95510  0.50500  0.17820  1.0000 0.1006902282
H   H101      1.0  0.71100  0.01120  0.40670  1.0000 0.1006902282
H   H102      1.0  0.78900  0.51120  0.59330  1.0000 0.1006902282
H   H103      1.0  0.28900  0.98880  0.59330  1.0000 0.1006902282
H   H104      1.0  0.21100  0.48880  0.40670  1.0000 0.1006902282
H   H105      1.0  0.51650  0.01360  0.39670  1.0000 0.1006902282
H   H106      1.0  0.98350  0.51360  0.60330  1.0000 0.1006902282
H   H107      1.0  0.48350  0.98640  0.60330  1.0000 0.1006902282
H   H108      1.0  0.01650  0.48640  0.39670  1.0000 0.1006902282
C   C1        1.0  0.92220  0.78510  0.63060  1.0000 0.6241550558
C   C2        1.0  0.57780  0.28510  0.36940  1.0000 0.6241550558
C   C3        1.0  0.07780  0.21490  0.36940  1.0000 0.6241550558
C   C4        1.0  0.42220  0.71490  0.63060  1.0000 0.6241550558
C   C5        1.0  0.66010  0.78420  0.91600  1.0000 0.603021931
C   C6        1.0  0.83990  0.28420  0.08400  1.0000 0.603021931
C   C7        1.0  0.33990  0.21580  0.08400  1.0000 0.603021931
C   C8        1.0  0.16010  0.71580  0.91600  1.0000 0.603021931
C   C9        1.0  0.98170  0.81260  0.56440  1.0000 -0.1342539526
C   C10       1.0  0.51830  0.31260  0.43560  1.0000 -0.1342539526
C   C11       1.0  0.01830  0.18740  0.43560  1.0000 -0.1342539526
C   C12       1.0  0.48170  0.68740  0.56440  1.0000 -0.1342539526
C   C13       1.0  0.93610  0.78740  0.48250  1.0000 -0.2037627684
C   C14       1.0  0.56390  0.28740  0.51750  1.0000 -0.2037627684
C   C15       1.0  0.06390  0.21260  0.51750  1.0000 -0.2037627684
C   C16       1.0  0.43610  0.71260  0.48250  1.0000 -0.2037627684
C   C17       1.0  0.99290  0.81840  0.41540  1.0000 -0.0846738852
C   C18       1.0  0.50710  0.31840  0.58460  1.0000 -0.0846738852
C   C19       1.0  0.00710  0.18160  0.58460  1.0000 -0.0846738852
C   C20       1.0  0.49290  0.68160  0.41540  1.0000 -0.0846738852
C   C21       1.0  0.97140  0.89500  0.48970  1.0000 -0.0904463164
C   C22       1.0  0.52860  0.39500  0.51030  1.0000 -0.0904463164
C   C23       1.0  0.02860  0.10500  0.51030  1.0000 -0.0904463164
C   C24       1.0  0.47140  0.60500  0.48970  1.0000 -0.0904463164
C   C25       1.0  0.91480  0.86660  0.55850  1.0000 -0.2037627684
C   C26       1.0  0.58520  0.36660  0.44150  1.0000 -0.2037627684
C   C27       1.0  0.08520  0.13340  0.44150  1.0000 -0.2037627684
C   C28       1.0  0.41480  0.63340  0.55850  1.0000 -0.2037627684
C   C29       1.0  0.82260  0.88770  0.34600  1.0000 0.440162588
C   C30       1.0  0.67740  0.38770  0.65400  1.0000 0.440162588
C   C31       1.0  0.17740  0.11230  0.65400  1.0000 0.440162588
C   C32       1.0  0.32260  0.61230  0.34600  1.0000 0.440162588
C   C33       1.0  0.61000  0.79860  0.99210  1.0000 -0.1457935571
C   C34       1.0  0.89000  0.29860  0.00790  1.0000 -0.1457935571
C   C35       1.0  0.39000  0.20140  0.00790  1.0000 -0.1457935571
C   C36       1.0  0.11000  0.70140  0.99210  1.0000 -0.1457935571
C   C37       1.0  0.58080  0.85580  0.99690  1.0000 -0.2037627684
C   C38       1.0  0.91920  0.35580  0.00310  1.0000 -0.2037627684
C   C39       1.0  0.41920  0.14420  0.00310  1.0000 -0.2037627684
C   C40       1.0  0.08080  0.64420  0.99690  1.0000 -0.2037627684
C   C41       1.0  0.51690  0.86960  0.07630  1.0000 -0.0904463164
C   C42       1.0  0.98310  0.36960  0.92370  1.0000 -0.0846738852
C   C43       1.0  0.48310  0.13040  0.92370  1.0000 -0.0846738852
C   C44       1.0  0.01690  0.63040  0.07630  1.0000 -0.0904463164
C   C45       1.0  0.67640  0.87850  0.21890  1.0000 0.440162588
C   C46       1.0  0.82360  0.37850  0.78110  1.0000 0.440162588
C   C47       1.0  0.32360  0.12150  0.78110  1.0000 0.440162588
C   C48       1.0  0.17640  0.62150  0.21890  1.0000 0.440162588
C   C49       1.0  0.44960  0.15230  0.28290  1.0000 0.6382352822
C   C50       1.0  0.05040  0.65230  0.71710  1.0000 0.6382352822
C   C51       1.0  0.55040  0.84770  0.71710  1.0000 0.6382352822
C   C52       1.0  0.94960  0.34770  0.28290  1.0000 0.6382352822
C   C53       1.0  0.67030  0.79700  0.14750  1.0000 -0.0904463164
C   C54       1.0  0.82970  0.29700  0.85250  1.0000 -0.0904463164
C   C55       1.0  0.32970  0.20300  0.85250  1.0000 -0.0904463164
C   C56       1.0  0.17030  0.70300  0.14750  1.0000 -0.0904463164
C   C57       1.0  0.73120  0.78140  0.06980  1.0000 -0.2110071368
C   C58       1.0  0.76880  0.28140  0.93020  1.0000 -0.2110071368
C   C59       1.0  0.26880  0.21860  0.93020  1.0000 -0.2110071368
C   C60       1.0  0.23120  0.71860  0.06980  1.0000 -0.2110071368
C   C61       1.0  0.66230  0.94980  0.28780  1.0000 0.4338436686
C   C62       1.0  0.83770  0.44980  0.71220  1.0000 0.4338436686
C   C63       1.0  0.33770  0.05020  0.71220  1.0000 0.4338436686
C   C64       1.0  0.16230  0.55020  0.28780  1.0000 0.4338436686
C   C65       1.0  0.45820  0.09540  0.29920  1.0000 -0.1132282055
C   C66       1.0  0.04180  0.59540  0.70080  1.0000 -0.1132282055
C   C67       1.0  0.54180  0.90460  0.70080  1.0000 -0.1132282055
C   C68       1.0  0.95820  0.40460  0.29920  1.0000 -0.1132282055
C   C69       1.0  0.61520  0.07740  0.35870  1.0000 -0.2110071368
C   C70       1.0  0.88480  0.57740  0.64130  1.0000 -0.2110071368
C   C71       1.0  0.38480  0.92260  0.64130  1.0000 -0.2110071368
C   C72       1.0  0.11520  0.42260  0.35870  1.0000 -0.2110071368
C   C73       1.0  0.45070  0.06810  0.21760  1.0000 -0.2110071368
C   C74       1.0  0.04930  0.56810  0.78240  1.0000 -0.2110071368
C   C75       1.0  0.54930  0.93190  0.78240  1.0000 -0.2110071368
C   C76       1.0  0.95070  0.43190  0.21760  1.0000 -0.2110071368
C   C77       1.0  0.45010  0.01160  0.22970  1.0000 -0.0904463164
C   C78       1.0  0.04990  0.51160  0.77030  1.0000 -0.0904463164
C   C79       1.0  0.54990  0.98840  0.77030  1.0000 -0.0904463164
C   C80       1.0  0.95010  0.48840  0.22970  1.0000 -0.0904463164
C   C81       1.0  0.60970  0.02210  0.37080  1.0000 -0.0904463164
C   C82       1.0  0.89030  0.52210  0.62920  1.0000 -0.097493352
C   C83       1.0  0.39030  0.97790  0.62920  1.0000 -0.097493352
C   C84       1.0  0.10970  0.47790  0.37080  1.0000 -0.097493352
N   N1        1.0  0.92560  0.86840  0.41300  1.0000 -0.097493352
N   N2        1.0  0.57440  0.36840  0.58700  1.0000 -0.097493352
N   N3        1.0  0.07440  0.13160  0.58700  1.0000 -0.097493352
N   N4        1.0  0.42560  0.63160  0.41300  1.0000 -0.097493352
N   N5        1.0  0.78130  0.85740  0.28240  1.0000 -0.5415174848
N   N6        1.0  0.71870  0.35740  0.71760  1.0000 -0.5415174848
N   N7        1.0  0.21870  0.14260  0.71760  1.0000 -0.5415174848
N   N8        1.0  0.28130  0.64260  0.28240  1.0000 -0.5415174848
N   N9        1.0  0.76790  0.93350  0.35280  1.0000 -0.5302701479
N   N10       1.0  0.73210  0.43350  0.64720  1.0000 -0.5302701479
N   N11       1.0  0.23210  0.06650  0.64720  1.0000 -0.5302701479
N   N12       1.0  0.26790  0.56650  0.35280  1.0000 -0.5302701479
N   N13       1.0  0.63320  0.85050  0.14870  1.0000 -0.1195561382
N   N14       1.0  0.86680  0.35050  0.85130  1.0000 -0.1195561382
N   N15       1.0  0.36680  0.14950  0.85130  1.0000 -0.1195561382
N   N16       1.0  0.13320  0.64950  0.14870  1.0000 -0.1195561382
N   N17       1.0  0.61090  0.92390  0.21750  1.0000 -0.5239286757
N   N18       1.0  0.88910  0.42390  0.78250  1.0000 -0.5239286757
N   N19       1.0  0.38910  0.07610  0.78250  1.0000 -0.5239286757
N   N20       1.0  0.11090  0.57610  0.21750  1.0000 -0.5239286757
N   N21       1.0  0.59230  0.99660  0.29190  1.0000 -0.1195561382
N   N22       1.0  0.90770  0.49660  0.70810  1.0000 -0.1195561382
N   N23       1.0  0.40770  0.00340  0.70810  1.0000 -0.1195561382
N   N24       1.0  0.09230  0.50340  0.29190  1.0000 -0.1195561382
O   O1        1.0  0.77900  0.76500  0.61910  1.0000 -0.6128151304
O   O2        1.0  0.72100  0.26500  0.38090  1.0000 -0.6128151304
O   O3        1.0  0.22100  0.23500  0.38090  1.0000 -0.6128151304
O   O4        1.0  0.27900  0.73500  0.61910  1.0000 -0.6128151304
O   O5        1.0  0.01270  0.78450  0.70460  1.0000 -0.808743704
O   O6        1.0  0.48730  0.28450  0.29540  1.0000 -0.808743704
O   O7        1.0  0.98730  0.21550  0.29540  1.0000 -0.808743704
O   O8        1.0  0.51270  0.71550  0.70460  1.0000 -0.808743704
O   O9        1.0  0.81050  0.78770  0.90970  1.0000 -0.5958157665
O   O10       1.0  0.68950  0.28770  0.09030  1.0000 -0.5958157665
O   O11       1.0  0.18950  0.21230  0.09030  1.0000 -0.5958157665
O   O12       1.0  0.31050  0.71230  0.90970  1.0000 -0.5958157665
O   O13       1.0  0.58720  0.17550  0.29120  1.0000 -0.6963252461
O   O14       1.0  0.91280  0.67550  0.70880  1.0000 -0.6963252461
O   O15       1.0  0.41280  0.82450  0.70880  1.0000 -0.6963252461
O   O16       1.0  0.08720  0.32450  0.29120  1.0000 -0.6963252461
O   O17       1.0  0.55750  0.76630  0.85560  1.0000 -0.7526396251
O   O18       1.0  0.94250  0.26630  0.14440  1.0000 -0.7526396251
O   O19       1.0  0.44250  0.23370  0.14440  1.0000 -0.7526396251
O   O20       1.0  0.05750  0.73370  0.85560  1.0000 -0.7526396251
O   O21       1.0  0.30900  0.17080  0.26000  1.0000 -0.6340446956
O   O22       1.0  0.19100  0.67080  0.74000  1.0000 -0.6340446956
O   O23       1.0  0.69100  0.82920  0.74000  1.0000 -0.6340446956
O   O24       1.0  0.80900  0.32920  0.26000  1.0000 -0.6340446956
