# DDEC6 charges by PACMAN v1.1 (https://github.com/mtap-research/PACMAN-charge/)
data_2013[Ce][nan]3[ASR]3
_chemical_formula_sum              "Ce2 H18 C42 S6 O12"
_cell_length_a       14.1969
_cell_length_b       14.1969
_cell_length_c       8.172
_cell_angle_alpha    88.9524
_cell_angle_beta     91.0476
_cell_angle_gamma    110.241

_symmetry_space_group_name_H-M    "P 1"
_symmetry_Int_Tables_number       1

loop_
  _symmetry_equiv_pos_as_xyz
  'x, y, z'

loop_
  _atom_site_type_symbol
  _atom_site_label
  _atom_site_symmetry_multiplicity
  _atom_site_fract_x
  _atom_site_fract_y
  _atom_site_fract_z
  _atom_site_occupancy
  _atom_site_charge
Ce  Ce1       1.0  0.08553  0.94757  0.39888  1.0000 1.9669756496
Ce  Ce2       1.0  0.05243  0.91447  0.89888  1.0000 1.9669756496
H   H1        1.0  0.70070  0.13310  0.90260  1.0000 0.1113993011
H   H2        1.0  0.86690  0.29930  0.40260  1.0000 0.1113993011
H   H3        1.0  0.89510  0.41470  0.97250  1.0000 0.1113993011
H   H4        1.0  0.58530  0.10490  0.47250  1.0000 0.1113993011
H   H5        1.0  0.60860  0.33960  0.12290  1.0000 0.1113993011
H   H6        1.0  0.66040  0.39140  0.62290  1.0000 0.1113993011
H   H7        1.0  0.35000  0.95280  0.94070  1.0000 0.1388283239
H   H8        1.0  0.04720  0.65000  0.44070  1.0000 0.1388283239
H   H9        1.0  0.52820  0.03800  0.87450  1.0000 0.1290369534
H   H10       1.0  0.96200  0.47180  0.37450  1.0000 0.1290369534
H   H11       1.0  0.08780  0.29980  0.61780  1.0000 0.1388283239
H   H12       1.0  0.70020  0.91220  0.11780  1.0000 0.1388283239
H   H13       1.0  0.99150  0.38330  0.77020  1.0000 0.123939892
H   H14       1.0  0.61670  0.00850  0.27020  1.0000 0.123939892
H   H15       1.0  0.73400  0.65880  0.35080  1.0000 0.1388283239
H   H16       1.0  0.34120  0.26600  0.85080  1.0000 0.1388283239
H   H17       1.0  0.65590  0.48250  0.27070  1.0000 0.1290369534
H   H18       1.0  0.51750  0.34410  0.77070  1.0000 0.1290369534
C   C1        1.0  0.63820  0.22380  0.01740  1.0000 0.1113993011
C   C2        1.0  0.77620  0.36180  0.51740  1.0000 0.1113993011
C   C3        1.0  0.71430  0.19930  0.94120  1.0000 -0.1909365153
C   C4        1.0  0.80070  0.28570  0.44120  1.0000 -0.1909365153
C   C5        1.0  0.81010  0.27130  0.92120  1.0000 0.1006699035
C   C6        1.0  0.72870  0.18990  0.42120  1.0000 0.1006699035
C   C7        1.0  0.82940  0.36660  0.98240  1.0000 -0.2092291063
C   C8        1.0  0.63340  0.17060  0.48240  1.0000 -0.2092291063
C   C9        1.0  0.75620  0.39420  0.05780  1.0000 0.1006699035
C   C10       1.0  0.60580  0.24380  0.55780  1.0000 0.1006699035
C   C11       1.0  0.66000  0.32180  0.07330  1.0000 -0.2000287569
C   C12       1.0  0.67820  0.34000  0.57330  1.0000 -0.2000287569
C   C13       1.0  0.53580  0.14880  0.03360  1.0000 -0.0185633225
C   C14       1.0  0.85120  0.46420  0.53360  1.0000 -0.0185633225
C   C15       1.0  0.35870  0.06430  0.10170  1.0000 -0.0972618779
C   C16       1.0  0.93570  0.64130  0.60170  1.0000 -0.0972618779
C   C17       1.0  0.39120  0.01400  0.98870  1.0000 -0.121210227
C   C18       1.0  0.98600  0.60880  0.48870  1.0000 -0.121210227
C   C19       1.0  0.49310  0.06290  0.95070  1.0000 -0.1718592441
C   C20       1.0  0.93710  0.50690  0.45070  1.0000 -0.1718592441
C   C21       1.0  0.25550  0.03610  0.17360  1.0000 0.6006495559
C   C22       1.0  0.96390  0.74450  0.67360  1.0000 0.6006495559
C   C23       1.0  0.88730  0.24570  0.83480  1.0000 -0.0185633225
C   C24       1.0  0.75430  0.11270  0.33480  1.0000 -0.0185633225
C   C25       1.0  0.98690  0.16050  0.68690  1.0000 -0.1450960732
C   C26       1.0  0.83950  0.01310  0.18690  1.0000 -0.1450960732
C   C27       1.0  0.02850  0.26470  0.67640  1.0000 -0.0972618779
C   C28       1.0  0.73530  0.97150  0.17640  1.0000 -0.0972618779
C   C29       1.0  0.97250  0.31250  0.76260  1.0000 -0.1758064723
C   C30       1.0  0.68750  0.02750  0.26260  1.0000 -0.1758064723
C   C31       1.0  0.02240  0.08800  0.60980  1.0000 0.5680157149
C   C32       1.0  0.91200  0.97760  0.10980  1.0000 0.5680157149
C   C33       1.0  0.77710  0.49550  0.12710  1.0000 -0.0296071556
C   C34       1.0  0.50450  0.22290  0.62710  1.0000 -0.0296071556
C   C35       1.0  0.85420  0.67160  0.20470  1.0000 -0.1082428454
C   C36       1.0  0.32840  0.14580  0.70470  1.0000 -0.1082428454
C   C37       1.0  0.76350  0.62610  0.27770  1.0000 -0.1082428454
C   C38       1.0  0.37390  0.23650  0.77770  1.0000 -0.1082428454
C   C39       1.0  0.71920  0.52540  0.23240  1.0000 -0.1718592441
C   C40       1.0  0.47460  0.28080  0.73240  1.0000 -0.1718592441
C   C41       1.0  0.92510  0.77370  0.24110  1.0000 0.5843689048
C   C42       1.0  0.22630  0.07490  0.74110  1.0000 0.5843689048
S   S1        1.0  0.45201  0.17027  0.16620  1.0000 0.1388283239
S   S2        1.0  0.82973  0.54799  0.66620  1.0000 0.1388283239
S   S3        1.0  0.87954  0.12400  0.80310  1.0000 0.1502269113
S   S4        1.0  0.87600  0.12046  0.30310  1.0000 0.1502269113
S   S5        1.0  0.88530  0.59296  0.08030  1.0000 0.1502269113
S   S6        1.0  0.40704  0.11470  0.58030  1.0000 0.1502269113
O   O1        1.0  0.18540  0.96360  0.11040  1.0000 -0.6731158292
O   O2        1.0  0.03640  0.81460  0.61040  1.0000 -0.6731158292
O   O3        1.0  0.24140  0.08180  0.29580  1.0000 -0.5770230687
O   O4        1.0  0.91820  0.75860  0.79580  1.0000 -0.5770230687
O   O5        1.0  0.08420  0.11520  0.49540  1.0000 -0.5497240371
O   O6        1.0  0.88480  0.91580  0.99540  1.0000 -0.5497240371
O   O7        1.0  0.98830  0.99470  0.65820  1.0000 -0.6887567138
O   O8        1.0  0.00530  0.01170  0.15820  1.0000 -0.6887567138
O   O9        1.0  0.90520  0.82600  0.34940  1.0000 -0.5497240371
O   O10       1.0  0.17400  0.09480  0.84940  1.0000 -0.5497240371
O   O11       1.0  0.00910  0.80730  0.16390  1.0000 -0.7026151812
O   O12       1.0  0.19270  0.99090  0.66390  1.0000 -0.7026151812
