# DDEC6 charges by PACMAN v1.1 (https://github.com/mtap-research/PACMAN-charge/)
data_2013[Zr][flu]3[ASR]1
_chemical_formula_sum              "Zr6 H64 C106 O24"
_cell_length_a       25.397
_cell_length_b       25.397
_cell_length_c       25.397
_cell_angle_alpha    133.781
_cell_angle_beta     133.781
_cell_angle_gamma    67.4297

_symmetry_space_group_name_H-M    "P 1"
_symmetry_Int_Tables_number       1

loop_
  _symmetry_equiv_pos_as_xyz
  'x, y, z'

loop_
  _atom_site_type_symbol
  _atom_site_label
  _atom_site_symmetry_multiplicity
  _atom_site_fract_x
  _atom_site_fract_y
  _atom_site_fract_z
  _atom_site_occupancy
  _atom_site_charge
Zr  Zr1       1.0  0.05781  0.05781  0.00000  1.0000 2.3117129238
Zr  Zr2       1.0  0.94219  0.94219  0.00000  1.0000 2.3117129238
Zr  Zr3       1.0  0.12513  0.00084  0.12597  1.0000 2.4858807953
Zr  Zr4       1.0  0.00084  0.87487  0.87571  1.0000 2.4858807953
Zr  Zr5       1.0  0.87487  0.99916  0.87403  1.0000 2.4858807953
Zr  Zr6       1.0  0.99916  0.12513  0.12429  1.0000 2.4858807953
H   H1        1.0  0.27150  0.11870  0.11620  1.0000 0.126339923
H   H2        1.0  0.11870  0.00250  0.84720  1.0000 0.126339923
H   H3        1.0  0.00250  0.15530  0.88380  1.0000 0.126339923
H   H4        1.0  0.15530  0.27150  0.15280  1.0000 0.126339923
H   H5        1.0  0.72850  0.88130  0.88380  1.0000 0.126339923
H   H6        1.0  0.88130  0.99750  0.15280  1.0000 0.126339923
H   H7        1.0  0.99750  0.84470  0.11620  1.0000 0.126339923
H   H8        1.0  0.84470  0.72850  0.84720  1.0000 0.126339923
H   H9        1.0  0.38930  0.16680  0.19750  1.0000 0.111809373
H   H10       1.0  0.16680  0.96930  0.77750  1.0000 0.111809373
H   H11       1.0  0.96930  0.19180  0.80250  1.0000 0.111809373
H   H12       1.0  0.19180  0.38930  0.22250  1.0000 0.111809373
H   H13       1.0  0.61070  0.83320  0.80250  1.0000 0.111809373
H   H14       1.0  0.83320  0.03070  0.22250  1.0000 0.111809373
H   H15       1.0  0.03070  0.80820  0.19750  1.0000 0.111809373
H   H16       1.0  0.80820  0.61070  0.77750  1.0000 0.111809373
H   H17       1.0  0.47860  0.15090  0.39290  1.0000 0.1185157289
H   H18       1.0  0.15090  0.75800  0.67230  1.0000 0.1185157289
H   H19       1.0  0.75800  0.08570  0.60710  1.0000 0.1185157289
H   H20       1.0  0.08570  0.47860  0.32770  1.0000 0.1185157289
H   H21       1.0  0.52140  0.84910  0.60710  1.0000 0.1185157289
H   H22       1.0  0.84910  0.24200  0.32770  1.0000 0.1185157289
H   H23       1.0  0.24200  0.91430  0.39290  1.0000 0.1185157289
H   H24       1.0  0.91430  0.52140  0.67230  1.0000 0.1185157289
H   H25       1.0  0.36080  0.10280  0.31160  1.0000 0.111809373
H   H26       1.0  0.10280  0.79120  0.74200  1.0000 0.111809373
H   H27       1.0  0.79120  0.04920  0.68840  1.0000 0.111809373
H   H28       1.0  0.04920  0.36080  0.25800  1.0000 0.1041753845
H   H29       1.0  0.63920  0.89720  0.68840  1.0000 0.111809373
H   H30       1.0  0.89720  0.20880  0.25800  1.0000 0.1041753845
H   H31       1.0  0.20880  0.95080  0.31160  1.0000 0.111809373
H   H32       1.0  0.95080  0.63920  0.74200  1.0000 0.111809373
H   H33       1.0  0.50700  0.12450  0.23210  1.0000 0.111809373
H   H34       1.0  0.12450  0.89240  0.61750  1.0000 0.111809373
H   H35       1.0  0.89240  0.27490  0.76790  1.0000 0.1185157289
H   H36       1.0  0.27490  0.50700  0.38250  1.0000 0.111809373
H   H37       1.0  0.49300  0.87550  0.76790  1.0000 0.111809373
H   H38       1.0  0.87550  0.10760  0.38250  1.0000 0.111809373
H   H39       1.0  0.10760  0.72510  0.23210  1.0000 0.111809373
H   H40       1.0  0.72510  0.49300  0.61750  1.0000 0.111809373
H   H41       1.0  0.62950  0.15310  0.30620  1.0000 0.1185157289
H   H42       1.0  0.15310  0.84690  0.52360  1.0000 0.1185157289
H   H43       1.0  0.84690  0.32330  0.69380  1.0000 0.1185157289
H   H44       1.0  0.32330  0.62950  0.47640  1.0000 0.1185157289
H   H45       1.0  0.37050  0.84690  0.69380  1.0000 0.1185157289
H   H46       1.0  0.84690  0.15310  0.47640  1.0000 0.1185157289
H   H47       1.0  0.15310  0.67670  0.30620  1.0000 0.1185157289
H   H48       1.0  0.67670  0.37050  0.52360  1.0000 0.1185157289
H   H49       1.0  0.68290  0.29350  0.56340  1.0000 0.111809373
H   H50       1.0  0.29350  0.73010  0.61060  1.0000 0.111809373
H   H51       1.0  0.73010  0.11950  0.43660  1.0000 0.111809373
H   H52       1.0  0.11950  0.68290  0.38940  1.0000 0.111809373
H   H53       1.0  0.31710  0.70650  0.43660  1.0000 0.111809373
H   H54       1.0  0.70650  0.26990  0.38940  1.0000 0.111809373
H   H55       1.0  0.26990  0.88050  0.56340  1.0000 0.111809373
H   H56       1.0  0.88050  0.31710  0.61060  1.0000 0.111809373
H   H57       1.0  0.56060  0.26490  0.48930  1.0000 0.1185157289
H   H58       1.0  0.26490  0.77560  0.70430  1.0000 0.1185157289
H   H59       1.0  0.77560  0.07130  0.51070  1.0000 0.1185157289
H   H60       1.0  0.07130  0.56060  0.29570  1.0000 0.1185157289
H   H61       1.0  0.43940  0.73510  0.51070  1.0000 0.1185157289
H   H62       1.0  0.73510  0.22440  0.29570  1.0000 0.1185157289
H   H63       1.0  0.22440  0.92870  0.48930  1.0000 0.1185157289
H   H64       1.0  0.92870  0.43940  0.70430  1.0000 0.1185157289
C   C1        1.0  0.22885  0.07645  0.15080  1.0000 0.6272721918
C   C2        1.0  0.07645  0.92565  0.84760  1.0000 0.6272721918
C   C3        1.0  0.92565  0.07805  0.84920  1.0000 0.6272721918
C   C4        1.0  0.07805  0.22885  0.15240  1.0000 0.6272721918
C   C5        1.0  0.77115  0.92355  0.84920  1.0000 0.6272721918
C   C6        1.0  0.92355  0.07435  0.15240  1.0000 0.6272721918
C   C7        1.0  0.07435  0.92195  0.15080  1.0000 0.6272721918
C   C8        1.0  0.92195  0.77115  0.84760  1.0000 0.6272721918
C   C9        1.0  0.30511  0.10621  0.20630  1.0000 -0.0537765516
C   C10       1.0  0.10621  0.89991  0.80110  1.0000 -0.0551953619
C   C11       1.0  0.89991  0.09881  0.79370  1.0000 -0.0537765516
C   C12       1.0  0.09881  0.30511  0.19890  1.0000 -0.0537765516
C   C13       1.0  0.69489  0.89379  0.79370  1.0000 -0.0537765516
C   C14       1.0  0.89379  0.10009  0.19890  1.0000 -0.0551953619
C   C15       1.0  0.10009  0.90119  0.20630  1.0000 -0.0537765516
C   C16       1.0  0.90119  0.69489  0.80110  1.0000 -0.0537765516
C   C17       1.0  0.31361  0.12521  0.17240  1.0000 -0.0919212493
C   C18       1.0  0.12521  0.95281  0.81160  1.0000 -0.0919212493
C   C19       1.0  0.95281  0.14121  0.82760  1.0000 -0.0919212493
C   C20       1.0  0.14121  0.31361  0.18840  1.0000 -0.0919212493
C   C21       1.0  0.68639  0.87479  0.82760  1.0000 -0.0919212493
C   C22       1.0  0.87479  0.04719  0.18840  1.0000 -0.0919212493
C   C23       1.0  0.04719  0.85879  0.17240  1.0000 -0.0919212493
C   C24       1.0  0.85879  0.68639  0.81160  1.0000 -0.0919212493
C   C25       1.0  0.38356  0.15386  0.22070  1.0000 -0.1656548051
C   C26       1.0  0.15386  0.93316  0.77030  1.0000 -0.1656548051
C   C27       1.0  0.93316  0.16286  0.77930  1.0000 -0.1656548051
C   C28       1.0  0.16286  0.38356  0.22970  1.0000 -0.1656548051
C   C29       1.0  0.61644  0.84614  0.77930  1.0000 -0.1656548051
C   C30       1.0  0.84614  0.06684  0.22970  1.0000 -0.1656548051
C   C31       1.0  0.06684  0.83714  0.22070  1.0000 -0.1656548051
C   C32       1.0  0.83714  0.61644  0.77030  1.0000 -0.1656548051
C   C33       1.0  0.44501  0.16341  0.30280  1.0000 0.0690635647
C   C34       1.0  0.16341  0.86061  0.71840  1.0000 0.0690635647
C   C35       1.0  0.86061  0.14221  0.69720  1.0000 0.0690635647
C   C36       1.0  0.14221  0.44501  0.28160  1.0000 0.0690635647
C   C37       1.0  0.55499  0.83659  0.69720  1.0000 0.0690635647
C   C38       1.0  0.83659  0.13939  0.28160  1.0000 0.0690635647
C   C39       1.0  0.13939  0.85779  0.30280  1.0000 0.0690635647
C   C40       1.0  0.85779  0.55499  0.71840  1.0000 0.0690635647
C   C41       1.0  0.43652  0.14442  0.33670  1.0000 -0.1595099152
C   C42       1.0  0.14442  0.80772  0.70790  1.0000 -0.1595099152
C   C43       1.0  0.80772  0.09982  0.66330  1.0000 -0.1595099152
C   C44       1.0  0.09982  0.43652  0.29210  1.0000 -0.1595099152
C   C45       1.0  0.56348  0.85558  0.66330  1.0000 -0.1595099152
C   C46       1.0  0.85558  0.19228  0.29210  1.0000 -0.1595099152
C   C47       1.0  0.19228  0.90018  0.33670  1.0000 -0.1595099152
C   C48       1.0  0.90018  0.56348  0.70790  1.0000 -0.1595099152
C   C49       1.0  0.36657  0.11577  0.28840  1.0000 -0.0842479361
C   C50       1.0  0.11577  0.82737  0.74920  1.0000 -0.0842479361
C   C51       1.0  0.82737  0.07817  0.71160  1.0000 -0.0842479361
C   C52       1.0  0.07817  0.36657  0.25080  1.0000 -0.0842479361
C   C53       1.0  0.63343  0.88423  0.71160  1.0000 -0.0919212493
C   C54       1.0  0.88423  0.17263  0.25080  1.0000 -0.0842479361
C   C55       1.0  0.17263  0.92183  0.28840  1.0000 -0.0842479361
C   C56       1.0  0.92183  0.63343  0.74920  1.0000 -0.0842479361
C   C57       1.0  0.52231  0.19201  0.35370  1.0000 0.0690635647
C   C58       1.0  0.19201  0.83831  0.66970  1.0000 0.0690635647
C   C59       1.0  0.83831  0.16861  0.64630  1.0000 0.0690635647
C   C60       1.0  0.16861  0.52231  0.33030  1.0000 0.0690635647
C   C61       1.0  0.47769  0.80799  0.64630  1.0000 0.0690635647
C   C62       1.0  0.80799  0.16169  0.33030  1.0000 0.0690635647
C   C63       1.0  0.16169  0.83139  0.35370  1.0000 0.0690635647
C   C64       1.0  0.83139  0.47769  0.66970  1.0000 0.0690635647
C   C65       1.0  0.54272  0.15882  0.29930  1.0000 -0.151354496
C   C66       1.0  0.15882  0.85952  0.61610  1.0000 -0.151354496
C   C67       1.0  0.85952  0.24342  0.70070  1.0000 -0.151354496
C   C68       1.0  0.24342  0.54272  0.38390  1.0000 -0.151354496
C   C69       1.0  0.45728  0.84118  0.70070  1.0000 -0.151354496
C   C70       1.0  0.84118  0.14048  0.38390  1.0000 -0.151354496
C   C71       1.0  0.14048  0.75658  0.29930  1.0000 -0.151354496
C   C72       1.0  0.75658  0.45728  0.61610  1.0000 -0.151354496
C   C73       1.0  0.61544  0.17584  0.34340  1.0000 -0.1595099152
C   C74       1.0  0.17584  0.83244  0.56040  1.0000 -0.1595099152
C   C75       1.0  0.83244  0.27204  0.65660  1.0000 -0.1595099152
C   C76       1.0  0.27204  0.61544  0.43960  1.0000 -0.1595099152
C   C77       1.0  0.38456  0.82416  0.65660  1.0000 -0.1595099152
C   C78       1.0  0.82416  0.16756  0.43960  1.0000 -0.1595099152
C   C79       1.0  0.16756  0.72796  0.34340  1.0000 -0.1595099152
C   C80       1.0  0.72796  0.38456  0.56040  1.0000 -0.1595099152
C   C81       1.0  0.66766  0.22596  0.44170  1.0000 0.0420865998
C   C82       1.0  0.22596  0.78426  0.55830  1.0000 0.0420865998
C   C83       1.0  0.78426  0.22596  0.55830  1.0000 0.0420865998
C   C84       1.0  0.22596  0.66766  0.44170  1.0000 0.0420865998
C   C85       1.0  0.33234  0.77404  0.55830  1.0000 0.0420865998
C   C86       1.0  0.77404  0.21574  0.44170  1.0000 0.0420865998
C   C87       1.0  0.21574  0.77404  0.44170  1.0000 0.0420865998
C   C88       1.0  0.77404  0.33234  0.55830  1.0000 0.0420865998
C   C89       1.0  0.64726  0.25916  0.49610  1.0000 -0.151354496
C   C90       1.0  0.25916  0.76306  0.61190  1.0000 -0.151354496
C   C91       1.0  0.76306  0.15116  0.50390  1.0000 -0.151354496
C   C92       1.0  0.15116  0.64726  0.38810  1.0000 -0.151354496
C   C93       1.0  0.35274  0.74084  0.50390  1.0000 -0.151354496
C   C94       1.0  0.74084  0.23694  0.38810  1.0000 -0.151354496
C   C95       1.0  0.23694  0.84884  0.49610  1.0000 -0.151354496
C   C96       1.0  0.84884  0.35274  0.61190  1.0000 -0.151354496
C   C97       1.0  0.57453  0.24223  0.45210  1.0000 -0.1595099152
C   C98       1.0  0.24223  0.79013  0.66770  1.0000 -0.1595099152
C   C99       1.0  0.79013  0.12243  0.54790  1.0000 -0.1595099152
C   C100      1.0  0.12243  0.57453  0.33230  1.0000 -0.1595099152
C   C101      1.0  0.42547  0.75777  0.54790  1.0000 -0.1595099152
C   C102      1.0  0.75777  0.20987  0.33230  1.0000 -0.1595099152
C   C103      1.0  0.20987  0.87757  0.45210  1.0000 -0.1595099152
C   C104      1.0  0.87757  0.42547  0.66770  1.0000 -0.1595099152
C   C105      1.0  0.75000  0.25000  0.50000  1.0000 -0.0089718593
C   C106      1.0  0.25000  0.75000  0.50000  1.0000 -0.0089718593
O   O1        1.0  0.17683  0.08523  0.09320  1.0000 -0.5433709888
O   O2        1.0  0.08523  0.99203  0.90840  1.0000 -0.5433709888
O   O3        1.0  0.99203  0.08363  0.90680  1.0000 -0.5433709888
O   O4        1.0  0.08363  0.17683  0.09160  1.0000 -0.5433709888
O   O5        1.0  0.82317  0.91477  0.90680  1.0000 -0.5433709888
O   O6        1.0  0.91477  0.00797  0.09160  1.0000 -0.5433709888
O   O7        1.0  0.00797  0.91637  0.09320  1.0000 -0.5433709888
O   O8        1.0  0.91637  0.82317  0.90840  1.0000 -0.5433709888
O   O9        1.0  0.22412  0.05102  0.17930  1.0000 -0.6479541628
O   O10       1.0  0.05102  0.87172  0.82690  1.0000 -0.6479541628
O   O11       1.0  0.87172  0.04482  0.82070  1.0000 -0.6479541628
O   O12       1.0  0.04482  0.22412  0.17310  1.0000 -0.6479541628
O   O13       1.0  0.77588  0.94898  0.82070  1.0000 -0.6479541628
O   O14       1.0  0.94898  0.12828  0.17310  1.0000 -0.6479541628
O   O15       1.0  0.12828  0.95518  0.17930  1.0000 -0.6479541628
O   O16       1.0  0.95518  0.77588  0.82690  1.0000 -0.6479541628
O   O17       1.0  0.09181  0.96381  0.99900  1.0000 -1.1885551183
O   O18       1.0  0.96381  0.96481  0.87200  1.0000 -1.1833985416
O   O19       1.0  0.96481  0.09281  0.00100  1.0000 -1.1833985416
O   O20       1.0  0.09281  0.09181  0.12800  1.0000 -1.1833985416
O   O21       1.0  0.90819  0.03619  0.00100  1.0000 -1.1833985416
O   O22       1.0  0.03619  0.03519  0.12800  1.0000 -1.1833985416
O   O23       1.0  0.03519  0.90719  0.99900  1.0000 -1.1885551183
O   O24       1.0  0.90719  0.90819  0.87200  1.0000 -1.1833985416
