# DDEC6 charges by PACMAN v1.1 (https://github.com/mtap-research/PACMAN-charge/)
data_2013[Zn][uni]3[ASR]8
_chemical_formula_sum              "Zn6 H66 C54 N12 Cl6 O12"
_cell_length_a       17.4587
_cell_length_b       17.4587
_cell_length_c       10.2447
_cell_angle_alpha    90
_cell_angle_beta     90
_cell_angle_gamma    120

_symmetry_space_group_name_H-M    "P 1"
_symmetry_Int_Tables_number       1

loop_
  _symmetry_equiv_pos_as_xyz
  'x, y, z'

loop_
  _atom_site_type_symbol
  _atom_site_label
  _atom_site_symmetry_multiplicity
  _atom_site_fract_x
  _atom_site_fract_y
  _atom_site_fract_z
  _atom_site_occupancy
  _atom_site_charge
Zn  Zn1       1.0  0.54190  0.07503  0.15431  1.0000 0.7222423879
Zn  Zn2       1.0  0.46687  0.54190  0.32098  1.0000 0.7222423879
Zn  Zn3       1.0  0.92497  0.46687  0.48764  1.0000 0.7222423879
Zn  Zn4       1.0  0.45810  0.92497  0.65431  1.0000 0.7222423879
Zn  Zn5       1.0  0.53313  0.45810  0.82098  1.0000 0.7222423879
Zn  Zn6       1.0  0.07503  0.53313  0.98764  1.0000 0.7222423879
H   H1        1.0  0.46450  0.92590  0.04580  1.0000 0.249666187
H   H2        1.0  0.53860  0.46450  0.21247  1.0000 0.249666187
H   H3        1.0  0.07410  0.53860  0.37913  1.0000 0.249666187
H   H4        1.0  0.53550  0.07410  0.54580  1.0000 0.249666187
H   H5        1.0  0.46140  0.53550  0.71247  1.0000 0.249666187
H   H6        1.0  0.92590  0.46140  0.87913  1.0000 0.249666187
H   H7        1.0  0.52140  0.83660  0.12030  1.0000 0.1226232253
H   H8        1.0  0.68480  0.52140  0.28697  1.0000 0.1226232253
H   H9        1.0  0.16340  0.68480  0.45363  1.0000 0.1226232253
H   H10       1.0  0.47860  0.16340  0.62030  1.0000 0.1226232253
H   H11       1.0  0.31520  0.47860  0.78697  1.0000 0.1226232253
H   H12       1.0  0.83660  0.31520  0.95363  1.0000 0.1226232253
H   H13       1.0  0.54220  0.84100  0.26990  1.0000 0.1495242854
H   H14       1.0  0.70120  0.54220  0.43657  1.0000 0.1495242854
H   H15       1.0  0.15900  0.70120  0.60323  1.0000 0.1495242854
H   H16       1.0  0.45780  0.15900  0.76990  1.0000 0.1495242854
H   H17       1.0  0.29880  0.45780  0.93657  1.0000 0.1495242854
H   H18       1.0  0.84100  0.29880  0.10323  1.0000 0.1495242854
H   H19       1.0  0.58870  0.92710  0.18470  1.0000 0.1397458417
H   H20       1.0  0.66160  0.58870  0.35137  1.0000 0.1397458417
H   H21       1.0  0.07290  0.66160  0.51803  1.0000 0.1397458417
H   H22       1.0  0.41130  0.07290  0.68470  1.0000 0.1397458417
H   H23       1.0  0.33840  0.41130  0.85137  1.0000 0.1397458417
H   H24       1.0  0.92710  0.33840  0.01803  1.0000 0.1397458417
H   H25       1.0  0.40410  0.83340  0.23400  1.0000 0.1046895698
H   H26       1.0  0.57070  0.40410  0.40067  1.0000 0.1046895698
H   H27       1.0  0.16660  0.57070  0.56733  1.0000 0.1046895698
H   H28       1.0  0.59590  0.16660  0.73400  1.0000 0.1046895698
H   H29       1.0  0.42930  0.59590  0.90067  1.0000 0.1046895698
H   H30       1.0  0.83340  0.42930  0.06733  1.0000 0.1046895698
H   H31       1.0  0.20430  0.82330  0.22390  1.0000 0.1495242854
H   H32       1.0  0.38100  0.20430  0.39057  1.0000 0.1495242854
H   H33       1.0  0.17670  0.38100  0.55723  1.0000 0.1495242854
H   H34       1.0  0.79570  0.17670  0.72390  1.0000 0.1495242854
H   H35       1.0  0.61900  0.79570  0.89057  1.0000 0.1495242854
H   H36       1.0  0.82330  0.61900  0.05723  1.0000 0.1495242854
H   H37       1.0  0.10310  0.67840  0.18080  1.0000 0.1226232253
H   H38       1.0  0.42470  0.10310  0.34747  1.0000 0.1226232253
H   H39       1.0  0.32160  0.42470  0.51413  1.0000 0.1226232253
H   H40       1.0  0.89690  0.32160  0.68080  1.0000 0.1226232253
H   H41       1.0  0.57530  0.89690  0.84747  1.0000 0.1226232253
H   H42       1.0  0.67840  0.57530  0.01413  1.0000 0.1226232253
H   H43       1.0  0.35480  0.81540  0.93200  1.0000 0.1397458417
H   H44       1.0  0.53940  0.35480  0.09867  1.0000 0.1397458417
H   H45       1.0  0.18460  0.53940  0.26533  1.0000 0.1397458417
H   H46       1.0  0.64520  0.18460  0.43200  1.0000 0.1397458417
H   H47       1.0  0.46060  0.64520  0.59867  1.0000 0.1397458417
H   H48       1.0  0.81540  0.46060  0.76533  1.0000 0.1397458417
H   H49       1.0  0.24710  0.67200  0.89350  1.0000 0.1226232253
H   H50       1.0  0.57510  0.24710  0.06017  1.0000 0.1226232253
H   H51       1.0  0.32800  0.57510  0.22683  1.0000 0.1226232253
H   H52       1.0  0.75290  0.32800  0.39350  1.0000 0.1226232253
H   H53       1.0  0.42490  0.75290  0.56017  1.0000 0.1226232253
H   H54       1.0  0.67200  0.42490  0.72683  1.0000 0.1226232253
H   H55       1.0  0.36240  0.96940  0.04290  1.0000 0.1495242854
H   H56       1.0  0.39300  0.36240  0.20957  1.0000 0.1495242854
H   H57       1.0  0.03060  0.39300  0.37623  1.0000 0.1495242854
H   H58       1.0  0.63760  0.03060  0.54290  1.0000 0.1495242854
H   H59       1.0  0.60700  0.63760  0.70957  1.0000 0.1495242854
H   H60       1.0  0.96940  0.60700  0.87623  1.0000 0.1495242854
H   H61       1.0  0.34800  0.95030  0.19310  1.0000 0.1226232253
H   H62       1.0  0.39770  0.34800  0.35977  1.0000 0.1226232253
H   H63       1.0  0.04970  0.39770  0.52643  1.0000 0.1226232253
H   H64       1.0  0.65200  0.04970  0.69310  1.0000 0.1226232253
H   H65       1.0  0.60230  0.65200  0.85977  1.0000 0.1226232253
H   H66       1.0  0.95030  0.60230  0.02643  1.0000 0.1226232253
C   C1        1.0  0.53490  0.87200  0.19780  1.0000 -0.4069701604
C   C2        1.0  0.66290  0.53490  0.36447  1.0000 -0.4069701604
C   C3        1.0  0.12800  0.66290  0.53113  1.0000 -0.4069701604
C   C4        1.0  0.46510  0.12800  0.69780  1.0000 -0.4069701604
C   C5        1.0  0.33710  0.46510  0.86447  1.0000 -0.4069701604
C   C6        1.0  0.87200  0.33710  0.03113  1.0000 -0.4069701604
C   C7        1.0  0.45950  0.88990  0.22700  1.0000 0.0114280944
C   C8        1.0  0.56960  0.45950  0.39367  1.0000 0.0114280944
C   C9        1.0  0.11010  0.56960  0.56033  1.0000 0.0114280944
C   C10       1.0  0.54050  0.11010  0.72700  1.0000 0.0114280944
C   C11       1.0  0.43040  0.54050  0.89367  1.0000 0.0114280944
C   C12       1.0  0.88990  0.43040  0.06033  1.0000 0.0114280944
C   C13       1.0  0.21470  0.79370  0.15700  1.0000 -0.1986139091
C   C14       1.0  0.42100  0.21470  0.32367  1.0000 -0.1986139091
C   C15       1.0  0.20630  0.42100  0.49033  1.0000 -0.1986139091
C   C16       1.0  0.78530  0.20630  0.65700  1.0000 -0.1986139091
C   C17       1.0  0.57900  0.78530  0.82367  1.0000 -0.1986139091
C   C18       1.0  0.79370  0.57900  0.99033  1.0000 -0.1986139091
C   C19       1.0  0.15380  0.70690  0.12980  1.0000 0.0674181832
C   C20       1.0  0.44690  0.15380  0.29647  1.0000 0.0674181832
C   C21       1.0  0.29310  0.44690  0.46313  1.0000 0.0674181832
C   C22       1.0  0.84620  0.29310  0.62980  1.0000 0.0674181832
C   C23       1.0  0.55310  0.84620  0.79647  1.0000 0.0674181832
C   C24       1.0  0.70690  0.55310  0.96313  1.0000 0.0674181832
C   C25       1.0  0.47700  0.93990  0.35580  1.0000 0.5764598874
C   C26       1.0  0.53710  0.47700  0.52247  1.0000 0.5764598874
C   C27       1.0  0.06010  0.53710  0.68913  1.0000 0.5764598874
C   C28       1.0  0.52300  0.06010  0.85580  1.0000 0.5764598874
C   C29       1.0  0.46290  0.52300  0.02247  1.0000 0.5764598874
C   C30       1.0  0.93990  0.46290  0.18913  1.0000 0.5764598874
C   C31       1.0  0.29200  0.83680  0.08370  1.0000 0.1495242854
C   C32       1.0  0.45520  0.29200  0.25037  1.0000 0.1495242854
C   C33       1.0  0.16320  0.45520  0.41703  1.0000 0.1495242854
C   C34       1.0  0.70800  0.16320  0.58370  1.0000 0.1495242854
C   C35       1.0  0.54480  0.70800  0.75037  1.0000 0.1495242854
C   C36       1.0  0.83680  0.54480  0.91703  1.0000 0.1495242854
C   C37       1.0  0.30390  0.78910  0.98290  1.0000 -0.1851222785
C   C38       1.0  0.51480  0.30390  0.14957  1.0000 -0.1845347109
C   C39       1.0  0.21090  0.51480  0.31623  1.0000 -0.1845347109
C   C40       1.0  0.69610  0.21090  0.48290  1.0000 -0.1851222785
C   C41       1.0  0.48520  0.69610  0.64957  1.0000 -0.1845347109
C   C42       1.0  0.78910  0.48520  0.81623  1.0000 -0.1845347109
C   C43       1.0  0.23910  0.70300  0.96090  1.0000 0.0925901436
C   C44       1.0  0.53610  0.23910  0.12757  1.0000 0.0925901436
C   C45       1.0  0.29700  0.53610  0.29423  1.0000 0.0925901436
C   C46       1.0  0.76090  0.29700  0.46090  1.0000 0.0925901436
C   C47       1.0  0.46390  0.76090  0.62757  1.0000 0.0925901436
C   C48       1.0  0.70300  0.46390  0.79423  1.0000 0.0925901436
C   C49       1.0  0.36240  0.93150  0.11220  1.0000 -0.1609333925
C   C50       1.0  0.43090  0.36240  0.27887  1.0000 -0.1609333925
C   C51       1.0  0.06850  0.43090  0.44553  1.0000 -0.1609333925
C   C52       1.0  0.63760  0.06850  0.61220  1.0000 -0.1609333925
C   C53       1.0  0.56910  0.63760  0.77887  1.0000 -0.1609333925
C   C54       1.0  0.93150  0.56910  0.94553  1.0000 -0.1609333925
N   N1        1.0  0.45120  0.94237  0.12290  1.0000 -0.3279915027
N   N2        1.0  0.50883  0.45120  0.28957  1.0000 -0.3279915027
N   N3        1.0  0.05763  0.50883  0.45623  1.0000 -0.3279915027
N   N4        1.0  0.54880  0.05763  0.62290  1.0000 -0.3279915027
N   N5        1.0  0.49117  0.54880  0.78957  1.0000 -0.3279915027
N   N6        1.0  0.94237  0.49117  0.95623  1.0000 -0.3279915027
N   N7        1.0  0.16469  0.66159  0.03220  1.0000 -0.2259649159
N   N8        1.0  0.50310  0.16469  0.19887  1.0000 -0.2259649159
N   N9        1.0  0.33841  0.50310  0.36553  1.0000 -0.2259649159
N   N10       1.0  0.83531  0.33841  0.53220  1.0000 -0.2259649159
N   N11       1.0  0.49690  0.83531  0.69887  1.0000 -0.2259649159
N   N12       1.0  0.66159  0.49690  0.86553  1.0000 -0.2259649159
Cl  Cl1       1.0  0.68751  0.12589  0.17027  1.0000 -0.5846500965
Cl  Cl2       1.0  0.56162  0.68751  0.33694  1.0000 -0.5879178019
Cl  Cl3       1.0  0.87411  0.56162  0.50360  1.0000 -0.5846500965
Cl  Cl4       1.0  0.31249  0.87411  0.67027  1.0000 -0.5879178019
Cl  Cl5       1.0  0.43838  0.31249  0.83694  1.0000 -0.5879178019
Cl  Cl6       1.0  0.12589  0.43838  0.00360  1.0000 -0.5879178019
O   O1        1.0  0.50886  0.02240  0.35120  1.0000 -0.5566654674
O   O2        1.0  0.48646  0.50886  0.51787  1.0000 -0.5566654674
O   O3        1.0  0.97760  0.48646  0.68453  1.0000 -0.5566654674
O   O4        1.0  0.49114  0.97760  0.85120  1.0000 -0.5566654674
O   O5        1.0  0.51354  0.49114  0.01787  1.0000 -0.5566654674
O   O6        1.0  0.02240  0.51354  0.18453  1.0000 -0.5566654674
O   O7        1.0  0.46080  0.89451  0.45800  1.0000 -0.5438776982
O   O8        1.0  0.56629  0.46080  0.62467  1.0000 -0.5438776982
O   O9        1.0  0.10549  0.56629  0.79133  1.0000 -0.5438776982
O   O10       1.0  0.53920  0.10549  0.95800  1.0000 -0.5438776982
O   O11       1.0  0.43371  0.53920  0.12467  1.0000 -0.5438776982
O   O12       1.0  0.89451  0.43371  0.29133  1.0000 -0.5438776982
