# DDEC6 charges by PACMAN v1.1 (https://github.com/mtap-research/PACMAN-charge/)
data_2013[Co][sra]3[ASR]1
_chemical_formula_sum              "Co8 H48 C80 N56"
_cell_length_a       16.419
_cell_length_b       17.088
_cell_length_c       12.113
_cell_angle_alpha    90
_cell_angle_beta     95.107
_cell_angle_gamma    90

_symmetry_space_group_name_H-M    "P 1"
_symmetry_Int_Tables_number       1

loop_
  _symmetry_equiv_pos_as_xyz
  'x, y, z'

loop_
  _atom_site_type_symbol
  _atom_site_label
  _atom_site_symmetry_multiplicity
  _atom_site_fract_x
  _atom_site_fract_y
  _atom_site_fract_z
  _atom_site_occupancy
  _atom_site_charge
Co  Co1       1.0  0.38322  0.14762  0.06537  1.0000 0.7304586467
Co  Co2       1.0  0.61678  0.85238  0.93463  1.0000 0.7304586467
Co  Co3       1.0  0.61678  0.14762  0.43463  1.0000 0.7304586467
Co  Co4       1.0  0.38322  0.85238  0.56537  1.0000 0.7304586467
Co  Co5       1.0  0.88322  0.64762  0.06537  1.0000 0.7304586467
Co  Co6       1.0  0.11678  0.35238  0.93463  1.0000 0.7304586467
Co  Co7       1.0  0.11678  0.64762  0.43463  1.0000 0.7304586467
Co  Co8       1.0  0.88322  0.35238  0.56537  1.0000 0.7304586467
H   H1        1.0  0.27133  0.47137  0.94738  1.0000 0.0912720893
H   H2        1.0  0.72867  0.52863  0.05262  1.0000 0.0912720893
H   H3        1.0  0.72867  0.47137  0.55262  1.0000 0.0912720893
H   H4        1.0  0.27133  0.52863  0.44738  1.0000 0.0912720893
H   H5        1.0  0.77133  0.97137  0.94738  1.0000 0.0912720893
H   H6        1.0  0.22867  0.02863  0.05262  1.0000 0.0912720893
H   H7        1.0  0.22867  0.97137  0.55262  1.0000 0.0912720893
H   H8        1.0  0.77133  0.02863  0.44738  1.0000 0.0912720893
H   H9        1.0  0.42438  0.45375  0.00519  1.0000 0.1149411422
H   H10       1.0  0.57562  0.54625  0.99481  1.0000 0.1187074101
H   H11       1.0  0.57562  0.45375  0.49481  1.0000 0.1149411422
H   H12       1.0  0.42438  0.54625  0.50519  1.0000 0.1187074101
H   H13       1.0  0.92438  0.95375  0.00519  1.0000 0.1149411422
H   H14       1.0  0.07562  0.04625  0.99481  1.0000 0.1187074101
H   H15       1.0  0.07562  0.95375  0.49481  1.0000 0.1187074101
H   H16       1.0  0.92438  0.04625  0.50519  1.0000 0.1187074101
H   H17       1.0  0.47434  0.31553  0.05862  1.0000 0.0912720893
H   H18       1.0  0.52566  0.68447  0.94138  1.0000 0.0912720893
H   H19       1.0  0.52566  0.31553  0.44138  1.0000 0.0912720893
H   H20       1.0  0.47434  0.68447  0.55862  1.0000 0.0912720893
H   H21       1.0  0.97434  0.81553  0.05862  1.0000 0.0912720893
H   H22       1.0  0.02566  0.18447  0.94138  1.0000 0.0912720893
H   H23       1.0  0.02566  0.81553  0.44138  1.0000 0.0912720893
H   H24       1.0  0.97434  0.18447  0.55862  1.0000 0.0912720893
H   H25       1.0  0.73350  0.16145  0.23256  1.0000 0.0912720893
H   H26       1.0  0.26650  0.83855  0.76744  1.0000 0.0912720893
H   H27       1.0  0.26650  0.16145  0.26744  1.0000 0.0912720893
H   H28       1.0  0.73350  0.83855  0.73256  1.0000 0.0912720893
H   H29       1.0  0.23350  0.66145  0.23256  1.0000 0.0912720893
H   H30       1.0  0.76650  0.33855  0.76744  1.0000 0.0912720893
H   H31       1.0  0.76650  0.66145  0.26744  1.0000 0.0912720893
H   H32       1.0  0.23350  0.33855  0.73256  1.0000 0.0912720893
H   H33       1.0  0.70145  0.16551  0.02130  1.0000 0.1187074101
H   H34       1.0  0.29855  0.83449  0.97870  1.0000 0.1187074101
H   H35       1.0  0.29855  0.16551  0.47870  1.0000 0.1187074101
H   H36       1.0  0.70145  0.83449  0.52130  1.0000 0.1187074101
H   H37       1.0  0.20145  0.66551  0.02130  1.0000 0.1187074101
H   H38       1.0  0.79855  0.33449  0.97870  1.0000 0.1187074101
H   H39       1.0  0.79855  0.66551  0.47870  1.0000 0.1187074101
H   H40       1.0  0.20145  0.33449  0.52130  1.0000 0.1187074101
H   H41       1.0  0.55200  0.16467  0.94553  1.0000 0.0912720893
H   H42       1.0  0.44800  0.83533  0.05447  1.0000 0.0912720893
H   H43       1.0  0.44800  0.16467  0.55447  1.0000 0.0912720893
H   H44       1.0  0.55200  0.83533  0.44553  1.0000 0.0912720893
H   H45       1.0  0.05200  0.66467  0.94553  1.0000 0.0912720893
H   H46       1.0  0.94800  0.33533  0.05447  1.0000 0.0912720893
H   H47       1.0  0.94800  0.66467  0.55447  1.0000 0.0912720893
H   H48       1.0  0.05200  0.33533  0.44553  1.0000 0.0912720893
C   C1        1.0  0.27709  0.28130  0.99948  1.0000 0.2127600151
C   C2        1.0  0.72291  0.71870  0.00052  1.0000 0.2127600151
C   C3        1.0  0.72291  0.28130  0.50052  1.0000 0.2127600151
C   C4        1.0  0.27709  0.71870  0.49948  1.0000 0.2127600151
C   C5        1.0  0.77709  0.78130  0.99948  1.0000 0.2127600151
C   C6        1.0  0.22291  0.21870  0.00052  1.0000 0.2127600151
C   C7        1.0  0.22291  0.78130  0.50052  1.0000 0.2127600151
C   C8        1.0  0.77709  0.21870  0.49948  1.0000 0.2127600151
C   C9        1.0  0.29789  0.41411  0.97094  1.0000 0.1410009364
C   C10       1.0  0.70211  0.58589  0.02906  1.0000 0.1410009364
C   C11       1.0  0.70211  0.41411  0.52906  1.0000 0.1410009364
C   C12       1.0  0.29789  0.58589  0.47094  1.0000 0.1410009364
C   C13       1.0  0.79789  0.91411  0.97094  1.0000 0.1410009364
C   C14       1.0  0.20211  0.08589  0.02906  1.0000 0.1410009364
C   C15       1.0  0.20211  0.91411  0.52906  1.0000 0.1410009364
C   C16       1.0  0.79789  0.08589  0.47094  1.0000 0.1410009364
C   C17       1.0  0.38188  0.40416  0.00380  1.0000 -0.215375122
C   C18       1.0  0.61812  0.59584  0.99620  1.0000 -0.215375122
C   C19       1.0  0.61812  0.40416  0.49620  1.0000 -0.215375122
C   C20       1.0  0.38188  0.59584  0.50380  1.0000 -0.215375122
C   C21       1.0  0.88188  0.90416  0.00380  1.0000 -0.215375122
C   C22       1.0  0.11812  0.09584  0.99620  1.0000 -0.215375122
C   C23       1.0  0.11812  0.90416  0.49620  1.0000 -0.215375122
C   C24       1.0  0.88188  0.09584  0.50380  1.0000 -0.215375122
C   C25       1.0  0.40979  0.32810  0.03311  1.0000 0.1410009364
C   C26       1.0  0.59021  0.67190  0.96689  1.0000 0.1410009364
C   C27       1.0  0.59021  0.32810  0.46689  1.0000 0.1410009364
C   C28       1.0  0.40979  0.67190  0.53311  1.0000 0.1410009364
C   C29       1.0  0.90979  0.82810  0.03311  1.0000 0.1410009364
C   C30       1.0  0.09021  0.17190  0.96689  1.0000 0.1410009364
C   C31       1.0  0.09021  0.82810  0.46689  1.0000 0.1410009364
C   C32       1.0  0.90979  0.17190  0.53311  1.0000 0.1410009364
C   C33       1.0  0.53149  0.16656  0.21482  1.0000 0.2127600151
C   C34       1.0  0.46851  0.83344  0.78518  1.0000 0.2127600151
C   C35       1.0  0.46851  0.16656  0.28518  1.0000 0.2127600151
C   C36       1.0  0.53149  0.83344  0.71482  1.0000 0.2127600151
C   C37       1.0  0.03149  0.66656  0.21482  1.0000 0.2127600151
C   C38       1.0  0.96851  0.33344  0.78518  1.0000 0.2127600151
C   C39       1.0  0.96851  0.66656  0.28518  1.0000 0.2127600151
C   C40       1.0  0.03149  0.33344  0.71482  1.0000 0.2127600151
C   C41       1.0  0.67054  0.16413  0.19356  1.0000 0.1410009364
C   C42       1.0  0.32946  0.83587  0.80644  1.0000 0.1410009364
C   C43       1.0  0.32946  0.16413  0.30644  1.0000 0.1410009364
C   C44       1.0  0.67054  0.83587  0.69356  1.0000 0.1410009364
C   C45       1.0  0.17054  0.66413  0.19356  1.0000 0.1410009364
C   C46       1.0  0.82946  0.33587  0.80644  1.0000 0.1410009364
C   C47       1.0  0.82946  0.66413  0.30644  1.0000 0.1410009364
C   C48       1.0  0.17054  0.33587  0.69356  1.0000 0.1410009364
C   C49       1.0  0.65269  0.16610  0.07756  1.0000 -0.2004094686
C   C50       1.0  0.34731  0.83390  0.92244  1.0000 -0.2004094686
C   C51       1.0  0.34731  0.16610  0.42244  1.0000 -0.2004094686
C   C52       1.0  0.65269  0.83390  0.57756  1.0000 -0.2004094686
C   C53       1.0  0.15269  0.66610  0.07756  1.0000 -0.2004094686
C   C54       1.0  0.84731  0.33390  0.92244  1.0000 -0.2004094686
C   C55       1.0  0.84731  0.66610  0.42244  1.0000 -0.2004094686
C   C56       1.0  0.15269  0.33390  0.57756  1.0000 -0.2004094686
C   C57       1.0  0.56994  0.16551  0.03499  1.0000 0.1410009364
C   C58       1.0  0.43006  0.83449  0.96501  1.0000 0.1410009364
C   C59       1.0  0.43006  0.16551  0.46501  1.0000 0.1410009364
C   C60       1.0  0.56994  0.83449  0.53499  1.0000 0.1410009364
C   C61       1.0  0.06994  0.66551  0.03499  1.0000 0.1410009364
C   C62       1.0  0.93006  0.33449  0.96501  1.0000 0.1410009364
C   C63       1.0  0.93006  0.66551  0.46501  1.0000 0.1410009364
C   C64       1.0  0.06994  0.33449  0.53499  1.0000 0.1410009364
C   C65       1.0  0.39262  0.97501  0.15862  1.0000 0.4198015254
C   C66       1.0  0.60738  0.02499  0.84138  1.0000 0.4198015254
C   C67       1.0  0.60738  0.97501  0.34138  1.0000 0.4198015254
C   C68       1.0  0.39262  0.02499  0.65862  1.0000 0.4198015254
C   C69       1.0  0.89262  0.47501  0.15862  1.0000 0.4198015254
C   C70       1.0  0.10738  0.52499  0.84138  1.0000 0.4198015254
C   C71       1.0  0.10738  0.47501  0.34138  1.0000 0.4198015254
C   C72       1.0  0.89262  0.52499  0.65862  1.0000 0.4198015254
C   C73       1.0  0.39678  0.89275  0.31195  1.0000 0.4198015254
C   C74       1.0  0.60322  0.10725  0.68805  1.0000 0.4198015254
C   C75       1.0  0.60322  0.89275  0.18805  1.0000 0.4198015254
C   C76       1.0  0.39678  0.10725  0.81195  1.0000 0.4198015254
C   C77       1.0  0.89678  0.39275  0.31195  1.0000 0.4198015254
C   C78       1.0  0.10322  0.60725  0.68805  1.0000 0.4198015254
C   C79       1.0  0.10322  0.39275  0.18805  1.0000 0.4198015254
C   C80       1.0  0.89678  0.60725  0.81195  1.0000 0.4198015254
N   N1        1.0  0.24476  0.35395  0.96549  1.0000 -0.3100471577
N   N2        1.0  0.75524  0.64605  0.03451  1.0000 -0.3100471577
N   N3        1.0  0.75524  0.35395  0.53451  1.0000 -0.3100471577
N   N4        1.0  0.24476  0.64605  0.46549  1.0000 -0.3100471577
N   N5        1.0  0.74476  0.85395  0.96549  1.0000 -0.3100471577
N   N6        1.0  0.25524  0.14605  0.03451  1.0000 -0.3100471577
N   N7        1.0  0.25524  0.85395  0.53451  1.0000 -0.3100471577
N   N8        1.0  0.74476  0.14605  0.46549  1.0000 -0.3100471577
N   N9        1.0  0.35912  0.26644  0.03242  1.0000 -0.3100471577
N   N10       1.0  0.64088  0.73356  0.96758  1.0000 -0.3100471577
N   N11       1.0  0.64088  0.26644  0.46758  1.0000 -0.3100471577
N   N12       1.0  0.35912  0.73356  0.53242  1.0000 -0.3100471577
N   N13       1.0  0.85912  0.76644  0.03242  1.0000 -0.3100471577
N   N14       1.0  0.14088  0.23356  0.96758  1.0000 -0.3100471577
N   N15       1.0  0.14088  0.76644  0.46758  1.0000 -0.3100471577
N   N16       1.0  0.85912  0.23356  0.53242  1.0000 -0.3100471577
N   N17       1.0  0.50848  0.16499  0.10154  1.0000 -0.3100471577
N   N18       1.0  0.49152  0.83501  0.89846  1.0000 -0.3100471577
N   N19       1.0  0.49152  0.16499  0.39846  1.0000 -0.3100471577
N   N20       1.0  0.50848  0.83501  0.60154  1.0000 -0.3100471577
N   N21       1.0  0.00848  0.66499  0.10154  1.0000 -0.3100471577
N   N22       1.0  0.99152  0.33501  0.89846  1.0000 -0.3100471577
N   N23       1.0  0.99152  0.66499  0.39846  1.0000 -0.3100471577
N   N24       1.0  0.00848  0.33501  0.60154  1.0000 -0.3100471577
N   N25       1.0  0.61152  0.16506  0.26372  1.0000 -0.3100471577
N   N26       1.0  0.38848  0.83494  0.73628  1.0000 -0.3100471577
N   N27       1.0  0.38848  0.16506  0.23628  1.0000 -0.304786146
N   N28       1.0  0.61152  0.83494  0.76372  1.0000 -0.304786146
N   N29       1.0  0.11152  0.66506  0.26372  1.0000 -0.3100471577
N   N30       1.0  0.88848  0.33494  0.73628  1.0000 -0.304786146
N   N31       1.0  0.88848  0.66506  0.23628  1.0000 -0.304786146
N   N32       1.0  0.11152  0.33494  0.76372  1.0000 -0.304786146
N   N33       1.0  0.38663  0.03345  0.10542  1.0000 -0.5568585027
N   N34       1.0  0.61337  0.96655  0.89458  1.0000 -0.5568585027
N   N35       1.0  0.61337  0.03345  0.39458  1.0000 -0.5568585027
N   N36       1.0  0.38663  0.96655  0.60542  1.0000 -0.5568585027
N   N37       1.0  0.88663  0.53345  0.10542  1.0000 -0.5568585027
N   N38       1.0  0.11337  0.46655  0.89458  1.0000 -0.5568585027
N   N39       1.0  0.11337  0.53345  0.39458  1.0000 -0.5568585027
N   N40       1.0  0.88663  0.46655  0.60542  1.0000 -0.5568585027
N   N41       1.0  0.39873  0.90583  0.20528  1.0000 -0.401988827
N   N42       1.0  0.60127  0.09417  0.79472  1.0000 -0.401988827
N   N43       1.0  0.60127  0.90583  0.29472  1.0000 -0.401988827
N   N44       1.0  0.39873  0.09417  0.70528  1.0000 -0.401988827
N   N45       1.0  0.89873  0.40583  0.20528  1.0000 -0.401988827
N   N46       1.0  0.10127  0.59417  0.79472  1.0000 -0.401988827
N   N47       1.0  0.10127  0.40583  0.29472  1.0000 -0.401988827
N   N48       1.0  0.89873  0.59417  0.70528  1.0000 -0.401988827
N   N49       1.0  0.39670  0.87336  0.40569  1.0000 -0.549143881
N   N50       1.0  0.60330  0.12664  0.59431  1.0000 -0.549143881
N   N51       1.0  0.60330  0.87336  0.09431  1.0000 -0.549143881
N   N52       1.0  0.39670  0.12664  0.90569  1.0000 -0.549143881
N   N53       1.0  0.89670  0.37336  0.40569  1.0000 -0.549143881
N   N54       1.0  0.10330  0.62664  0.59431  1.0000 -0.549143881
N   N55       1.0  0.10330  0.37336  0.09431  1.0000 -0.549143881
N   N56       1.0  0.89670  0.62664  0.90569  1.0000 -0.549143881
