# DDEC6 charges by PACMAN v1.1 (https://github.com/mtap-research/PACMAN-charge/)
data_2013[Cd][nan]3[ASR]11
_chemical_formula_sum              "Cd16 H72 C128 N64 O36"
_cell_length_a       12.38
_cell_length_b       16.488
_cell_length_c       24.5898
_cell_angle_alpha    90
_cell_angle_beta     120.229
_cell_angle_gamma    90

_symmetry_space_group_name_H-M    "P 1"
_symmetry_Int_Tables_number       1

loop_
  _symmetry_equiv_pos_as_xyz
  'x, y, z'

loop_
  _atom_site_type_symbol
  _atom_site_label
  _atom_site_symmetry_multiplicity
  _atom_site_fract_x
  _atom_site_fract_y
  _atom_site_fract_z
  _atom_site_occupancy
  _atom_site_charge
Cd  Cd1       1.0  0.75211  0.06031  0.27130  1.0000 0.8877191337
Cd  Cd2       1.0  0.24789  0.56031  0.22870  1.0000 0.8877191337
Cd  Cd3       1.0  0.24789  0.93969  0.72870  1.0000 0.8877191337
Cd  Cd4       1.0  0.75211  0.43969  0.77130  1.0000 0.8877191337
Cd  Cd5       1.0  0.53919  0.17928  0.31275  1.0000 0.8396517428
Cd  Cd6       1.0  0.46081  0.67928  0.18725  1.0000 0.8396517428
Cd  Cd7       1.0  0.46081  0.82072  0.68725  1.0000 0.8396517428
Cd  Cd8       1.0  0.53919  0.32072  0.81275  1.0000 0.8396517428
Cd  Cd9       1.0  0.99755  0.20078  0.26840  1.0000 0.7746463211
Cd  Cd10      1.0  0.00245  0.70078  0.23160  1.0000 0.7746463211
Cd  Cd11      1.0  0.00245  0.79922  0.73160  1.0000 0.7746463211
Cd  Cd12      1.0  0.99755  0.29922  0.76840  1.0000 0.7746463211
Cd  Cd13      1.0  0.28795  0.17003  0.79977  1.0000 0.8996494504
Cd  Cd14      1.0  0.71205  0.67003  0.70023  1.0000 0.8996494504
Cd  Cd15      1.0  0.71205  0.82997  0.20023  1.0000 0.8996494504
Cd  Cd16      1.0  0.28795  0.32997  0.29977  1.0000 0.8996494504
H   H1        1.0  0.11230  0.58470  0.38300  1.0000 0.1290629123
H   H2        1.0  0.88770  0.08470  0.11700  1.0000 0.1290629123
H   H3        1.0  0.88770  0.41530  0.61700  1.0000 0.1290629123
H   H4        1.0  0.11230  0.91530  0.88300  1.0000 0.1290629123
H   H5        1.0  0.02650  0.54070  0.44060  1.0000 0.120297708
H   H6        1.0  0.97350  0.04070  0.05940  1.0000 0.120297708
H   H7        1.0  0.97350  0.45930  0.55940  1.0000 0.120297708
H   H8        1.0  0.02650  0.95930  0.94060  1.0000 0.120297708
H   H9        1.0  0.89770  0.42800  0.40950  1.0000 0.120297708
H   H10       1.0  0.10230  0.92800  0.09050  1.0000 0.120297708
H   H11       1.0  0.10230  0.57200  0.59050  1.0000 0.120297708
H   H12       1.0  0.89770  0.07200  0.90950  1.0000 0.120297708
H   H13       1.0  0.97430  0.38910  0.27130  1.0000 0.120297708
H   H14       1.0  0.02570  0.88910  0.22870  1.0000 0.120297708
H   H15       1.0  0.02570  0.61090  0.72870  1.0000 0.120297708
H   H16       1.0  0.97430  0.11090  0.77130  1.0000 0.120297708
H   H17       1.0  0.41810  0.12670  0.05420  1.0000 0.137350479
H   H18       1.0  0.58190  0.62670  0.44580  1.0000 0.137350479
H   H19       1.0  0.58190  0.87330  0.94580  1.0000 0.137350479
H   H20       1.0  0.41810  0.37330  0.55420  1.0000 0.137350479
H   H21       1.0  0.07520  0.20380  0.00420  1.0000 0.120297708
H   H22       1.0  0.92480  0.70380  0.49580  1.0000 0.120297708
H   H23       1.0  0.92480  0.79620  0.99580  1.0000 0.120297708
H   H24       1.0  0.07520  0.29620  0.50420  1.0000 0.120297708
H   H25       1.0  0.11410  0.17770  0.10510  1.0000 0.120297708
H   H26       1.0  0.88590  0.67770  0.39490  1.0000 0.120297708
H   H27       1.0  0.88590  0.82230  0.89490  1.0000 0.120297708
H   H28       1.0  0.11410  0.32230  0.60510  1.0000 0.120297708
H   H29       1.0  0.30700  0.12720  0.18040  1.0000 0.120297708
H   H30       1.0  0.69300  0.62720  0.31960  1.0000 0.120297708
H   H31       1.0  0.69300  0.87280  0.81960  1.0000 0.120297708
H   H32       1.0  0.30700  0.37280  0.68040  1.0000 0.120297708
H   H33       1.0  0.46140  0.99440  0.26110  1.0000 0.120297708
H   H34       1.0  0.53860  0.49440  0.23890  1.0000 0.120297708
H   H35       1.0  0.53860  0.00560  0.73890  1.0000 0.120297708
H   H36       1.0  0.46140  0.50560  0.76110  1.0000 0.120297708
H   H37       1.0  0.30420  0.91800  0.35950  1.0000 0.1290629123
H   H38       1.0  0.69580  0.41800  0.14050  1.0000 0.1290629123
H   H39       1.0  0.69580  0.08200  0.64050  1.0000 0.1290629123
H   H40       1.0  0.30420  0.58200  0.85950  1.0000 0.1290629123
H   H41       1.0  0.40860  0.79580  0.37760  1.0000 0.1290629123
H   H42       1.0  0.59140  0.29580  0.12240  1.0000 0.1290629123
H   H43       1.0  0.59140  0.20420  0.62240  1.0000 0.1290629123
H   H44       1.0  0.40860  0.70420  0.87760  1.0000 0.1290629123
H   H45       1.0  0.52400  0.76850  0.33020  1.0000 0.1144280637
H   H46       1.0  0.47600  0.26850  0.16980  1.0000 0.1144280637
H   H47       1.0  0.47600  0.23150  0.66980  1.0000 0.1144280637
H   H48       1.0  0.52400  0.73150  0.83020  1.0000 0.1144280637
H   H49       1.0  0.14470  0.76520  0.45200  1.0000 0.120297708
H   H50       1.0  0.85530  0.26520  0.04800  1.0000 0.120297708
H   H51       1.0  0.85530  0.23480  0.54800  1.0000 0.120297708
H   H52       1.0  0.14470  0.73480  0.95200  1.0000 0.120297708
H   H53       1.0  0.13650  0.82000  0.53440  1.0000 0.120297708
H   H54       1.0  0.86350  0.32000  0.96560  1.0000 0.120297708
H   H55       1.0  0.86350  0.18000  0.46560  1.0000 0.120297708
H   H56       1.0  0.13650  0.68000  0.03440  1.0000 0.120297708
H   H57       1.0  0.97570  0.91090  0.51590  1.0000 0.1290629123
H   H58       1.0  0.02430  0.41090  0.98410  1.0000 0.1290629123
H   H59       1.0  0.02430  0.08910  0.48410  1.0000 0.1290629123
H   H60       1.0  0.97570  0.58910  0.01590  1.0000 0.1290629123
H   H61       1.0  0.85580  0.90130  0.33040  1.0000 0.120297708
H   H62       1.0  0.14420  0.40130  0.16960  1.0000 0.120297708
H   H63       1.0  0.14420  0.09870  0.66960  1.0000 0.120297708
H   H64       1.0  0.85580  0.59870  0.83040  1.0000 0.120297708
H   H65       1.0  0.93600  0.57600  0.13100  1.0000 0.3297700377
H   H66       1.0  0.06400  0.07600  0.36900  1.0000 0.3297700377
H   H67       1.0  0.06400  0.42400  0.86900  1.0000 0.3297700377
H   H68       1.0  0.93600  0.92400  0.63100  1.0000 0.3297700377
H   H69       1.0  0.00400  0.63400  0.17300  1.0000 0.1991154271
H   H70       1.0  0.99600  0.13400  0.32700  1.0000 0.1991154271
H   H71       1.0  0.99600  0.36600  0.82700  1.0000 0.1991154271
H   H72       1.0  0.00400  0.86600  0.67300  1.0000 0.1991154271
C   C1        1.0  0.11970  0.51700  0.28840  1.0000 0.5847568752
C   C2        1.0  0.88030  0.01700  0.21160  1.0000 0.5847568752
C   C3        1.0  0.88030  0.48300  0.71160  1.0000 0.5847568752
C   C4        1.0  0.11970  0.98300  0.78840  1.0000 0.5847568752
C   C5        1.0  0.05450  0.49000  0.32260  1.0000 -0.0119766576
C   C6        1.0  0.94550  0.99000  0.17740  1.0000 -0.0119766576
C   C7        1.0  0.94550  0.51000  0.67740  1.0000 -0.0119766576
C   C8        1.0  0.05450  0.01000  0.82260  1.0000 -0.0119766576
C   C9        1.0  0.06700  0.53650  0.37240  1.0000 -0.1015210717
C   C10       1.0  0.93300  0.03650  0.12760  1.0000 -0.1015210717
C   C11       1.0  0.93300  0.46350  0.62760  1.0000 -0.1015210717
C   C12       1.0  0.06700  0.96350  0.87240  1.0000 -0.1015210717
C   C13       1.0  0.01310  0.51160  0.40530  1.0000 -0.0886297976
C   C14       1.0  0.98690  0.01160  0.09470  1.0000 -0.0886297976
C   C15       1.0  0.98690  0.48840  0.59470  1.0000 -0.0886297976
C   C16       1.0  0.01310  0.98840  0.90530  1.0000 -0.0886297976
C   C17       1.0  0.93760  0.44290  0.38750  1.0000 -0.1148580519
C   C18       1.0  0.06240  0.94290  0.11250  1.0000 -0.1207817677
C   C19       1.0  0.06240  0.55710  0.61250  1.0000 -0.1207817677
C   C20       1.0  0.93760  0.05710  0.88750  1.0000 -0.1148580519
C   C21       1.0  0.92200  0.39670  0.33700  1.0000 0.0385117036
C   C22       1.0  0.07800  0.89670  0.16300  1.0000 0.0385117036
C   C23       1.0  0.07800  0.60330  0.66300  1.0000 0.0385117036
C   C24       1.0  0.92200  0.10330  0.83700  1.0000 0.0385117036
C   C25       1.0  0.84300  0.32320  0.31960  1.0000 0.2669181319
C   C26       1.0  0.15700  0.82320  0.18040  1.0000 0.2669181319
C   C27       1.0  0.15700  0.67680  0.68040  1.0000 0.2669181319
C   C28       1.0  0.84300  0.17680  0.81960  1.0000 0.2669181319
C   C29       1.0  0.98230  0.42010  0.30470  1.0000 -0.13093677
C   C30       1.0  0.01770  0.92010  0.19530  1.0000 -0.13093677
C   C31       1.0  0.01770  0.57990  0.69530  1.0000 -0.13093677
C   C32       1.0  0.98230  0.07990  0.80470  1.0000 -0.13093677
C   C33       1.0  0.50940  0.09830  0.17470  1.0000 0.5707461627
C   C34       1.0  0.49060  0.59830  0.32530  1.0000 0.5707461627
C   C35       1.0  0.49060  0.90170  0.82530  1.0000 0.5707461627
C   C36       1.0  0.50940  0.40170  0.67470  1.0000 0.5707461627
C   C37       1.0  0.38320  0.12400  0.12520  1.0000 -0.0356601423
C   C38       1.0  0.61680  0.62400  0.37480  1.0000 -0.0356601423
C   C39       1.0  0.61680  0.87600  0.87480  1.0000 -0.0356601423
C   C40       1.0  0.38320  0.37600  0.62520  1.0000 -0.0356601423
C   C41       1.0  0.35730  0.13820  0.06470  1.0000 -0.1207817677
C   C42       1.0  0.64270  0.63820  0.43530  1.0000 -0.1207817677
C   C43       1.0  0.64270  0.86180  0.93530  1.0000 -0.1207817677
C   C44       1.0  0.35730  0.36180  0.56470  1.0000 -0.1207817677
C   C45       1.0  0.24490  0.16870  0.01940  1.0000 0.047104949
C   C46       1.0  0.75510  0.66870  0.48060  1.0000 0.047104949
C   C47       1.0  0.75510  0.83130  0.98060  1.0000 0.047104949
C   C48       1.0  0.24490  0.33130  0.51940  1.0000 0.047104949
C   C49       1.0  0.22070  0.18690  0.95630  1.0000 0.2313288393
C   C50       1.0  0.77930  0.68690  0.54370  1.0000 0.2313288393
C   C51       1.0  0.77930  0.81310  0.04370  1.0000 0.2313288393
C   C52       1.0  0.22070  0.31310  0.45630  1.0000 0.2313288393
C   C53       1.0  0.15250  0.18350  0.03450  1.0000 -0.1148580519
C   C54       1.0  0.84750  0.68350  0.46550  1.0000 -0.1148580519
C   C55       1.0  0.84750  0.81650  0.96550  1.0000 -0.1148580519
C   C56       1.0  0.15250  0.31650  0.53450  1.0000 -0.1148580519
C   C57       1.0  0.17570  0.16800  0.09480  1.0000 -0.0886297976
C   C58       1.0  0.82430  0.66800  0.40520  1.0000 -0.0886297976
C   C59       1.0  0.82430  0.83200  0.90520  1.0000 -0.0886297976
C   C60       1.0  0.17570  0.33200  0.59480  1.0000 -0.0886297976
C   C61       1.0  0.29150  0.13790  0.13990  1.0000 -0.1015210717
C   C62       1.0  0.70850  0.63790  0.36010  1.0000 -0.1015210717
C   C63       1.0  0.70850  0.86210  0.86010  1.0000 -0.1015210717
C   C64       1.0  0.29150  0.36210  0.63990  1.0000 -0.1015210717
C   C65       1.0  0.57930  0.86080  0.26000  1.0000 0.5847568752
C   C66       1.0  0.42070  0.36080  0.24000  1.0000 0.5847568752
C   C67       1.0  0.42070  0.13920  0.74000  1.0000 0.5847568752
C   C68       1.0  0.57930  0.63920  0.76000  1.0000 0.5847568752
C   C69       1.0  0.50490  0.87790  0.29100  1.0000 -0.0204650408
C   C70       1.0  0.49510  0.37790  0.20900  1.0000 -0.0204650408
C   C71       1.0  0.49510  0.12210  0.70900  1.0000 -0.0204650408
C   C72       1.0  0.50490  0.62210  0.79100  1.0000 -0.0204650408
C   C73       1.0  0.44890  0.95410  0.28390  1.0000 -0.13093677
C   C74       1.0  0.55110  0.45410  0.21610  1.0000 -0.13093677
C   C75       1.0  0.55110  0.04590  0.71610  1.0000 -0.13093677
C   C76       1.0  0.44890  0.54590  0.78390  1.0000 -0.13093677
C   C77       1.0  0.37570  0.97000  0.31010  1.0000 0.0276612042
C   C78       1.0  0.62430  0.47000  0.18990  1.0000 0.0276612042
C   C79       1.0  0.62430  0.03000  0.68990  1.0000 0.0276612042
C   C80       1.0  0.37570  0.53000  0.81010  1.0000 0.0276612042
C   C81       1.0  0.31380  0.04740  0.30140  1.0000 0.2598238977
C   C82       1.0  0.68620  0.54740  0.19860  1.0000 0.2598238977
C   C83       1.0  0.68620  0.95260  0.69860  1.0000 0.2598238977
C   C84       1.0  0.31380  0.45260  0.80140  1.0000 0.2598238977
C   C85       1.0  0.35700  0.90910  0.34340  1.0000 -0.0886297976
C   C86       1.0  0.64300  0.40910  0.15660  1.0000 -0.0886297976
C   C87       1.0  0.64300  0.09090  0.65660  1.0000 -0.0886297976
C   C88       1.0  0.35700  0.59090  0.84340  1.0000 -0.0886297976
C   C89       1.0  0.41670  0.83500  0.35270  1.0000 -0.0716482812
C   C90       1.0  0.58330  0.33500  0.14730  1.0000 -0.0716482812
C   C91       1.0  0.58330  0.16500  0.64730  1.0000 -0.0716482812
C   C92       1.0  0.41670  0.66500  0.85270  1.0000 -0.0716482812
C   C93       1.0  0.48750  0.81920  0.32540  1.0000 -0.1015210717
C   C94       1.0  0.51250  0.31920  0.17460  1.0000 -0.1015210717
C   C95       1.0  0.51250  0.18080  0.67460  1.0000 -0.1015210717
C   C96       1.0  0.48750  0.68080  0.82540  1.0000 -0.1015210717
C   C97       1.0  0.00590  0.79000  0.32850  1.0000 0.5707461627
C   C98       1.0  0.99410  0.29000  0.17150  1.0000 0.5707461627
C   C99       1.0  0.99410  0.21000  0.67150  1.0000 0.5707461627
C   C100      1.0  0.00590  0.71000  0.82850  1.0000 0.5707461627
C   C101      1.0  0.00320  0.82840  0.38360  1.0000 -0.0119766576
C   C102      1.0  0.99680  0.32840  0.11640  1.0000 -0.0119766576
C   C103      1.0  0.99680  0.17160  0.61640  1.0000 -0.0119766576
C   C104      1.0  0.00320  0.67160  0.88360  1.0000 -0.0119766576
C   C105      1.0  0.08440  0.80410  0.44460  1.0000 -0.1015210717
C   C106      1.0  0.91560  0.30410  0.05540  1.0000 -0.1015210717
C   C107      1.0  0.91560  0.19590  0.55540  1.0000 -0.1015210717
C   C108      1.0  0.08440  0.69590  0.94460  1.0000 -0.1015210717
C   C109      1.0  0.07830  0.83520  0.49350  1.0000 -0.0806471241
C   C110      1.0  0.92170  0.33520  0.00650  1.0000 -0.0806471241
C   C111      1.0  0.92170  0.16480  0.50650  1.0000 -0.0806471241
C   C112      1.0  0.07830  0.66480  0.99350  1.0000 -0.0806471241
C   C113      1.0  0.98260  0.89130  0.48230  1.0000 -0.0886297976
C   C114      1.0  0.01740  0.39130  0.01770  1.0000 -0.0886297976
C   C115      1.0  0.01740  0.10870  0.51770  1.0000 -0.0886297976
C   C116      1.0  0.98260  0.60870  0.98230  1.0000 -0.0886297976
C   C117      1.0  0.89830  0.91760  0.42100  1.0000 0.0385117036
C   C118      1.0  0.10170  0.41760  0.07900  1.0000 0.0385117036
C   C119      1.0  0.10170  0.08240  0.57900  1.0000 0.0385117036
C   C120      1.0  0.89830  0.58240  0.92100  1.0000 0.0385117036
C   C121      1.0  0.80320  0.97750  0.40950  1.0000 0.2453068735
C   C122      1.0  0.19680  0.47750  0.09050  1.0000 0.2453068735
C   C123      1.0  0.19680  0.02250  0.59050  1.0000 0.2453068735
C   C124      1.0  0.80320  0.52250  0.90950  1.0000 0.2453068735
C   C125      1.0  0.91040  0.88500  0.37160  1.0000 -0.1426721571
C   C126      1.0  0.08960  0.38500  0.12840  1.0000 -0.1426721571
C   C127      1.0  0.08960  0.11500  0.62840  1.0000 -0.1426721571
C   C128      1.0  0.91040  0.61500  0.87160  1.0000 -0.1426721571
N   N1        1.0  0.85380  0.25770  0.29120  1.0000 -0.251059384
N   N2        1.0  0.14620  0.75770  0.20880  1.0000 -0.251059384
N   N3        1.0  0.14620  0.74230  0.70880  1.0000 -0.251059384
N   N4        1.0  0.85380  0.24230  0.79120  1.0000 -0.251059384
N   N5        1.0  0.76740  0.20490  0.28850  1.0000 -0.0716482812
N   N6        1.0  0.23260  0.70490  0.21150  1.0000 -0.0716482812
N   N7        1.0  0.23260  0.79510  0.71150  1.0000 -0.0716482812
N   N8        1.0  0.76740  0.29510  0.78850  1.0000 -0.0716482812
N   N9        1.0  0.70910  0.23890  0.31440  1.0000 -0.0605899013
N   N10       1.0  0.29090  0.73890  0.18560  1.0000 -0.0605899013
N   N11       1.0  0.29090  0.76110  0.68560  1.0000 -0.0605899013
N   N12       1.0  0.70910  0.26110  0.81440  1.0000 -0.0605899013
N   N13       1.0  0.75420  0.31400  0.33440  1.0000 -0.2684462352
N   N14       1.0  0.24580  0.81400  0.16560  1.0000 -0.2684462352
N   N15       1.0  0.24580  0.68600  0.66560  1.0000 -0.2684462352
N   N16       1.0  0.75420  0.18600  0.83440  1.0000 -0.2684462352
N   N17       1.0  0.28510  0.15660  0.93060  1.0000 -0.2684462352
N   N18       1.0  0.71490  0.65660  0.56940  1.0000 -0.2684462352
N   N19       1.0  0.71490  0.84340  0.06940  1.0000 -0.2684462352
N   N20       1.0  0.28510  0.34340  0.43060  1.0000 -0.2684462352
N   N21       1.0  0.23290  0.18960  0.87300  1.0000 -0.0806471241
N   N22       1.0  0.76710  0.68960  0.62700  1.0000 -0.0806471241
N   N23       1.0  0.76710  0.81040  0.12700  1.0000 -0.0806471241
N   N24       1.0  0.23290  0.31040  0.37300  1.0000 -0.0806471241
N   N25       1.0  0.14110  0.23800  0.86470  1.0000 -0.0716482812
N   N26       1.0  0.85890  0.73800  0.63530  1.0000 -0.0716482812
N   N27       1.0  0.85890  0.76200  0.13530  1.0000 -0.0716482812
N   N28       1.0  0.14110  0.26200  0.36470  1.0000 -0.0716482812
N   N29       1.0  0.13090  0.23760  0.91650  1.0000 -0.251059384
N   N30       1.0  0.86910  0.73760  0.58350  1.0000 -0.251059384
N   N31       1.0  0.86910  0.76240  0.08350  1.0000 -0.251059384
N   N32       1.0  0.13090  0.26240  0.41650  1.0000 -0.251059384
N   N33       1.0  0.36150  0.12170  0.30060  1.0000 -0.2684462352
N   N34       1.0  0.63850  0.62170  0.19940  1.0000 -0.2684462352
N   N35       1.0  0.63850  0.87830  0.69940  1.0000 -0.2684462352
N   N36       1.0  0.36150  0.37830  0.80060  1.0000 -0.2684462352
N   N37       1.0  0.27100  0.17570  0.29070  1.0000 -0.0716482812
N   N38       1.0  0.72900  0.67570  0.20930  1.0000 -0.0716482812
N   N39       1.0  0.72900  0.82430  0.70930  1.0000 -0.0716482812
N   N40       1.0  0.27100  0.32430  0.79070  1.0000 -0.0716482812
N   N41       1.0  0.17600  0.13570  0.28680  1.0000 -0.0605899013
N   N42       1.0  0.82400  0.63570  0.21320  1.0000 -0.0605899013
N   N43       1.0  0.82400  0.86430  0.71320  1.0000 -0.0605899013
N   N44       1.0  0.17600  0.36430  0.78680  1.0000 -0.0605899013
N   N45       1.0  0.20000  0.05520  0.29400  1.0000 -0.2684462352
N   N46       1.0  0.80000  0.55520  0.20600  1.0000 -0.2684462352
N   N47       1.0  0.80000  0.94480  0.70600  1.0000 -0.2684462352
N   N48       1.0  0.20000  0.44480  0.79400  1.0000 -0.2684462352
N   N49       1.0  0.75440  0.03250  0.36280  1.0000 -0.2684462352
N   N50       1.0  0.24560  0.53250  0.13720  1.0000 -0.2684462352
N   N51       1.0  0.24560  0.96750  0.63720  1.0000 -0.2684462352
N   N52       1.0  0.75440  0.46750  0.86280  1.0000 -0.2684462352
N   N53       1.0  0.67020  0.07330  0.37220  1.0000 -0.0886297976
N   N54       1.0  0.32980  0.57330  0.12780  1.0000 -0.0886297976
N   N55       1.0  0.32980  0.92670  0.62780  1.0000 -0.0886297976
N   N56       1.0  0.67020  0.42670  0.87220  1.0000 -0.0886297976
N   N57       1.0  0.67160  0.04600  0.42180  1.0000 -0.0716482812
N   N58       1.0  0.32840  0.54600  0.07820  1.0000 -0.0716482812
N   N59       1.0  0.32840  0.95400  0.57820  1.0000 -0.0716482812
N   N60       1.0  0.67160  0.45400  0.92180  1.0000 -0.0716482812
N   N61       1.0  0.75400  0.98530  0.44610  1.0000 -0.251059384
N   N62       1.0  0.24600  0.48530  0.05390  1.0000 -0.251059384
N   N63       1.0  0.24600  0.01470  0.55390  1.0000 -0.251059384
N   N64       1.0  0.75400  0.51470  0.94610  1.0000 -0.251059384
O   O1        1.0  0.16180  0.46660  0.26620  1.0000 -0.5197914151
O   O2        1.0  0.83820  0.96660  0.23380  1.0000 -0.5197914151
O   O3        1.0  0.83820  0.53340  0.73380  1.0000 -0.5197914151
O   O4        1.0  0.16180  0.03340  0.76620  1.0000 -0.5197914151
O   O5        1.0  0.13150  0.59270  0.28210  1.0000 -0.5364278165
O   O6        1.0  0.86850  0.09270  0.21790  1.0000 -0.5364278165
O   O7        1.0  0.86850  0.40730  0.71790  1.0000 -0.5364278165
O   O8        1.0  0.13150  0.90730  0.78210  1.0000 -0.5364278165
O   O9        1.0  0.58950  0.07420  0.16090  1.0000 -0.499754606
O   O10       1.0  0.41050  0.57420  0.33910  1.0000 -0.499754606
O   O11       1.0  0.41050  0.92580  0.83910  1.0000 -0.499754606
O   O12       1.0  0.58950  0.42580  0.66090  1.0000 -0.499754606
O   O13       1.0  0.53990  0.10430  0.23260  1.0000 -0.5808372704
O   O14       1.0  0.46010  0.60430  0.26740  1.0000 -0.5808372704
O   O15       1.0  0.46010  0.89570  0.76740  1.0000 -0.5808372704
O   O16       1.0  0.53990  0.39570  0.73260  1.0000 -0.5808372704
O   O17       1.0  0.63030  0.91630  0.24630  1.0000 -0.5303441493
O   O18       1.0  0.36970  0.41630  0.25370  1.0000 -0.5303441493
O   O19       1.0  0.36970  0.08370  0.75370  1.0000 -0.5303441493
O   O20       1.0  0.63030  0.58370  0.74630  1.0000 -0.5303441493
O   O21       1.0  0.59080  0.78740  0.24620  1.0000 -0.5614764077
O   O22       1.0  0.40920  0.28740  0.25380  1.0000 -0.5614764077
O   O23       1.0  0.40920  0.21260  0.75380  1.0000 -0.5614764077
O   O24       1.0  0.59080  0.71260  0.74620  1.0000 -0.5614764077
O   O25       1.0  0.91570  0.80000  0.27330  1.0000 -0.5614764077
O   O26       1.0  0.08430  0.30000  0.22670  1.0000 -0.5614764077
O   O27       1.0  0.08430  0.20000  0.72670  1.0000 -0.5614764077
O   O28       1.0  0.91570  0.70000  0.77330  1.0000 -0.5614764077
O   O29       1.0  0.09670  0.74740  0.33730  1.0000 -0.499754606
O   O30       1.0  0.90330  0.24740  0.16270  1.0000 -0.499754606
O   O31       1.0  0.90330  0.25260  0.66270  1.0000 -0.499754606
O   O32       1.0  0.09670  0.75260  0.83730  1.0000 -0.499754606
O   O33       1.0  0.00240  0.60390  0.14460  1.0000 -0.6544281004
O   O34       1.0  0.99760  0.10390  0.35540  1.0000 -0.6544281004
O   O35       1.0  0.99760  0.39610  0.85540  1.0000 -0.6544281004
O   O36       1.0  0.00240  0.89610  0.64460  1.0000 -0.6544281004
