# DDEC6 charges by PACMAN v1.1 (https://github.com/mtap-research/PACMAN-charge/)
data_2013[Tb][dia]3[ASR]1
_chemical_formula_sum              "Tb4 C16 O32"
_cell_length_a       9.6515
_cell_length_b       11.655
_cell_length_c       14.3511
_cell_angle_alpha    90
_cell_angle_beta     122.465
_cell_angle_gamma    90

_symmetry_space_group_name_H-M    "P 1"
_symmetry_Int_Tables_number       1

loop_
  _symmetry_equiv_pos_as_xyz
  'x, y, z'

loop_
  _atom_site_type_symbol
  _atom_site_label
  _atom_site_symmetry_multiplicity
  _atom_site_fract_x
  _atom_site_fract_y
  _atom_site_fract_z
  _atom_site_occupancy
  _atom_site_charge
Tb  Tb1       1.0  0.38241  0.51386  0.66804  1.0000 1.9613655038
Tb  Tb2       1.0  0.61759  0.01386  0.83196  1.0000 1.9502414094
Tb  Tb3       1.0  0.61759  0.48614  0.33196  1.0000 1.9502414094
Tb  Tb4       1.0  0.38241  0.98614  0.16804  1.0000 1.9502414094
C   C1        1.0  0.40420  0.78750  0.70630  1.0000 0.5869834649
C   C2        1.0  0.59580  0.28750  0.79370  1.0000 0.5838732547
C   C3        1.0  0.59580  0.21250  0.29370  1.0000 0.5869834649
C   C4        1.0  0.40420  0.71250  0.20630  1.0000 0.5869834649
C   C5        1.0  0.49510  0.43430  0.49960  1.0000 0.5408624238
C   C6        1.0  0.50490  0.93430  0.00040  1.0000 0.5408624238
C   C7        1.0  0.50490  0.56570  0.50040  1.0000 0.5408624238
C   C8        1.0  0.49510  0.06570  0.99960  1.0000 0.5408624238
C   C9        1.0  0.01440  0.49990  0.45190  1.0000 0.5620078272
C   C10       1.0  0.98560  0.99990  0.04810  1.0000 0.5620078272
C   C11       1.0  0.98560  0.50010  0.54810  1.0000 0.5620078272
C   C12       1.0  0.01440  0.00010  0.95190  1.0000 0.5620078272
C   C13       1.0  0.58280  0.74370  0.78350  1.0000 0.6001053429
C   C14       1.0  0.41720  0.24370  0.71650  1.0000 0.6001053429
C   C15       1.0  0.41720  0.25630  0.21650  1.0000 0.6001053429
C   C16       1.0  0.58280  0.75630  0.28350  1.0000 0.6001053429
O   O1        1.0  0.29490  0.71310  0.65630  1.0000 -0.5394807961
O   O2        1.0  0.70510  0.21310  0.84370  1.0000 -0.5394807961
O   O3        1.0  0.70510  0.28690  0.34370  1.0000 -0.5394807961
O   O4        1.0  0.29490  0.78690  0.15630  1.0000 -0.5394807961
O   O5        1.0  0.38330  0.89430  0.70210  1.0000 -0.5301080092
O   O6        1.0  0.61670  0.39430  0.79790  1.0000 -0.5394807961
O   O7        1.0  0.61670  0.10570  0.29790  1.0000 -0.5301080092
O   O8        1.0  0.38330  0.60570  0.20210  1.0000 -0.5301080092
O   O9        1.0  0.46270  0.38920  0.56490  1.0000 -0.5121806212
O   O10       1.0  0.53730  0.88920  0.93510  1.0000 -0.5121806212
O   O11       1.0  0.53730  0.61080  0.43510  1.0000 -0.5121806212
O   O12       1.0  0.46270  0.11080  0.06490  1.0000 -0.5121806212
O   O13       1.0  0.51930  0.38180  0.43320  1.0000 -0.5301080092
O   O14       1.0  0.48070  0.88180  0.06680  1.0000 -0.5301080092
O   O15       1.0  0.48070  0.61820  0.56680  1.0000 -0.5301080092
O   O16       1.0  0.51930  0.11820  0.93320  1.0000 -0.5301080092
O   O17       1.0  0.16040  0.51140  0.47800  1.0000 -0.5394807961
O   O18       1.0  0.83960  0.01140  0.02200  1.0000 -0.5394807961
O   O19       1.0  0.83960  0.48860  0.52200  1.0000 -0.5394807961
O   O20       1.0  0.16040  0.98860  0.97800  1.0000 -0.5394807961
O   O21       1.0  0.88980  0.48850  0.35690  1.0000 -0.5121806212
O   O22       1.0  0.11020  0.98850  0.14310  1.0000 -0.5121806212
O   O23       1.0  0.11020  0.51150  0.64310  1.0000 -0.5121806212
O   O24       1.0  0.88980  0.01150  0.85690  1.0000 -0.5121806212
O   O25       1.0  0.69370  0.81820  0.82850  1.0000 -0.5531169646
O   O26       1.0  0.30630  0.31820  0.67150  1.0000 -0.5555547052
O   O27       1.0  0.30630  0.18180  0.17150  1.0000 -0.5531169646
O   O28       1.0  0.69370  0.68180  0.32850  1.0000 -0.5555547052
O   O29       1.0  0.60260  0.63820  0.79370  1.0000 -0.5219860547
O   O30       1.0  0.39740  0.13820  0.70630  1.0000 -0.5219860547
O   O31       1.0  0.39740  0.36180  0.20630  1.0000 -0.5219860547
O   O32       1.0  0.60260  0.86180  0.29370  1.0000 -0.5219860547
