# DDEC6 charges by PACMAN v1.1 (https://github.com/mtap-research/PACMAN-charge/)
data_2013[Zn][ths]3[ASR]5
_chemical_formula_sum              "Zn12 H96 C144 I24 N48"
_cell_length_a       18.8284
_cell_length_b       18.8284
_cell_length_c       30.348
_cell_angle_alpha    80.7203
_cell_angle_beta     99.2797
_cell_angle_gamma    133.218

_symmetry_space_group_name_H-M    "P 1"
_symmetry_Int_Tables_number       1

loop_
  _symmetry_equiv_pos_as_xyz
  'x, y, z'

loop_
  _atom_site_type_symbol
  _atom_site_label
  _atom_site_symmetry_multiplicity
  _atom_site_fract_x
  _atom_site_fract_y
  _atom_site_fract_z
  _atom_site_occupancy
  _atom_site_charge
Zn  Zn1       1.0  0.77327  0.03255  0.44359  1.0000 0.4507709823
Zn  Zn2       1.0  0.96745  0.22673  0.94359  1.0000 0.4507709823
Zn  Zn3       1.0  0.70862  0.54328  0.59434  1.0000 0.4574223913
Zn  Zn4       1.0  0.45672  0.29138  0.09434  1.0000 0.4574223913
Zn  Zn5       1.0  0.03382  0.68876  0.77003  1.0000 0.4348171062
Zn  Zn6       1.0  0.31124  0.96618  0.27003  1.0000 0.4348171062
Zn  Zn7       1.0  0.03255  0.77327  0.05641  1.0000 0.4507709823
Zn  Zn8       1.0  0.22673  0.96745  0.55641  1.0000 0.4507709823
Zn  Zn9       1.0  0.54328  0.70862  0.90566  1.0000 0.4574223913
Zn  Zn10      1.0  0.29138  0.45672  0.40566  1.0000 0.4574223913
Zn  Zn11      1.0  0.68876  0.03382  0.72997  1.0000 0.4348171062
Zn  Zn12      1.0  0.96618  0.31124  0.22997  1.0000 0.4348171062
H   H1        1.0  0.89510  0.05590  0.38370  1.0000 0.1095634271
H   H2        1.0  0.94410  0.10490  0.88370  1.0000 0.1095634271
H   H3        1.0  0.04450  0.10730  0.38170  1.0000 0.1414039622
H   H4        1.0  0.89270  0.95550  0.88170  1.0000 0.1414039622
H   H5        1.0  0.10020  0.15360  0.51170  1.0000 0.1414039622
H   H6        1.0  0.84640  0.89980  0.01170  1.0000 0.1414039622
H   H7        1.0  0.94770  0.10190  0.51190  1.0000 0.1095634271
H   H8        1.0  0.89810  0.05230  0.01190  1.0000 0.1095634271
H   H9        1.0  0.42840  0.09700  0.34560  1.0000 0.1095634271
H   H10       1.0  0.90300  0.57160  0.84560  1.0000 0.1095634271
H   H11       1.0  0.41590  0.16290  0.39840  1.0000 0.1303202908
H   H12       1.0  0.83710  0.58410  0.89840  1.0000 0.1303202908
H   H13       1.0  0.14240  0.01380  0.35040  1.0000 0.1414039622
H   H14       1.0  0.98620  0.85760  0.85040  1.0000 0.1414039622
H   H15       1.0  0.15700  0.93380  0.30910  1.0000 0.1095634271
H   H16       1.0  0.06620  0.84300  0.80910  1.0000 0.1020706655
H   H17       1.0  0.50320  0.46860  0.56740  1.0000 0.1095634271
H   H18       1.0  0.53140  0.49680  0.06740  1.0000 0.1095634271
H   H19       1.0  0.36360  0.34960  0.52810  1.0000 0.1414039622
H   H20       1.0  0.65040  0.63640  0.02810  1.0000 0.1414039622
H   H21       1.0  0.51910  0.31210  0.47510  1.0000 0.1414039622
H   H22       1.0  0.68790  0.48090  0.97510  1.0000 0.1414039622
H   H23       1.0  0.64990  0.42550  0.52070  1.0000 0.1095634271
H   H24       1.0  0.57450  0.35010  0.02070  1.0000 0.1095634271
H   H25       1.0  0.53480  0.35440  0.63610  1.0000 0.1095634271
H   H26       1.0  0.64560  0.46520  0.13610  1.0000 0.1095634271
H   H27       1.0  0.48930  0.22690  0.68460  1.0000 0.1303202908
H   H28       1.0  0.77310  0.51070  0.18460  1.0000 0.1303202908
H   H29       1.0  0.77550  0.38530  0.72300  1.0000 0.1303202908
H   H30       1.0  0.61470  0.22450  0.22300  1.0000 0.1303202908
H   H31       1.0  0.81240  0.49980  0.66460  1.0000 0.1095634271
H   H32       1.0  0.50020  0.18760  0.16460  1.0000 0.1095634271
H   H33       1.0  0.17090  0.88990  0.72990  1.0000 0.1020706655
H   H34       1.0  0.11010  0.82910  0.22990  1.0000 0.1020706655
H   H35       1.0  0.33160  0.02980  0.73070  1.0000 0.1414039622
H   H36       1.0  0.97020  0.66840  0.23070  1.0000 0.1414039622
H   H37       1.0  0.38370  0.90150  0.83333  1.0000 0.1414039622
H   H38       1.0  0.09850  0.61630  0.33333  1.0000 0.1414039622
H   H39       1.0  0.22090  0.76070  0.82480  1.0000 0.1095634271
H   H40       1.0  0.23930  0.77910  0.32480  1.0000 0.1095634271
H   H41       1.0  0.94960  0.32880  0.86110  1.0000 0.1020706655
H   H42       1.0  0.67120  0.05040  0.36110  1.0000 0.1020706655
H   H43       1.0  0.82830  0.30470  0.80920  1.0000 0.1303202908
H   H44       1.0  0.69530  0.17170  0.30920  1.0000 0.1303202908
H   H45       1.0  0.62560  0.05120  0.88030  1.0000 0.1414039622
H   H46       1.0  0.94880  0.37440  0.38030  1.0000 0.1414039622
H   H47       1.0  0.75170  0.08330  0.92890  1.0000 0.1095634271
H   H48       1.0  0.91670  0.24830  0.42890  1.0000 0.1095634271
H   H49       1.0  0.05590  0.89510  0.11630  1.0000 0.1095634271
H   H50       1.0  0.10490  0.94410  0.61630  1.0000 0.1095634271
H   H51       1.0  0.10730  0.04450  0.11830  1.0000 0.1414039622
H   H52       1.0  0.95550  0.89270  0.61830  1.0000 0.1414039622
H   H53       1.0  0.15360  0.10020  0.98830  1.0000 0.1414039622
H   H54       1.0  0.89980  0.84640  0.48830  1.0000 0.1414039622
H   H55       1.0  0.10190  0.94770  0.98810  1.0000 0.1095634271
H   H56       1.0  0.05230  0.89810  0.48810  1.0000 0.1095634271
H   H57       1.0  0.09700  0.42840  0.15440  1.0000 0.1095634271
H   H58       1.0  0.57160  0.90300  0.65440  1.0000 0.1095634271
H   H59       1.0  0.16290  0.41590  0.10160  1.0000 0.1303202908
H   H60       1.0  0.58410  0.83710  0.60160  1.0000 0.1303202908
H   H61       1.0  0.01380  0.14240  0.14960  1.0000 0.1414039622
H   H62       1.0  0.85760  0.98620  0.64960  1.0000 0.1414039622
H   H63       1.0  0.93380  0.15700  0.19090  1.0000 0.1020706655
H   H64       1.0  0.84300  0.06620  0.69090  1.0000 0.1020706655
H   H65       1.0  0.46860  0.50320  0.93260  1.0000 0.1095634271
H   H66       1.0  0.49680  0.53140  0.43260  1.0000 0.1095634271
H   H67       1.0  0.34960  0.36360  0.97190  1.0000 0.1414039622
H   H68       1.0  0.63640  0.65040  0.47190  1.0000 0.1414039622
H   H69       1.0  0.31210  0.51910  0.02490  1.0000 0.1414039622
H   H70       1.0  0.48090  0.68790  0.52490  1.0000 0.1414039622
H   H71       1.0  0.42550  0.64990  0.97930  1.0000 0.1095634271
H   H72       1.0  0.35010  0.57450  0.47930  1.0000 0.1095634271
H   H73       1.0  0.35440  0.53480  0.86390  1.0000 0.1095634271
H   H74       1.0  0.46520  0.64560  0.36390  1.0000 0.1095634271
H   H75       1.0  0.22690  0.48930  0.81540  1.0000 0.1303202908
H   H76       1.0  0.51070  0.77310  0.31540  1.0000 0.1303202908
H   H77       1.0  0.38530  0.77550  0.77700  1.0000 0.1303202908
H   H78       1.0  0.22450  0.61470  0.27700  1.0000 0.1303202908
H   H79       1.0  0.49980  0.81240  0.83540  1.0000 0.1095634271
H   H80       1.0  0.18760  0.50020  0.33540  1.0000 0.1095634271
H   H81       1.0  0.88990  0.17090  0.77010  1.0000 0.1020706655
H   H82       1.0  0.82910  0.11010  0.27010  1.0000 0.1020706655
H   H83       1.0  0.02980  0.33160  0.76930  1.0000 0.1414039622
H   H84       1.0  0.66840  0.97020  0.26930  1.0000 0.1414039622
H   H85       1.0  0.90150  0.38370  0.66667  1.0000 0.1414039622
H   H86       1.0  0.61630  0.09850  0.16667  1.0000 0.1414039622
H   H87       1.0  0.76070  0.22090  0.67520  1.0000 0.1095634271
H   H88       1.0  0.77910  0.23930  0.17520  1.0000 0.1095634271
H   H89       1.0  0.32880  0.94960  0.63890  1.0000 0.1020706655
H   H90       1.0  0.05040  0.67120  0.13890  1.0000 0.1020706655
H   H91       1.0  0.30470  0.82830  0.69080  1.0000 0.1303202908
H   H92       1.0  0.17170  0.69530  0.19080  1.0000 0.1303202908
H   H93       1.0  0.05120  0.62560  0.61970  1.0000 0.1414039622
H   H94       1.0  0.37440  0.94880  0.11970  1.0000 0.1414039622
H   H95       1.0  0.08330  0.75170  0.57110  1.0000 0.1095634271
H   H96       1.0  0.24830  0.91670  0.07110  1.0000 0.1095634271
C   C1        1.0  0.93710  0.07590  0.41030  1.0000 0.0793016575
C   C2        1.0  0.92410  0.06290  0.91030  1.0000 0.0793016575
C   C3        1.0  0.02360  0.10240  0.40950  1.0000 -0.1414520817
C   C4        1.0  0.89760  0.97640  0.90950  1.0000 -0.1472295198
C   C5        1.0  0.08390  0.12390  0.44760  1.0000 0.0690856366
C   C6        1.0  0.87610  0.91610  0.94760  1.0000 0.0690856366
C   C7        1.0  0.05720  0.13020  0.48540  1.0000 -0.1472295198
C   C8        1.0  0.86980  0.94280  0.98540  1.0000 -0.1472295198
C   C9        1.0  0.96790  0.10270  0.48500  1.0000 0.0793016575
C   C10       1.0  0.89730  0.03210  0.98500  1.0000 0.0793016575
C   C11       1.0  0.17880  0.15040  0.44720  1.0000 0.3599108266
C   C12       1.0  0.84960  0.82120  0.94720  1.0000 0.3599108266
C   C13       1.0  0.26810  0.13910  0.41390  1.0000 0.3691541559
C   C14       1.0  0.86090  0.73190  0.91390  1.0000 0.3691541559
C   C15       1.0  0.33640  0.24040  0.46900  1.0000 0.3599108266
C   C16       1.0  0.75960  0.66360  0.96900  1.0000 0.3599108266
C   C17       1.0  0.36810  0.07970  0.34700  1.0000 0.0615209059
C   C18       1.0  0.92030  0.63190  0.84700  1.0000 0.0615209059
C   C19       1.0  0.36130  0.12010  0.37820  1.0000 -0.1414520817
C   C20       1.0  0.87990  0.63870  0.87820  1.0000 -0.1414520817
C   C21       1.0  0.27800  0.09900  0.38020  1.0000 0.0793016575
C   C22       1.0  0.90100  0.72200  0.88020  1.0000 0.0793016575
C   C23       1.0  0.20350  0.03150  0.35150  1.0000 -0.199499327
C   C24       1.0  0.96850  0.79650  0.85150  1.0000 -0.199499327
C   C25       1.0  0.21380  0.98840  0.32430  1.0000 0.0945788629
C   C26       1.0  0.01160  0.78620  0.82430  1.0000 0.0945788629
C   C27       1.0  0.50440  0.43220  0.54970  1.0000 0.048988343
C   C28       1.0  0.56780  0.49560  0.04970  1.0000 0.048988343
C   C29       1.0  0.42160  0.36340  0.52560  1.0000 -0.1472295198
C   C30       1.0  0.63660  0.57840  0.02560  1.0000 -0.1472295198
C   C31       1.0  0.42140  0.31320  0.49760  1.0000 0.0615209059
C   C32       1.0  0.68680  0.57860  0.99760  1.0000 0.0615209059
C   C33       1.0  0.51260  0.34080  0.49530  1.0000 -0.1414520817
C   C34       1.0  0.65920  0.48740  0.99530  1.0000 -0.1414520817
C   C35       1.0  0.58980  0.40880  0.52230  1.0000 0.0690856366
C   C36       1.0  0.59120  0.41020  0.02230  1.0000 0.0690856366
C   C37       1.0  0.58470  0.35770  0.65200  1.0000 0.0690856366
C   C38       1.0  0.64230  0.41530  0.15200  1.0000 0.0690856366
C   C39       1.0  0.55630  0.28470  0.68270  1.0000 -0.1414520817
C   C40       1.0  0.71530  0.44370  0.18270  1.0000 -0.1414520817
C   C41       1.0  0.62810  0.29630  0.71150  1.0000 0.048988343
C   C42       1.0  0.70370  0.37190  0.21150  1.0000 0.048988343
C   C43       1.0  0.72460  0.37660  0.70440  1.0000 -0.1472295198
C   C44       1.0  0.62340  0.27540  0.20440  1.0000 -0.1472295198
C   C45       1.0  0.74570  0.44410  0.66930  1.0000 0.0793016575
C   C46       1.0  0.55590  0.25430  0.16930  1.0000 0.0793016575
C   C47       1.0  0.60120  0.22140  0.74900  1.0000 0.3797519273
C   C48       1.0  0.77860  0.39880  0.24900  1.0000 0.3797519273
C   C49       1.0  0.48180  0.07480  0.78350  1.0000 0.3797519273
C   C50       1.0  0.92520  0.51820  0.28350  1.0000 0.3691541559
C   C51       1.0  0.64170  0.16410  0.80870  1.0000 0.3599108266
C   C52       1.0  0.83590  0.35830  0.30870  1.0000 0.3599108266
C   C53       1.0  0.21570  0.89210  0.75070  1.0000 0.0690856366
C   C54       1.0  0.10790  0.78430  0.25070  1.0000 0.0690856366
C   C55       1.0  0.31060  0.97620  0.75150  1.0000 -0.1414520817
C   C56       1.0  0.02380  0.68940  0.25150  1.0000 -0.1472295198
C   C57       1.0  0.37680  0.98340  0.78300  1.0000 0.0690856366
C   C58       1.0  0.01660  0.62320  0.28300  1.0000 0.0690856366
C   C59       1.0  0.34140  0.90060  0.81110  1.0000 -0.1578383923
C   C60       1.0  0.09940  0.65860  0.31110  1.0000 -0.1578383923
C   C61       1.0  0.24420  0.81760  0.80620  1.0000 0.0690856366
C   C62       1.0  0.18240  0.75580  0.30620  1.0000 0.0690856366
C   C63       1.0  0.88300  0.27120  0.86440  1.0000 0.0793016575
C   C64       1.0  0.72880  0.11700  0.36440  1.0000 0.0793016575
C   C65       1.0  0.81110  0.25790  0.83350  1.0000 -0.1414520817
C   C66       1.0  0.74210  0.18890  0.33350  1.0000 -0.1414520817
C   C67       1.0  0.71620  0.17560  0.83960  1.0000 0.048988343
C   C68       1.0  0.82440  0.28380  0.33960  1.0000 0.048988343
C   C69       1.0  0.69180  0.10840  0.87550  1.0000 -0.1414520817
C   C70       1.0  0.89160  0.30820  0.37550  1.0000 -0.1414520817
C   C71       1.0  0.76760  0.12820  0.90380  1.0000 0.1020706655
C   C72       1.0  0.87180  0.23240  0.40380  1.0000 0.1020706655
C   C73       1.0  0.07590  0.93710  0.08970  1.0000 0.0793016575
C   C74       1.0  0.06290  0.92410  0.58970  1.0000 0.0793016575
C   C75       1.0  0.10240  0.02360  0.09050  1.0000 -0.1414520817
C   C76       1.0  0.97640  0.89760  0.59050  1.0000 -0.1414520817
C   C77       1.0  0.12390  0.08390  0.05240  1.0000 0.0690856366
C   C78       1.0  0.91610  0.87610  0.55240  1.0000 0.0690856366
C   C79       1.0  0.13020  0.05720  0.01460  1.0000 -0.1472295198
C   C80       1.0  0.94280  0.86980  0.51460  1.0000 -0.1472295198
C   C81       1.0  0.10270  0.96790  0.01500  1.0000 0.0793016575
C   C82       1.0  0.03210  0.89730  0.51500  1.0000 0.0793016575
C   C83       1.0  0.15040  0.17880  0.05280  1.0000 0.3599108266
C   C84       1.0  0.82120  0.84960  0.55280  1.0000 0.3599108266
C   C85       1.0  0.13910  0.26810  0.08610  1.0000 0.3691541559
C   C86       1.0  0.73190  0.86090  0.58610  1.0000 0.3691541559
C   C87       1.0  0.24040  0.33640  0.03100  1.0000 0.3599108266
C   C88       1.0  0.66360  0.75960  0.53100  1.0000 0.3599108266
C   C89       1.0  0.07970  0.36810  0.15300  1.0000 0.0615209059
C   C90       1.0  0.63190  0.92030  0.65300  1.0000 0.0615209059
C   C91       1.0  0.12010  0.36130  0.12180  1.0000 -0.1414520817
C   C92       1.0  0.63870  0.87990  0.62180  1.0000 -0.1414520817
C   C93       1.0  0.09900  0.27800  0.11980  1.0000 0.0793016575
C   C94       1.0  0.72200  0.90100  0.61980  1.0000 0.0793016575
C   C95       1.0  0.03150  0.20350  0.14850  1.0000 -0.199499327
C   C96       1.0  0.79650  0.96850  0.64850  1.0000 -0.199499327
C   C97       1.0  0.98840  0.21380  0.17570  1.0000 0.0945788629
C   C98       1.0  0.78620  0.01160  0.67570  1.0000 0.0945788629
C   C99       1.0  0.43220  0.50440  0.95030  1.0000 0.048988343
C   C100      1.0  0.49560  0.56780  0.45030  1.0000 0.048988343
C   C101      1.0  0.36340  0.42160  0.97440  1.0000 -0.1472295198
C   C102      1.0  0.57840  0.63660  0.47440  1.0000 -0.1472295198
C   C103      1.0  0.31320  0.42140  0.00240  1.0000 0.0615209059
C   C104      1.0  0.57860  0.68680  0.50240  1.0000 0.0615209059
C   C105      1.0  0.34080  0.51260  0.00470  1.0000 -0.1472295198
C   C106      1.0  0.48740  0.65920  0.50470  1.0000 -0.1414520817
C   C107      1.0  0.40880  0.58980  0.97770  1.0000 0.0690856366
C   C108      1.0  0.41020  0.59120  0.47770  1.0000 0.0690856366
C   C109      1.0  0.35770  0.58470  0.84800  1.0000 0.0690856366
C   C110      1.0  0.41530  0.64230  0.34800  1.0000 0.0690856366
C   C111      1.0  0.28470  0.55630  0.81730  1.0000 -0.1414520817
C   C112      1.0  0.44370  0.71530  0.31730  1.0000 -0.1414520817
C   C113      1.0  0.29630  0.62810  0.78850  1.0000 0.048988343
C   C114      1.0  0.37190  0.70370  0.28850  1.0000 0.048988343
C   C115      1.0  0.37660  0.72460  0.79560  1.0000 -0.1472295198
C   C116      1.0  0.27540  0.62340  0.29560  1.0000 -0.1472295198
C   C117      1.0  0.44410  0.74570  0.83070  1.0000 0.0793016575
C   C118      1.0  0.25430  0.55590  0.33070  1.0000 0.0793016575
C   C119      1.0  0.22140  0.60120  0.75100  1.0000 0.3797519273
C   C120      1.0  0.39880  0.77860  0.25100  1.0000 0.3797519273
C   C121      1.0  0.07480  0.48180  0.71650  1.0000 0.3691541559
C   C122      1.0  0.51820  0.92520  0.21650  1.0000 0.3691541559
C   C123      1.0  0.16410  0.64170  0.69130  1.0000 0.3599108266
C   C124      1.0  0.35830  0.83590  0.19130  1.0000 0.3599108266
C   C125      1.0  0.89210  0.21570  0.74930  1.0000 0.0690856366
C   C126      1.0  0.78430  0.10790  0.24930  1.0000 0.0690856366
C   C127      1.0  0.97620  0.31060  0.74850  1.0000 -0.1414520817
C   C128      1.0  0.68940  0.02380  0.24850  1.0000 -0.1414520817
C   C129      1.0  0.98340  0.37680  0.71700  1.0000 0.0690856366
C   C130      1.0  0.62320  0.01660  0.21700  1.0000 0.0690856366
C   C131      1.0  0.90060  0.34140  0.68890  1.0000 -0.1578383923
C   C132      1.0  0.65860  0.09940  0.18890  1.0000 -0.1578383923
C   C133      1.0  0.81760  0.24420  0.69380  1.0000 0.0690856366
C   C134      1.0  0.75580  0.18240  0.19380  1.0000 0.0690856366
C   C135      1.0  0.27120  0.88300  0.63560  1.0000 0.0793016575
C   C136      1.0  0.11700  0.72880  0.13560  1.0000 0.0793016575
C   C137      1.0  0.25790  0.81110  0.66650  1.0000 -0.1414520817
C   C138      1.0  0.18890  0.74210  0.16650  1.0000 -0.1414520817
C   C139      1.0  0.17560  0.71620  0.66040  1.0000 0.048988343
C   C140      1.0  0.28380  0.82440  0.16040  1.0000 0.048988343
C   C141      1.0  0.10840  0.69180  0.62450  1.0000 -0.1414520817
C   C142      1.0  0.30820  0.89160  0.12450  1.0000 -0.1414520817
C   C143      1.0  0.12820  0.76760  0.59620  1.0000 0.1020706655
C   C144      1.0  0.23240  0.87180  0.09620  1.0000 0.1020706655
I   I1        1.0  0.75124  0.05548  0.51753  1.0000 -0.4237197358
I   I2        1.0  0.94452  0.24876  0.01753  1.0000 -0.4237197358
I   I3        1.0  0.65906  0.87648  0.40343  1.0000 -0.451497949
I   I4        1.0  0.12352  0.34094  0.90343  1.0000 -0.451497949
I   I5        1.0  0.68028  0.63148  0.63294  1.0000 -0.4237197358
I   I6        1.0  0.36852  0.31972  0.13294  1.0000 -0.4237197358
I   I7        1.0  0.85594  0.61466  0.55517  1.0000 -0.4356442162
I   I8        1.0  0.38534  0.14406  0.05517  1.0000 -0.4356442162
I   I9        1.0  0.96902  0.70966  0.69416  1.0000 -0.4128739901
I   I10       1.0  0.29034  0.03098  0.19416  1.0000 -0.4128739901
I   I11       1.0  0.00346  0.53588  0.79538  1.0000 -0.4237197358
I   I12       1.0  0.46412  0.99654  0.29538  1.0000 -0.4237197358
I   I13       1.0  0.05548  0.75124  0.98247  1.0000 -0.4237197358
I   I14       1.0  0.24876  0.94452  0.48247  1.0000 -0.4237197358
I   I15       1.0  0.87648  0.65906  0.09657  1.0000 -0.451497949
I   I16       1.0  0.34094  0.12352  0.59657  1.0000 -0.451497949
I   I17       1.0  0.63148  0.68028  0.86706  1.0000 -0.4237197358
I   I18       1.0  0.31972  0.36852  0.36706  1.0000 -0.4237197358
I   I19       1.0  0.61466  0.85594  0.94483  1.0000 -0.4356442162
I   I20       1.0  0.14406  0.38534  0.44483  1.0000 -0.4356442162
I   I21       1.0  0.70966  0.96902  0.80584  1.0000 -0.4128739901
I   I22       1.0  0.03098  0.29034  0.30584  1.0000 -0.4128739901
I   I23       1.0  0.53588  0.00346  0.70462  1.0000 -0.4237197358
I   I24       1.0  0.99654  0.46412  0.20462  1.0000 -0.4237197358
N   N1        1.0  0.90810  0.07650  0.44720  1.0000 -0.1804573529
N   N2        1.0  0.92350  0.09190  0.94720  1.0000 -0.1804573529
N   N3        1.0  0.18130  0.10890  0.41540  1.0000 -0.3865644478
N   N4        1.0  0.89110  0.81870  0.91540  1.0000 -0.3865644478
N   N5        1.0  0.34970  0.20670  0.43910  1.0000 -0.381500022
N   N6        1.0  0.79330  0.65030  0.93910  1.0000 -0.381500022
N   N7        1.0  0.25070  0.21190  0.47620  1.0000 -0.381500022
N   N8        1.0  0.78810  0.74930  0.97620  1.0000 -0.381500022
N   N9        1.0  0.29310  0.01710  0.31870  1.0000 -0.1804573529
N   N10       1.0  0.98290  0.70690  0.81870  1.0000 -0.1804573529
N   N11       1.0  0.58790  0.45310  0.55050  1.0000 -0.1866587375
N   N12       1.0  0.54690  0.41210  0.05050  1.0000 -0.1866587375
N   N13       1.0  0.67740  0.43560  0.64150  1.0000 -0.1804573529
N   N14       1.0  0.56440  0.32260  0.14150  1.0000 -0.1804573529
N   N15       1.0  0.50440  0.14360  0.75110  1.0000 -0.398894503
N   N16       1.0  0.85640  0.49560  0.25110  1.0000 -0.398894503
N   N17       1.0  0.54360  0.08040  0.81200  1.0000 -0.381500022
N   N18       1.0  0.91960  0.45640  0.31200  1.0000 -0.381500022
N   N19       1.0  0.67050  0.23350  0.77520  1.0000 -0.381500022
N   N20       1.0  0.76650  0.32950  0.27520  1.0000 -0.381500022
N   N21       1.0  0.18120  0.81320  0.77670  1.0000 -0.1804573529
N   N22       1.0  0.18680  0.81880  0.27670  1.0000 -0.1804573529
N   N23       1.0  0.86070  0.20510  0.89850  1.0000 -0.1866587375
N   N24       1.0  0.79490  0.13930  0.39850  1.0000 -0.1866587375
N   N25       1.0  0.07650  0.90810  0.05280  1.0000 -0.1804573529
N   N26       1.0  0.09190  0.92350  0.55280  1.0000 -0.1804573529
N   N27       1.0  0.10890  0.18130  0.08460  1.0000 -0.3865644478
N   N28       1.0  0.81870  0.89110  0.58460  1.0000 -0.3865644478
N   N29       1.0  0.20670  0.34970  0.06090  1.0000 -0.381500022
N   N30       1.0  0.65030  0.79330  0.56090  1.0000 -0.381500022
N   N31       1.0  0.21190  0.25070  0.02380  1.0000 -0.381500022
N   N32       1.0  0.74930  0.78810  0.52380  1.0000 -0.381500022
N   N33       1.0  0.01710  0.29310  0.18130  1.0000 -0.1804573529
N   N34       1.0  0.70690  0.98290  0.68130  1.0000 -0.1804573529
N   N35       1.0  0.45310  0.58790  0.94950  1.0000 -0.1866587375
N   N36       1.0  0.41210  0.54690  0.44950  1.0000 -0.1866587375
N   N37       1.0  0.43560  0.67740  0.85850  1.0000 -0.1804573529
N   N38       1.0  0.32260  0.56440  0.35850  1.0000 -0.1804573529
N   N39       1.0  0.14360  0.50440  0.74890  1.0000 -0.398894503
N   N40       1.0  0.49560  0.85640  0.24890  1.0000 -0.398894503
N   N41       1.0  0.08040  0.54360  0.68800  1.0000 -0.381500022
N   N42       1.0  0.45640  0.91960  0.18800  1.0000 -0.381500022
N   N43       1.0  0.23350  0.67050  0.72480  1.0000 -0.3744896047
N   N44       1.0  0.32950  0.76650  0.22480  1.0000 -0.3744896047
N   N45       1.0  0.81320  0.18120  0.72330  1.0000 -0.1804573529
N   N46       1.0  0.81880  0.18680  0.22330  1.0000 -0.1804573529
N   N47       1.0  0.20510  0.86070  0.60150  1.0000 -0.1866587375
N   N48       1.0  0.13930  0.79490  0.10150  1.0000 -0.1866587375
