# DDEC6 charges by PACMAN v1.1 (https://github.com/mtap-research/PACMAN-charge/)
data_2013[Cd][nan]3[ASR]4
_chemical_formula_sum              "Cd8 H36 C76 N28 O24"
_cell_length_a       12.7213
_cell_length_b       12.7213
_cell_length_c       20.709
_cell_angle_alpha    84.16
_cell_angle_beta     95.84
_cell_angle_gamma    109.13

_symmetry_space_group_name_H-M    "P 1"
_symmetry_Int_Tables_number       1

loop_
  _symmetry_equiv_pos_as_xyz
  'x, y, z'

loop_
  _atom_site_type_symbol
  _atom_site_label
  _atom_site_symmetry_multiplicity
  _atom_site_fract_x
  _atom_site_fract_y
  _atom_site_fract_z
  _atom_site_occupancy
  _atom_site_charge
Cd  Cd1       1.0  0.06901  0.93381  0.82079  1.0000 0.8634171004
Cd  Cd2       1.0  0.93381  0.06901  0.67921  1.0000 0.8634171004
Cd  Cd3       1.0  0.93099  0.06619  0.17921  1.0000 0.8634171004
Cd  Cd4       1.0  0.06619  0.93099  0.32079  1.0000 0.8634171004
Cd  Cd5       1.0  0.54618  0.45380  0.89882  1.0000 0.7433766986
Cd  Cd6       1.0  0.45380  0.54618  0.60118  1.0000 0.7433766986
Cd  Cd7       1.0  0.45382  0.54620  0.10118  1.0000 0.7433766986
Cd  Cd8       1.0  0.54620  0.45382  0.39882  1.0000 0.7433766986
H   H1        1.0  0.15490  0.13690  0.89640  1.0000 0.137453298
H   H2        1.0  0.13690  0.15490  0.60360  1.0000 0.137453298
H   H3        1.0  0.84510  0.86310  0.10360  1.0000 0.137453298
H   H4        1.0  0.86310  0.84510  0.39640  1.0000 0.137453298
H   H5        1.0  0.44700  0.26820  0.76970  1.0000 0.1316426523
H   H6        1.0  0.26820  0.44700  0.73030  1.0000 0.1316426523
H   H7        1.0  0.55300  0.73180  0.23030  1.0000 0.1316426523
H   H8        1.0  0.73180  0.55300  0.26970  1.0000 0.1316426523
H   H9        1.0  0.30430  0.11290  0.74440  1.0000 0.1316426523
H   H10       1.0  0.11290  0.30430  0.75560  1.0000 0.1316426523
H   H11       1.0  0.69570  0.88710  0.25560  1.0000 0.1316426523
H   H12       1.0  0.88710  0.69570  0.24440  1.0000 0.1316426523
H   H13       1.0  0.22000  0.75820  0.68900  1.0000 0.1316426523
H   H14       1.0  0.75820  0.22000  0.81100  1.0000 0.1316426523
H   H15       1.0  0.78000  0.24180  0.31100  1.0000 0.1316426523
H   H16       1.0  0.24180  0.78000  0.18900  1.0000 0.1316426523
H   H17       1.0  0.11180  0.17800  0.08880  1.0000 0.137453298
H   H18       1.0  0.17800  0.11180  0.41120  1.0000 0.137453298
H   H19       1.0  0.88820  0.82200  0.91120  1.0000 0.137453298
H   H20       1.0  0.82200  0.88820  0.58880  1.0000 0.137453298
H   H21       1.0  0.05410  0.92250  0.56360  1.0000 0.1316426523
H   H22       1.0  0.92250  0.05410  0.93640  1.0000 0.1316426523
H   H23       1.0  0.94590  0.07750  0.43640  1.0000 0.1316426523
H   H24       1.0  0.07750  0.94590  0.06360  1.0000 0.1316426523
H   H25       1.0  0.22210  0.74130  0.49700  1.0000 0.137453298
H   H26       1.0  0.74130  0.22210  0.00300  1.0000 0.137453298
H   H27       1.0  0.77790  0.25870  0.50300  1.0000 0.137453298
H   H28       1.0  0.25870  0.77790  0.99700  1.0000 0.137453298
H   H29       1.0  0.11520  0.29780  0.25440  1.0000 0.1316426523
H   H30       1.0  0.29780  0.11520  0.24560  1.0000 0.1316426523
H   H31       1.0  0.88480  0.70220  0.74560  1.0000 0.1316426523
H   H32       1.0  0.70220  0.88480  0.75440  1.0000 0.1316426523
H   H33       1.0  0.26810  0.44490  0.22910  1.0000 0.1316426523
H   H34       1.0  0.44490  0.26810  0.27090  1.0000 0.1316426523
H   H35       1.0  0.73190  0.55510  0.77090  1.0000 0.1316426523
H   H36       1.0  0.55510  0.73190  0.72910  1.0000 0.1316426523
C   C1        1.0  0.21540  0.16140  0.87070  1.0000 0.0383328007
C   C2        1.0  0.16140  0.21540  0.62930  1.0000 0.0383328007
C   C3        1.0  0.78460  0.83860  0.12930  1.0000 0.0383328007
C   C4        1.0  0.83860  0.78460  0.37070  1.0000 0.0383328007
C   C5        1.0  0.38850  0.24130  0.79680  1.0000 0.0383328007
C   C6        1.0  0.24130  0.38850  0.70320  1.0000 0.0383328007
C   C7        1.0  0.61150  0.75870  0.20320  1.0000 0.0383328007
C   C8        1.0  0.75870  0.61150  0.29680  1.0000 0.0383328007
C   C9        1.0  0.30250  0.14850  0.78110  1.0000 0.0035392996
C   C10       1.0  0.14850  0.30250  0.71890  1.0000 0.0035392996
C   C11       1.0  0.69750  0.85150  0.21890  1.0000 0.0035392996
C   C12       1.0  0.85150  0.69750  0.28110  1.0000 0.0035392996
C   C13       1.0  0.30560  0.25400  0.88740  1.0000 0.1137288476
C   C14       1.0  0.25400  0.30560  0.61260  1.0000 0.1137288476
C   C15       1.0  0.69440  0.74600  0.11260  1.0000 0.1137288476
C   C16       1.0  0.74600  0.69440  0.38740  1.0000 0.1137288476
C   C17       1.0  0.31170  0.30450  0.94720  1.0000 0.2292321886
C   C18       1.0  0.30450  0.31170  0.55280  1.0000 0.2292321886
C   C19       1.0  0.68830  0.69550  0.05280  1.0000 0.2292321886
C   C20       1.0  0.69550  0.68830  0.44720  1.0000 0.2292321886
C   C21       1.0  0.19800  0.77740  0.64650  1.0000 -0.1162028794
C   C22       1.0  0.77740  0.19800  0.85350  1.0000 -0.1162028794
C   C23       1.0  0.80200  0.22260  0.35350  1.0000 -0.1162028794
C   C24       1.0  0.22260  0.80200  0.14650  1.0000 -0.1162028794
C   C25       1.0  0.09780  0.88960  0.69320  1.0000 0.5573092814
C   C26       1.0  0.88960  0.09780  0.80680  1.0000 0.5573092814
C   C27       1.0  0.90220  0.11040  0.30680  1.0000 0.5573092814
C   C28       1.0  0.11040  0.90220  0.19320  1.0000 0.5573092814
C   C29       1.0  0.13030  0.84670  0.63470  1.0000 -0.0207255904
C   C30       1.0  0.84670  0.13030  0.86530  1.0000 -0.0207255904
C   C31       1.0  0.86970  0.15330  0.36530  1.0000 -0.0207255904
C   C32       1.0  0.15330  0.86970  0.13470  1.0000 -0.0207255904
C   C33       1.0  0.14130  0.23310  0.11810  1.0000 0.0315582345
C   C34       1.0  0.23310  0.14130  0.38190  1.0000 0.0315582345
C   C35       1.0  0.85870  0.76690  0.88190  1.0000 0.0315582345
C   C36       1.0  0.76690  0.85870  0.61810  1.0000 0.0315582345
C   C37       1.0  0.23250  0.32290  0.10200  1.0000 0.1193445793
C   C38       1.0  0.32290  0.23250  0.39800  1.0000 0.1193445793
C   C39       1.0  0.76750  0.67710  0.89800  1.0000 0.1193445793
C   C40       1.0  0.67710  0.76750  0.60200  1.0000 0.1193445793
C   C41       1.0  0.28010  0.33230  0.03930  1.0000 0.2381711568
C   C42       1.0  0.33230  0.28010  0.46070  1.0000 0.2381711568
C   C43       1.0  0.71990  0.66770  0.96070  1.0000 0.2381711568
C   C44       1.0  0.66770  0.71990  0.53930  1.0000 0.2381711568
C   C45       1.0  0.30890  0.66790  0.60630  1.0000 0.540501539
C   C46       1.0  0.66790  0.30890  0.89370  1.0000 0.540501539
C   C47       1.0  0.69110  0.33210  0.39370  1.0000 0.540501539
C   C48       1.0  0.33210  0.69110  0.10630  1.0000 0.540501539
C   C49       1.0  0.13280  0.83720  0.51920  1.0000 -0.0113076274
C   C50       1.0  0.83720  0.13280  0.98080  1.0000 -0.0113076274
C   C51       1.0  0.86720  0.16280  0.48080  1.0000 -0.0113076274
C   C52       1.0  0.16280  0.86720  0.01920  1.0000 -0.0113076274
C   C53       1.0  0.09830  0.87650  0.57140  1.0000 -0.1360496764
C   C54       1.0  0.87650  0.09830  0.92860  1.0000 -0.1347841506
C   C55       1.0  0.90170  0.12350  0.42860  1.0000 -0.1347841506
C   C56       1.0  0.12350  0.90170  0.07140  1.0000 -0.1360496764
C   C57       1.0  0.19950  0.76770  0.53160  1.0000 -0.1031202503
C   C58       1.0  0.76770  0.19950  0.96840  1.0000 -0.1031202503
C   C59       1.0  0.80050  0.23230  0.46840  1.0000 -0.1031202503
C   C60       1.0  0.23230  0.80050  0.03160  1.0000 -0.1031202503
C   C61       1.0  0.23180  0.73780  0.59510  1.0000 -0.0207255904
C   C62       1.0  0.73780  0.23180  0.90490  1.0000 -0.0207255904
C   C63       1.0  0.76820  0.26220  0.40490  1.0000 -0.0207255904
C   C64       1.0  0.26220  0.76820  0.09510  1.0000 -0.0207255904
C   C65       1.0  0.14420  0.30260  0.21440  1.0000 -0.0113076274
C   C66       1.0  0.30260  0.14420  0.28560  1.0000 -0.0113076274
C   C67       1.0  0.85580  0.69740  0.78560  1.0000 -0.0113076274
C   C68       1.0  0.69740  0.85580  0.71440  1.0000 -0.0113076274
C   C69       1.0  0.23670  0.39130  0.19920  1.0000 0.0315582345
C   C70       1.0  0.39130  0.23670  0.30080  1.0000 0.0315582345
C   C71       1.0  0.76330  0.60870  0.80080  1.0000 0.0315582345
C   C72       1.0  0.60870  0.76330  0.69920  1.0000 0.0315582345
C   C73       1.0  0.10330  0.87150  0.44960  1.0000 0.540501539
C   C74       1.0  0.87150  0.10330  0.05040  1.0000 0.540501539
C   C75       1.0  0.89670  0.12850  0.55040  1.0000 0.540501539
C   C76       1.0  0.12850  0.89670  0.94960  1.0000 0.540501539
N   N1        1.0  0.21410  0.10710  0.81860  1.0000 -0.2004781466
N   N2        1.0  0.10710  0.21410  0.68140  1.0000 -0.2004781466
N   N3        1.0  0.78590  0.89290  0.18140  1.0000 -0.2004781466
N   N4        1.0  0.89290  0.78590  0.31860  1.0000 -0.2004781466
N   N5        1.0  0.39230  0.29530  0.84940  1.0000 -0.222723549
N   N6        1.0  0.29530  0.39230  0.65060  1.0000 -0.222723549
N   N7        1.0  0.60770  0.70470  0.15060  1.0000 -0.222723549
N   N8        1.0  0.70470  0.60770  0.34940  1.0000 -0.222723549
N   N9        1.0  0.39560  0.39400  0.96480  1.0000 -0.2004781466
N   N10       1.0  0.39400  0.39560  0.53520  1.0000 -0.2004781466
N   N11       1.0  0.60440  0.60600  0.03520  1.0000 -0.205645058
N   N12       1.0  0.60600  0.60440  0.46480  1.0000 -0.205645058
N   N13       1.0  0.23520  0.26220  0.99170  1.0000 -0.3748195653
N   N14       1.0  0.26220  0.23520  0.50830  1.0000 -0.3748195653
N   N15       1.0  0.76480  0.73780  0.00830  1.0000 -0.3748195653
N   N16       1.0  0.73780  0.76480  0.49170  1.0000 -0.3748195653
N   N17       1.0  0.37660  0.41120  0.02550  1.0000 -0.205645058
N   N18       1.0  0.41120  0.37660  0.47450  1.0000 -0.2004781466
N   N19       1.0  0.62340  0.58880  0.97450  1.0000 -0.2004781466
N   N20       1.0  0.58880  0.62340  0.52550  1.0000 -0.2004781466
N   N21       1.0  0.09410  0.22190  0.17300  1.0000 -0.1855590527
N   N22       1.0  0.22190  0.09410  0.32700  1.0000 -0.1855590527
N   N23       1.0  0.90590  0.77810  0.82700  1.0000 -0.1855590527
N   N24       1.0  0.77810  0.90590  0.67300  1.0000 -0.1855590527
N   N25       1.0  0.28250  0.40270  0.14250  1.0000 -0.222723549
N   N26       1.0  0.40270  0.28250  0.35750  1.0000 -0.222723549
N   N27       1.0  0.71750  0.59730  0.85750  1.0000 -0.222723549
N   N28       1.0  0.59730  0.71750  0.64250  1.0000 -0.222723549
O   O1        1.0  0.13940  0.86360  0.74750  1.0000 -0.5091404949
O   O2        1.0  0.86360  0.13940  0.75250  1.0000 -0.5091404949
O   O3        1.0  0.86060  0.13640  0.25250  1.0000 -0.5091404949
O   O4        1.0  0.13640  0.86060  0.24750  1.0000 -0.5091404949
O   O5        1.0  0.03550  0.94670  0.68590  1.0000 -0.5709969585
O   O6        1.0  0.94670  0.03550  0.81410  1.0000 -0.5709969585
O   O7        1.0  0.96450  0.05330  0.31410  1.0000 -0.5709969585
O   O8        1.0  0.05330  0.96450  0.18590  1.0000 -0.5709969585
O   O9        1.0  0.04970  0.93790  0.43670  1.0000 -0.540886192
O   O10       1.0  0.93790  0.04970  0.06330  1.0000 -0.540886192
O   O11       1.0  0.95030  0.06210  0.56330  1.0000 -0.545366395
O   O12       1.0  0.06210  0.95030  0.93670  1.0000 -0.545366395
O   O13       1.0  0.34440  0.64720  0.66340  1.0000 -0.5709969585
O   O14       1.0  0.64720  0.34440  0.83660  1.0000 -0.5709969585
O   O15       1.0  0.65560  0.35280  0.33660  1.0000 -0.5709969585
O   O16       1.0  0.35280  0.65560  0.16340  1.0000 -0.5709969585
O   O17       1.0  0.33420  0.63340  0.55720  1.0000 -0.5260313933
O   O18       1.0  0.63340  0.33420  0.94280  1.0000 -0.5260313933
O   O19       1.0  0.66580  0.36660  0.44280  1.0000 -0.5260313933
O   O20       1.0  0.36660  0.66580  0.05720  1.0000 -0.5260313933
O   O21       1.0  0.13600  0.82980  0.40480  1.0000 -0.540886192
O   O22       1.0  0.82980  0.13600  0.09520  1.0000 -0.540886192
O   O23       1.0  0.86400  0.17020  0.59520  1.0000 -0.540886192
O   O24       1.0  0.17020  0.86400  0.90480  1.0000 -0.540886192
