# DDEC6 charges by PACMAN v1.1 (https://github.com/mtap-research/PACMAN-charge/)
data_2013[Zn][nan]3[ASR]21
_chemical_formula_sum              "Zn12 H76 C108 N16 O36"
_cell_length_a       15.7991
_cell_length_b       11.4257
_cell_length_c       21.5511
_cell_angle_alpha    90
_cell_angle_beta     122.132
_cell_angle_gamma    90

_symmetry_space_group_name_H-M    "P 1"
_symmetry_Int_Tables_number       1

loop_
  _symmetry_equiv_pos_as_xyz
  'x, y, z'

loop_
  _atom_site_type_symbol
  _atom_site_label
  _atom_site_symmetry_multiplicity
  _atom_site_fract_x
  _atom_site_fract_y
  _atom_site_fract_z
  _atom_site_occupancy
  _atom_site_charge
Zn  Zn1       1.0  0.38502  0.68356  0.80604  1.0000 0.843261494
Zn  Zn2       1.0  0.61498  0.68356  0.69396  1.0000 0.843261494
Zn  Zn3       1.0  0.61498  0.31644  0.19396  1.0000 0.843261494
Zn  Zn4       1.0  0.38502  0.31644  0.30604  1.0000 0.843261494
Zn  Zn5       1.0  0.60362  0.80838  0.82987  1.0000 0.8824893821
Zn  Zn6       1.0  0.39638  0.80838  0.67013  1.0000 0.8824893821
Zn  Zn7       1.0  0.39638  0.19162  0.17013  1.0000 0.8824893821
Zn  Zn8       1.0  0.60362  0.19162  0.32987  1.0000 0.8824893821
Zn  Zn9       1.0  0.58331  0.09088  0.00035  1.0000 0.8140610594
Zn  Zn10      1.0  0.41669  0.09088  0.49965  1.0000 0.8140610594
Zn  Zn11      1.0  0.41669  0.90912  0.99965  1.0000 0.8140610594
Zn  Zn12      1.0  0.58331  0.90912  0.50035  1.0000 0.8140610594
H   H1        1.0  0.66470  0.15530  0.80680  1.0000 0.1118238915
H   H2        1.0  0.33530  0.15530  0.69320  1.0000 0.1118238915
H   H3        1.0  0.33530  0.84470  0.19320  1.0000 0.1118238915
H   H4        1.0  0.66470  0.84470  0.30680  1.0000 0.1118238915
H   H5        1.0  0.68510  0.34880  0.78390  1.0000 0.1201746135
H   H6        1.0  0.31490  0.34880  0.71610  1.0000 0.1201746135
H   H7        1.0  0.31490  0.65120  0.21610  1.0000 0.1201746135
H   H8        1.0  0.68510  0.65120  0.28390  1.0000 0.1201746135
H   H9        1.0  0.54630  0.45500  0.88670  1.0000 0.1306477624
H   H10       1.0  0.45370  0.45500  0.61330  1.0000 0.1306477624
H   H11       1.0  0.45370  0.54500  0.11330  1.0000 0.1306477624
H   H12       1.0  0.54630  0.54500  0.38670  1.0000 0.1306477624
H   H13       1.0  0.35910  0.28060  0.86390  1.0000 0.1379091057
H   H14       1.0  0.64090  0.28060  0.63610  1.0000 0.1379091057
H   H15       1.0  0.64090  0.71940  0.13610  1.0000 0.1379091057
H   H16       1.0  0.35910  0.71940  0.36390  1.0000 0.1379091057
H   H17       1.0  0.39650  0.19460  0.82500  1.0000 0.1306477624
H   H18       1.0  0.60350  0.19460  0.67500  1.0000 0.1306477624
H   H19       1.0  0.60350  0.80540  0.17500  1.0000 0.1306477624
H   H20       1.0  0.39650  0.80540  0.32500  1.0000 0.1306477624
H   H21       1.0  0.25980  0.71540  0.96570  1.0000 0.099677809
H   H22       1.0  0.74020  0.71540  0.53430  1.0000 0.099677809
H   H23       1.0  0.74020  0.28460  0.03430  1.0000 0.099677809
H   H24       1.0  0.25980  0.28460  0.46570  1.0000 0.099677809
H   H25       1.0  0.10060  0.69080  0.94030  1.0000 0.1201746135
H   H26       1.0  0.89940  0.69080  0.55970  1.0000 0.1201746135
H   H27       1.0  0.89940  0.30920  0.05970  1.0000 0.1201746135
H   H28       1.0  0.10060  0.30920  0.44030  1.0000 0.1201746135
H   H29       1.0  0.07530  0.04290  0.93910  1.0000 0.1306477624
H   H30       1.0  0.92470  0.04290  0.56090  1.0000 0.1306477624
H   H31       1.0  0.92470  0.95710  0.06090  1.0000 0.1306477624
H   H32       1.0  0.07530  0.95710  0.43910  1.0000 0.1306477624
H   H33       1.0  0.23730  0.05710  0.96730  1.0000 0.1118238915
H   H34       1.0  0.76270  0.05710  0.53270  1.0000 0.1118238915
H   H35       1.0  0.76270  0.94290  0.03270  1.0000 0.1118238915
H   H36       1.0  0.23730  0.94290  0.46730  1.0000 0.1118238915
H   H37       1.0  0.97530  0.69660  0.96480  1.0000 0.1306477624
H   H38       1.0  0.02470  0.69660  0.53520  1.0000 0.1306477624
H   H39       1.0  0.02470  0.30340  0.03520  1.0000 0.1306477624
H   H40       1.0  0.97530  0.30340  0.46480  1.0000 0.1306477624
H   H41       1.0  0.80710  0.67750  0.92360  1.0000 0.099677809
H   H42       1.0  0.19290  0.67750  0.57640  1.0000 0.099677809
H   H43       1.0  0.19290  0.32250  0.07640  1.0000 0.099677809
H   H44       1.0  0.80710  0.32250  0.42360  1.0000 0.099677809
H   H45       1.0  0.74730  0.97930  0.82310  1.0000 0.1118238915
H   H46       1.0  0.25270  0.97930  0.67690  1.0000 0.1118238915
H   H47       1.0  0.25270  0.02070  0.17690  1.0000 0.1118238915
H   H48       1.0  0.74730  0.02070  0.32310  1.0000 0.1118238915
H   H49       1.0  0.91210  0.00760  0.86170  1.0000 0.1306477624
H   H50       1.0  0.08790  0.00760  0.63830  1.0000 0.1306477624
H   H51       1.0  0.08790  0.99240  0.13830  1.0000 0.1306477624
H   H52       1.0  0.91210  0.99240  0.36170  1.0000 0.1306477624
H   H53       1.0  0.24500  0.86780  0.80630  1.0000 0.1201746135
H   H54       1.0  0.75500  0.86780  0.69370  1.0000 0.1201746135
H   H55       1.0  0.75500  0.13220  0.19370  1.0000 0.1201746135
H   H56       1.0  0.24500  0.13220  0.30630  1.0000 0.1201746135
H   H57       1.0  0.08710  0.87780  0.78680  1.0000 0.1306477624
H   H58       1.0  0.91290  0.87780  0.71320  1.0000 0.1306477624
H   H59       1.0  0.91290  0.12220  0.21320  1.0000 0.1306477624
H   H60       1.0  0.08710  0.12220  0.28680  1.0000 0.1306477624
H   H61       1.0  0.04660  0.53830  0.72540  1.0000 0.1201746135
H   H62       1.0  0.95340  0.53830  0.77460  1.0000 0.1201746135
H   H63       1.0  0.95340  0.46170  0.27460  1.0000 0.1201746135
H   H64       1.0  0.04660  0.46170  0.22540  1.0000 0.1201746135
H   H65       1.0  0.19790  0.54020  0.73390  1.0000 0.1118238915
H   H66       1.0  0.80210  0.54020  0.76610  1.0000 0.1118238915
H   H67       1.0  0.80210  0.45980  0.26610  1.0000 0.1118238915
H   H68       1.0  0.19790  0.45980  0.23390  1.0000 0.1118238915
H   H69       1.0  0.44740  0.37940  0.94810  1.0000 0.1481498319
H   H70       1.0  0.55260  0.37940  0.55190  1.0000 0.1481498319
H   H71       1.0  0.55260  0.62060  0.05190  1.0000 0.1481498319
H   H72       1.0  0.44740  0.62060  0.44810  1.0000 0.1481498319
H   H73       1.0  0.55760  0.40160  0.97570  1.0000 0.1379091057
H   H74       1.0  0.44240  0.40160  0.52430  1.0000 0.1379091057
H   H75       1.0  0.44240  0.59840  0.02430  1.0000 0.1379091057
H   H76       1.0  0.55760  0.59840  0.47570  1.0000 0.1379091057
C   C1        1.0  0.57520  0.05640  0.86279  1.0000 0.5578760642
C   C2        1.0  0.42480  0.05640  0.63721  1.0000 0.5578760642
C   C3        1.0  0.42480  0.94360  0.13721  1.0000 0.5578760642
C   C4        1.0  0.57520  0.94360  0.36279  1.0000 0.5578760642
C   C5        1.0  0.58986  0.18610  0.85814  1.0000 -0.1202256431
C   C6        1.0  0.41014  0.18610  0.64186  1.0000 -0.1202256431
C   C7        1.0  0.41014  0.81390  0.14186  1.0000 -0.1202256431
C   C8        1.0  0.58986  0.81390  0.35814  1.0000 -0.1202256431
C   C9        1.0  0.63900  0.21610  0.82225  1.0000 -0.111533006
C   C10       1.0  0.36100  0.21610  0.67775  1.0000 -0.111533006
C   C11       1.0  0.36100  0.78390  0.17775  1.0000 -0.111533006
C   C12       1.0  0.63900  0.78390  0.32225  1.0000 -0.111533006
C   C13       1.0  0.65155  0.33090  0.80851  1.0000 -0.1301023525
C   C14       1.0  0.34845  0.33090  0.69149  1.0000 -0.1301023525
C   C15       1.0  0.34845  0.66910  0.19149  1.0000 -0.1301023525
C   C16       1.0  0.65155  0.66910  0.30851  1.0000 -0.1301023525
C   C17       1.0  0.61432  0.41940  0.83135  1.0000 0.0022202746
C   C18       1.0  0.38568  0.41940  0.66865  1.0000 0.0022202746
C   C19       1.0  0.38568  0.58060  0.16865  1.0000 0.0022202746
C   C20       1.0  0.61432  0.58060  0.33135  1.0000 0.0022202746
C   C21       1.0  0.56952  0.39320  0.87005  1.0000 -0.2104077798
C   C22       1.0  0.43048  0.39320  0.62995  1.0000 -0.2104077798
C   C23       1.0  0.43048  0.60680  0.12995  1.0000 -0.2104077798
C   C24       1.0  0.56952  0.60680  0.37005  1.0000 -0.2104077798
C   C25       1.0  0.55773  0.27780  0.88503  1.0000 0.1306477624
C   C26       1.0  0.44227  0.27780  0.61497  1.0000 0.1306477624
C   C27       1.0  0.44227  0.72220  0.11497  1.0000 0.1306477624
C   C28       1.0  0.55773  0.72220  0.38503  1.0000 0.1306477624
C   C29       1.0  0.61710  0.54270  0.80802  1.0000 0.5690401334
C   C30       1.0  0.38290  0.54270  0.69198  1.0000 0.5690401334
C   C31       1.0  0.38290  0.45730  0.19198  1.0000 0.5690401334
C   C32       1.0  0.61710  0.45730  0.30802  1.0000 0.5690401334
C   C33       1.0  0.40346  0.21320  0.87239  1.0000 -0.2723901731
C   C34       1.0  0.59654  0.21320  0.62761  1.0000 -0.2723901731
C   C35       1.0  0.59654  0.78680  0.12761  1.0000 -0.2723901731
C   C36       1.0  0.40346  0.78680  0.37239  1.0000 -0.2723901731
C   C37       1.0  0.36577  0.10880  0.89470  1.0000 0.6191489238
C   C38       1.0  0.63423  0.10880  0.60530  1.0000 0.6191489238
C   C39       1.0  0.63423  0.89120  0.10530  1.0000 0.6191489238
C   C40       1.0  0.36577  0.89120  0.39470  1.0000 0.6191489238
C   C41       1.0  0.51554  0.34570  0.97429  1.0000 -0.2723901731
C   C42       1.0  0.48446  0.34570  0.52571  1.0000 -0.2723901731
C   C43       1.0  0.48446  0.65430  0.02571  1.0000 -0.2723901731
C   C44       1.0  0.51554  0.65430  0.47429  1.0000 -0.2723901731
C   C45       1.0  0.55171  0.30520  0.05164  1.0000 0.5960421699
C   C46       1.0  0.44829  0.30520  0.44836  1.0000 0.5960421699
C   C47       1.0  0.44829  0.69480  0.94836  1.0000 0.5960421699
C   C48       1.0  0.55171  0.69480  0.55164  1.0000 0.5960421699
C   C49       1.0  0.22167  0.78310  0.96057  1.0000 0.06652923
C   C50       1.0  0.77833  0.78310  0.53943  1.0000 0.06652923
C   C51       1.0  0.77833  0.21690  0.03943  1.0000 0.06652923
C   C52       1.0  0.22167  0.21690  0.46057  1.0000 0.06652923
C   C53       1.0  0.12687  0.76740  0.94507  1.0000 -0.1988190648
C   C54       1.0  0.87313  0.76740  0.55493  1.0000 -0.1988190648
C   C55       1.0  0.87313  0.23260  0.05493  1.0000 -0.1988190648
C   C56       1.0  0.12687  0.23260  0.44507  1.0000 -0.1988190648
C   C57       1.0  0.06848  0.86620  0.93628  1.0000 0.099677809
C   C58       1.0  0.93152  0.86620  0.56372  1.0000 0.099677809
C   C59       1.0  0.93152  0.13380  0.06372  1.0000 0.099677809
C   C60       1.0  0.06848  0.13380  0.43628  1.0000 0.099677809
C   C61       1.0  0.11210  0.97370  0.94470  1.0000 -0.1988190648
C   C62       1.0  0.88790  0.97370  0.55530  1.0000 -0.1988190648
C   C63       1.0  0.88790  0.02630  0.05530  1.0000 -0.1988190648
C   C64       1.0  0.11210  0.02630  0.44470  1.0000 -0.1988190648
C   C65       1.0  0.20878  0.98150  0.96118  1.0000 0.0936048675
C   C66       1.0  0.79122  0.98150  0.53882  1.0000 0.0936048675
C   C67       1.0  0.79122  0.01850  0.03882  1.0000 0.0936048675
C   C68       1.0  0.20878  0.01850  0.46118  1.0000 0.0936048675
C   C69       1.0  0.96269  0.85310  0.91560  1.0000 0.099677809
C   C70       1.0  0.03731  0.85310  0.58440  1.0000 0.099677809
C   C71       1.0  0.03731  0.14690  0.08440  1.0000 0.099677809
C   C72       1.0  0.96269  0.14690  0.41560  1.0000 0.099677809
C   C73       1.0  0.92950  0.75590  0.93490  1.0000 -0.2104077798
C   C74       1.0  0.07050  0.75590  0.56510  1.0000 -0.2104077798
C   C75       1.0  0.07050  0.24410  0.06510  1.0000 -0.2104077798
C   C76       1.0  0.92950  0.24410  0.43490  1.0000 -0.2104077798
C   C77       1.0  0.82830  0.74540  0.91010  1.0000 0.0835503486
C   C78       1.0  0.17170  0.74540  0.58990  1.0000 0.0835503486
C   C79       1.0  0.17170  0.25460  0.08990  1.0000 0.0835503486
C   C80       1.0  0.82830  0.25460  0.41010  1.0000 0.0835503486
C   C81       1.0  0.79420  0.92020  0.85210  1.0000 0.0835503486
C   C82       1.0  0.20580  0.92020  0.64790  1.0000 0.0835503486
C   C83       1.0  0.20580  0.07980  0.14790  1.0000 0.0835503486
C   C84       1.0  0.79420  0.07980  0.35210  1.0000 0.0835503486
C   C85       1.0  0.89250  0.93760  0.87450  1.0000 -0.1988190648
C   C86       1.0  0.10750  0.93760  0.62550  1.0000 -0.1988190648
C   C87       1.0  0.10750  0.06240  0.12550  1.0000 -0.1988190648
C   C88       1.0  0.89250  0.06240  0.37450  1.0000 -0.1988190648
C   C89       1.0  0.20381  0.80020  0.78941  1.0000 0.099677809
C   C90       1.0  0.79619  0.80020  0.71059  1.0000 0.099677809
C   C91       1.0  0.79619  0.19980  0.21059  1.0000 0.099677809
C   C92       1.0  0.20381  0.19980  0.28941  1.0000 0.099677809
C   C93       1.0  0.11031  0.80650  0.77831  1.0000 -0.1988190648
C   C94       1.0  0.88969  0.80650  0.72169  1.0000 -0.1988190648
C   C95       1.0  0.88969  0.19350  0.22169  1.0000 -0.1988190648
C   C96       1.0  0.11031  0.19350  0.27831  1.0000 -0.1988190648
C   C97       1.0  0.04982  0.70850  0.75467  1.0000 0.099677809
C   C98       1.0  0.95018  0.70850  0.74533  1.0000 0.099677809
C   C99       1.0  0.95018  0.29150  0.24533  1.0000 0.0936048675
C   C100      1.0  0.04982  0.29150  0.25467  1.0000 0.099677809
C   C101      1.0  0.08590  0.60750  0.74060  1.0000 -0.1988190648
C   C102      1.0  0.91410  0.60750  0.75940  1.0000 -0.1988190648
C   C103      1.0  0.91410  0.39250  0.25940  1.0000 -0.1988190648
C   C104      1.0  0.08590  0.39250  0.24060  1.0000 -0.1988190648
C   C105      1.0  0.17713  0.60713  0.74853  1.0000 0.0532367832
C   C106      1.0  0.82287  0.60713  0.75147  1.0000 0.0532367832
C   C107      1.0  0.82287  0.39287  0.25147  1.0000 0.0532367832
C   C108      1.0  0.17713  0.39287  0.24853  1.0000 0.0532367832
N   N1        1.0  0.50872  0.25067  0.92491  1.0000 -0.0961209697
N   N2        1.0  0.49128  0.25067  0.57509  1.0000 -0.0961209697
N   N3        1.0  0.49128  0.74933  0.07509  1.0000 -0.0961209697
N   N4        1.0  0.50872  0.74933  0.42491  1.0000 -0.0961209697
N   N5        1.0  0.26491  0.88780  0.96909  1.0000 -0.2432151132
N   N6        1.0  0.73509  0.88780  0.53091  1.0000 -0.2432151132
N   N7        1.0  0.73509  0.11220  0.03091  1.0000 -0.2432151132
N   N8        1.0  0.26491  0.11220  0.46909  1.0000 -0.2432151132
N   N9        1.0  0.75999  0.82480  0.86857  1.0000 -0.2432151132
N   N10       1.0  0.24001  0.82480  0.63143  1.0000 -0.2432151132
N   N11       1.0  0.24001  0.17520  0.13143  1.0000 -0.2432151132
N   N12       1.0  0.75999  0.17520  0.36857  1.0000 -0.2432151132
N   N13       1.0  0.23974  0.70200  0.77733  1.0000 -0.2508958143
N   N14       1.0  0.76026  0.70200  0.72267  1.0000 -0.2508958143
N   N15       1.0  0.76026  0.29800  0.22267  1.0000 -0.2508958143
N   N16       1.0  0.23974  0.29800  0.27733  1.0000 -0.2508958143
O   O1        1.0  0.28373  0.06830  0.84873  1.0000 -0.5586843428
O   O2        1.0  0.71627  0.06830  0.65127  1.0000 -0.5586843428
O   O3        1.0  0.71627  0.93170  0.15127  1.0000 -0.5586843428
O   O4        1.0  0.28373  0.93170  0.34873  1.0000 -0.5586843428
O   O5        1.0  0.58842  0.20479  0.07389  1.0000 -0.5285579226
O   O6        1.0  0.41158  0.20479  0.42611  1.0000 -0.5285579226
O   O7        1.0  0.41158  0.79521  0.92611  1.0000 -0.5285579226
O   O8        1.0  0.58842  0.79521  0.57389  1.0000 -0.5285579226
O   O9        1.0  0.54747  0.38014  0.09296  1.0000 -0.5285579226
O   O10       1.0  0.45253  0.38014  0.40704  1.0000 -0.5285579226
O   O11       1.0  0.45253  0.61986  0.90704  1.0000 -0.5285579226
O   O12       1.0  0.54747  0.61986  0.59296  1.0000 -0.5285579226
O   O13       1.0  0.54072  0.01903  0.90031  1.0000 -0.5195943576
O   O14       1.0  0.45928  0.01903  0.59969  1.0000 -0.5195943576
O   O15       1.0  0.45928  0.98097  0.09969  1.0000 -0.5195943576
O   O16       1.0  0.54072  0.98097  0.40031  1.0000 -0.5195943576
O   O17       1.0  0.59818  0.99103  0.82800  1.0000 -0.4850868446
O   O18       1.0  0.40182  0.99103  0.67200  1.0000 -0.4850868446
O   O19       1.0  0.40182  0.00897  0.17200  1.0000 -0.4850868446
O   O20       1.0  0.59818  0.00897  0.32800  1.0000 -0.4850868446
O   O21       1.0  0.63586  0.55106  0.75782  1.0000 -0.5471660954
O   O22       1.0  0.36414  0.55106  0.74218  1.0000 -0.5471660954
O   O23       1.0  0.36414  0.44894  0.24218  1.0000 -0.5471660954
O   O24       1.0  0.63586  0.44894  0.25782  1.0000 -0.5471660954
O   O25       1.0  0.59849  0.62597  0.83634  1.0000 -0.5285579226
O   O26       1.0  0.40151  0.62597  0.66366  1.0000 -0.5285579226
O   O27       1.0  0.40151  0.37403  0.16366  1.0000 -0.5285579226
O   O28       1.0  0.59849  0.37403  0.33634  1.0000 -0.5285579226
O   O29       1.0  0.44420  0.81008  0.78320  1.0000 -0.7177671057
O   O30       1.0  0.55580  0.81008  0.71680  1.0000 -0.7177671057
O   O31       1.0  0.55580  0.18992  0.21680  1.0000 -0.7177671057
O   O32       1.0  0.44420  0.18992  0.28320  1.0000 -0.7177671057
O   O33       1.0  0.42211  0.07168  0.96100  1.0000 -0.5586843428
O   O34       1.0  0.57789  0.07168  0.53900  1.0000 -0.5586843428
O   O35       1.0  0.57789  0.92832  0.03900  1.0000 -0.5586843428
O   O36       1.0  0.42211  0.92832  0.46100  1.0000 -0.5586843428
