# DDEC6 charges by PACMAN v1.1 (https://github.com/mtap-research/PACMAN-charge/)
data_2013[PrSi][flu]3[ASR]1
_chemical_formula_sum              "Pr6 Si4 H64 C112 N2 O38"
_cell_length_a       14.168
_cell_length_b       15.091
_cell_length_c       22.752
_cell_angle_alpha    85.333
_cell_angle_beta     104.87
_cell_angle_gamma    110.574

_symmetry_space_group_name_H-M    "P 1"
_symmetry_Int_Tables_number       1

loop_
  _symmetry_equiv_pos_as_xyz
  'x, y, z'

loop_
  _atom_site_type_symbol
  _atom_site_label
  _atom_site_symmetry_multiplicity
  _atom_site_fract_x
  _atom_site_fract_y
  _atom_site_fract_z
  _atom_site_occupancy
  _atom_site_charge
Pr  Pr1       1.0  0.19445  0.20436  0.72980  1.0000 2.0789623731
Pr  Pr2       1.0  0.80555  0.79564  0.27020  1.0000 2.0789623731
Pr  Pr3       1.0  0.93129  0.16761  0.79786  1.0000 2.0505976551
Pr  Pr4       1.0  0.06871  0.83239  0.20214  1.0000 2.0505976551
Pr  Pr5       1.0  0.54200  0.28871  0.69591  1.0000 2.0505976551
Pr  Pr6       1.0  0.45800  0.71129  0.30409  1.0000 2.0505976551
Si  Si1       1.0  0.33131  0.78983  0.89306  1.0000 0.6198751801
Si  Si2       1.0  0.66869  0.21017  0.10694  1.0000 0.6198751801
Si  Si3       1.0  0.14189  0.67259  0.60763  1.0000 0.6133074039
Si  Si4       1.0  0.85811  0.32741  0.39237  1.0000 0.6133074039
H   H1        1.0  0.30100  0.52510  0.77250  1.0000 0.110318096
H   H2        1.0  0.69900  0.47490  0.22750  1.0000 0.110318096
H   H3        1.0  0.07860  0.46960  0.86350  1.0000 0.1213692173
H   H4        1.0  0.92140  0.53040  0.13650  1.0000 0.1213692173
H   H5        1.0  0.18800  0.93590  0.73580  1.0000 0.1213692173
H   H6        1.0  0.81200  0.06410  0.26420  1.0000 0.1213692173
H   H7        1.0  0.39870  0.98980  0.63980  1.0000 0.1279491452
H   H8        1.0  0.60130  0.01020  0.36020  1.0000 0.1279491452
H   H9        1.0  0.36600  0.67760  0.80370  1.0000 0.110318096
H   H10       1.0  0.63400  0.32240  0.19630  1.0000 0.110318096
H   H11       1.0  0.15040  0.62450  0.89880  1.0000 0.110318096
H   H12       1.0  0.84960  0.37550  0.10120  1.0000 0.110318096
H   H13       1.0  0.11970  0.78240  0.70400  1.0000 0.110318096
H   H14       1.0  0.88030  0.21760  0.29600  1.0000 0.110318096
H   H15       1.0  0.32450  0.83380  0.60370  1.0000 0.110318096
H   H16       1.0  0.67550  0.16620  0.39630  1.0000 0.110318096
H   H17       1.0  0.55530  0.87460  0.95300  1.0000 0.1018673404
H   H18       1.0  0.44470  0.12540  0.04700  1.0000 0.1018673404
H   H19       1.0  0.39070  0.86140  0.77980  1.0000 0.1018673404
H   H20       1.0  0.60930  0.13860  0.22020  1.0000 0.1018673404
H   H21       1.0  0.36880  0.99310  0.88700  1.0000 0.110318096
H   H22       1.0  0.63120  0.00690  0.11300  1.0000 0.110318096
H   H23       1.0  0.10610  0.76360  0.85010  1.0000 0.1018673404
H   H24       1.0  0.89390  0.23640  0.14990  1.0000 0.1018673404
H   H25       1.0  0.41930  0.67340  0.98240  1.0000 0.110318096
H   H26       1.0  0.58070  0.32660  0.01760  1.0000 0.110318096
H   H27       1.0  0.29930  0.86740  0.99670  1.0000 0.110318096
H   H28       1.0  0.70070  0.13260  0.00330  1.0000 0.110318096
H   H29       1.0  0.19190  0.62190  0.49970  1.0000 0.110318096
H   H30       1.0  0.80810  0.37810  0.50030  1.0000 0.110318096
H   H31       1.0  0.03020  0.77500  0.52510  1.0000 0.1213692173
H   H32       1.0  0.96980  0.22500  0.47490  1.0000 0.1213692173
H   H33       1.0  0.36330  0.68490  0.65720  1.0000 0.110318096
H   H34       1.0  0.63670  0.31510  0.34280  1.0000 0.110318096
H   H35       1.0  0.09860  0.47260  0.60180  1.0000 0.110318096
H   H36       1.0  0.90140  0.52740  0.39820  1.0000 0.110318096
H   H37       1.0  0.91870  0.60430  0.54870  1.0000 0.110318096
H   H38       1.0  0.08130  0.39570  0.45130  1.0000 0.110318096
H   H39       1.0  0.08020  0.58530  0.71840  1.0000 0.110318096
H   H40       1.0  0.91980  0.41470  0.28160  1.0000 0.110318096
H   H41       1.0  0.70160  0.97310  0.92310  1.0000 0.1213692173
H   H42       1.0  0.29840  0.02690  0.07690  1.0000 0.1213692173
H   H43       1.0  0.53460  0.96010  0.75170  1.0000 0.1213692173
H   H44       1.0  0.46540  0.03990  0.24830  1.0000 0.1213692173
H   H45       1.0  0.27370  0.09070  0.86410  1.0000 0.1213692173
H   H46       1.0  0.72630  0.90930  0.13590  1.0000 0.1213692173
H   H47       1.0  0.00870  0.86510  0.83200  1.0000 0.1279491452
H   H48       1.0  0.99130  0.13490  0.16800  1.0000 0.1279491452
H   H49       1.0  0.45390  0.65510  0.08640  1.0000 0.1279491452
H   H50       1.0  0.54610  0.34490  0.91360  1.0000 0.1279491452
H   H51       1.0  0.32870  0.84780  0.09990  1.0000 0.1213692173
H   H52       1.0  0.67130  0.15220  0.90010  1.0000 0.1213692173
H   H53       1.0  0.16750  0.66360  0.39880  1.0000 0.1213692173
H   H54       1.0  0.83250  0.33640  0.60120  1.0000 0.1213692173
H   H55       1.0  0.99330  0.80750  0.42120  1.0000 0.1213692173
H   H56       1.0  0.00670  0.19250  0.57880  1.0000 0.1213692173
H   H57       1.0  0.45440  0.58690  0.68090  1.0000 0.1279491452
H   H58       1.0  0.54560  0.41310  0.31910  1.0000 0.1279491452
H   H59       1.0  0.18580  0.36460  0.62660  1.0000 0.110318096
H   H60       1.0  0.81420  0.63540  0.37340  1.0000 0.110318096
H   H61       1.0  0.76590  0.51950  0.57750  1.0000 0.1213692173
H   H62       1.0  0.23410  0.48050  0.42250  1.0000 0.1213692173
H   H63       1.0  0.93080  0.49460  0.74520  1.0000 0.1213692173
H   H64       1.0  0.06920  0.50540  0.25480  1.0000 0.1213692173
C   C1        1.0  0.14190  0.37760  0.79260  1.0000 0.6275511854
C   C2        1.0  0.85810  0.62240  0.20740  1.0000 0.6275511854
C   C3        1.0  0.34680  0.07920  0.71290  1.0000 0.6633677953
C   C4        1.0  0.65320  0.92080  0.28710  1.0000 0.6633677953
C   C5        1.0  0.18200  0.47990  0.81360  1.0000 -0.0178061622
C   C6        1.0  0.81800  0.52010  0.18640  1.0000 -0.0178061622
C   C7        1.0  0.30190  0.97690  0.69190  1.0000 -0.0255738958
C   C8        1.0  0.69810  0.02310  0.30810  1.0000 -0.0255738958
C   C9        1.0  0.26950  0.54510  0.79740  1.0000 -0.0986269308
C   C10       1.0  0.73050  0.45490  0.20260  1.0000 -0.0986269308
C   C11       1.0  0.13700  0.51090  0.85210  1.0000 -0.0986269308
C   C12       1.0  0.86300  0.48910  0.14790  1.0000 -0.1089854366
C   C13       1.0  0.21680  0.91520  0.70960  1.0000 -0.0986269308
C   C14       1.0  0.78320  0.08480  0.29040  1.0000 -0.0903899492
C   C15       1.0  0.34160  0.94810  0.65240  1.0000 -0.0986269308
C   C16       1.0  0.65840  0.05190  0.34760  1.0000 -0.0986269308
C   C17       1.0  0.30970  0.63570  0.81700  1.0000 -0.0986269308
C   C18       1.0  0.69030  0.36430  0.18300  1.0000 -0.0986269308
C   C19       1.0  0.18080  0.60450  0.87310  1.0000 -0.0986269308
C   C20       1.0  0.81920  0.39550  0.12690  1.0000 -0.0986269308
C   C21       1.0  0.17420  0.82390  0.68900  1.0000 -0.0903899492
C   C22       1.0  0.82580  0.17610  0.31100  1.0000 -0.0903899492
C   C23       1.0  0.29570  0.85390  0.63020  1.0000 -0.0903899492
C   C24       1.0  0.70430  0.14610  0.36980  1.0000 -0.0903899492
C   C25       1.0  0.26750  0.66830  0.85721  1.0000 -0.2209081775
C   C26       1.0  0.73250  0.33170  0.14279  1.0000 -0.2209081775
C   C27       1.0  0.20870  0.79070  0.64703  1.0000 -0.1997416021
C   C28       1.0  0.79130  0.20930  0.35297  1.0000 -0.1997416021
C   C29       1.0  0.45600  0.85450  0.86970  1.0000 -0.2090092725
C   C30       1.0  0.54400  0.14550  0.13030  1.0000 -0.2090092725
C   C31       1.0  0.24850  0.86410  0.87070  1.0000 -0.2090092725
C   C32       1.0  0.75150  0.13590  0.12930  1.0000 -0.2090092725
C   C33       1.0  0.35890  0.77400  0.97900  1.0000 -0.1997416021
C   C34       1.0  0.64110  0.22600  0.02100  1.0000 -0.1997416021
C   C35       1.0  0.11640  0.69700  0.52440  1.0000 -0.1906592077
C   C36       1.0  0.88360  0.30300  0.47560  1.0000 -0.1906592077
C   C37       1.0  0.22420  0.59520  0.62770  1.0000 -0.1997416021
C   C38       1.0  0.77580  0.40480  0.37230  1.0000 -0.1997416021
C   C39       1.0  0.01480  0.60610  0.63030  1.0000 -0.2090092725
C   C40       1.0  0.98520  0.39390  0.36970  1.0000 -0.2090092725
C   C41       1.0  0.55070  0.89050  0.91230  1.0000 -0.0903899492
C   C42       1.0  0.44930  0.10950  0.08770  1.0000 -0.0903899492
C   C43       1.0  0.45320  0.88330  0.80910  1.0000 -0.0986269308
C   C44       1.0  0.54680  0.11670  0.19090  1.0000 -0.0986269308
C   C45       1.0  0.29670  0.96690  0.87510  1.0000 -0.0812027208
C   C46       1.0  0.70330  0.03310  0.12490  1.0000 -0.0812027208
C   C47       1.0  0.14020  0.82870  0.85390  1.0000 -0.0903899492
C   C48       1.0  0.85980  0.17130  0.14610  1.0000 -0.0903899492
C   C49       1.0  0.40250  0.71040  0.00610  1.0000 -0.0903899492
C   C50       1.0  0.59750  0.28960  0.99390  1.0000 -0.0903899492
C   C51       1.0  0.33130  0.82440  0.01480  1.0000 -0.0986269308
C   C52       1.0  0.66870  0.17560  0.98520  1.0000 -0.0986269308
C   C53       1.0  0.15440  0.66210  0.48510  1.0000 -0.0903899492
C   C54       1.0  0.84560  0.33790  0.51490  1.0000 -0.0903899492
C   C55       1.0  0.05770  0.75090  0.49970  1.0000 -0.0903899492
C   C56       1.0  0.94230  0.24910  0.50030  1.0000 -0.0903899492
C   C57       1.0  0.32670  0.62050  0.65070  1.0000 -0.0812027208
C   C58       1.0  0.67330  0.37950  0.34930  1.0000 -0.0812027208
C   C59       1.0  0.17010  0.49450  0.61820  1.0000 -0.0812027208
C   C60       1.0  0.82990  0.50550  0.38180  1.0000 -0.0812027208
C   C61       1.0  0.92140  0.58380  0.58850  1.0000 -0.0903899492
C   C62       1.0  0.07860  0.41620  0.41150  1.0000 -0.0903899492
C   C63       1.0  0.01700  0.57100  0.68960  1.0000 -0.0986269308
C   C64       1.0  0.98300  0.42900  0.31040  1.0000 -0.0986269308
C   C65       1.0  0.63860  0.95010  0.89430  1.0000 -0.0986269308
C   C66       1.0  0.36140  0.04990  0.10570  1.0000 -0.0986269308
C   C67       1.0  0.53900  0.94200  0.79210  1.0000 -0.0903899492
C   C68       1.0  0.46100  0.05800  0.20790  1.0000 -0.0903899492
C   C69       1.0  0.24090  0.02540  0.86240  1.0000 -0.1089854366
C   C70       1.0  0.75910  0.97460  0.13760  1.0000 -0.1089854366
C   C71       1.0  0.08090  0.88960  0.84230  1.0000 -0.0903899492
C   C72       1.0  0.91910  0.11040  0.15770  1.0000 -0.0903899492
C   C73       1.0  0.42290  0.69890  0.06850  1.0000 -0.0986269308
C   C74       1.0  0.57710  0.30110  0.93150  1.0000 -0.0986269308
C   C75       1.0  0.34940  0.81330  0.07670  1.0000 -0.0986269308
C   C76       1.0  0.65060  0.18670  0.92330  1.0000 -0.0986269308
C   C77       1.0  0.13790  0.68590  0.42380  1.0000 -0.0903899492
C   C78       1.0  0.86210  0.31410  0.57620  1.0000 -0.0903899492
C   C79       1.0  0.03620  0.77230  0.43720  1.0000 -0.0903899492
C   C80       1.0  0.96380  0.22770  0.56280  1.0000 -0.0903899492
C   C81       1.0  0.38270  0.56230  0.66560  1.0000 -0.0986269308
C   C82       1.0  0.61730  0.43770  0.33440  1.0000 -0.0986269308
C   C83       1.0  0.22190  0.42910  0.63290  1.0000 -0.1160601801
C   C84       1.0  0.77810  0.57090  0.36710  1.0000 -0.1160601801
C   C85       1.0  0.82970  0.53030  0.60540  1.0000 -0.0986269308
C   C86       1.0  0.17030  0.46970  0.39460  1.0000 -0.0986269308
C   C87       1.0  0.92800  0.51660  0.70560  1.0000 -0.0903899492
C   C88       1.0  0.07200  0.48340  0.29440  1.0000 -0.0903899492
C   C89       1.0  0.63280  0.97490  0.83460  1.0000 0.0138479448
C   C90       1.0  0.36720  0.02510  0.16540  1.0000 0.0138479448
C   C91       1.0  0.13240  0.98530  0.84680  1.0000 -0.0255738958
C   C92       1.0  0.86760  0.01470  0.15320  1.0000 -0.0178061622
C   C93       1.0  0.39740  0.75230  0.10400  1.0000 -0.0020468425
C   C94       1.0  0.60260  0.24770  0.89600  1.0000 -0.0020468425
C   C95       1.0  0.08110  0.73930  0.40030  1.0000 -0.0178061622
C   C96       1.0  0.91890  0.26070  0.59970  1.0000 -0.0178061622
C   C97       1.0  0.33110  0.46370  0.65770  1.0000 -0.0369563238
C   C98       1.0  0.66890  0.53630  0.34230  1.0000 -0.0369563238
C   C99       1.0  0.83290  0.49380  0.66270  1.0000 -0.0020468425
C   C100      1.0  0.16710  0.50620  0.33730  1.0000 -0.0020468425
C   C101      1.0  0.73130  0.04840  0.81860  1.0000 0.5675074333
C   C102      1.0  0.26870  0.95160  0.18140  1.0000 0.5675074333
C   C103      1.0  0.07200  0.05020  0.83210  1.0000 0.6198751801
C   C104      1.0  0.92800  0.94980  0.16790  1.0000 0.6198751801
C   C105      1.0  0.41440  0.73850  0.17130  1.0000 0.5780814165
C   C106      1.0  0.58560  0.26150  0.82870  1.0000 0.5780814165
C   C107      1.0  0.06550  0.76550  0.33460  1.0000 0.6275511854
C   C108      1.0  0.93450  0.23450  0.66540  1.0000 0.6275511854
C   C109      1.0  0.38770  0.39780  0.67720  1.0000 0.6198751801
C   C110      1.0  0.61230  0.60220  0.32280  1.0000 0.6198751801
C   C111      1.0  0.73280  0.42930  0.67840  1.0000 0.5623039478
C   C112      1.0  0.26720  0.57070  0.32160  1.0000 0.5623039478
N   N1        1.0  0.08470  0.05880  0.63870  1.0000 0.7088644677
N   N2        1.0  0.91530  0.94120  0.36130  1.0000 0.7088644677
O   O1        1.0  0.19440  0.35140  0.76866  1.0000 -0.6178139812
O   O2        1.0  0.80560  0.64860  0.23134  1.0000 -0.6178139812
O   O3        1.0  0.30000  0.11010  0.74106  1.0000 -0.6788635677
O   O4        1.0  0.70000  0.88990  0.25894  1.0000 -0.6788635677
O   O5        1.0  0.15360  0.13780  0.62512  1.0000 -0.5900482661
O   O6        1.0  0.84640  0.86220  0.37488  1.0000 -0.5900482661
O   O7        1.0  0.06580  0.04340  0.68735  1.0000 -0.443973673
O   O8        1.0  0.93420  0.95660  0.31265  1.0000 -0.443973673
O   O9        1.0  0.10540  0.13220  0.80822  1.0000 -0.799811197
O   O10       1.0  0.89460  0.86780  0.19178  1.0000 -0.799811197
O   O11       1.0  0.98490  0.78680  0.30981  1.0000 -0.7365975208
O   O12       1.0  0.01510  0.21320  0.69019  1.0000 -0.7365975208
O   O13       1.0  0.34270  0.31300  0.68762  1.0000 -0.6972651011
O   O14       1.0  0.65730  0.68700  0.31238  1.0000 -0.6972651011
O   O15       1.0  0.04470  0.99720  0.58660  1.0000 -0.4567030794
O   O16       1.0  0.95530  0.00280  0.41340  1.0000 -0.4567030794
O   O17       1.0  0.05310  0.32860  0.80089  1.0000 -0.6788635677
O   O18       1.0  0.94690  0.67140  0.19911  1.0000 -0.6788635677
O   O19       1.0  0.43090  0.12760  0.69817  1.0000 -0.6788635677
O   O20       1.0  0.56910  0.87240  0.30183  1.0000 -0.6788635677
O   O21       1.0  0.73030  0.07010  0.76512  1.0000 -0.5900482661
O   O22       1.0  0.26970  0.92990  0.23488  1.0000 -0.5900482661
O   O23       1.0  0.81020  0.07840  0.86074  1.0000 -0.6410744018
O   O24       1.0  0.18980  0.92160  0.13926  1.0000 -0.6410744018
O   O25       1.0  0.98260  0.02380  0.84520  1.0000 -0.6142379767
O   O26       1.0  0.01740  0.97620  0.15480  1.0000 -0.6178139812
O   O27       1.0  0.12780  0.76250  0.30484  1.0000 -0.6019662148
O   O28       1.0  0.87220  0.23750  0.69516  1.0000 -0.6019662148
O   O29       1.0  0.47180  0.69190  0.19748  1.0000 -0.6283174283
O   O30       1.0  0.52820  0.30810  0.80252  1.0000 -0.6283174283
O   O31       1.0  0.37450  0.77320  0.20214  1.0000 -0.6019662148
O   O32       1.0  0.62550  0.22680  0.79786  1.0000 -0.6019662148
O   O33       1.0  0.48500  0.42710  0.68316  1.0000 -0.6178139812
O   O34       1.0  0.51500  0.57290  0.31684  1.0000 -0.6178139812
O   O35       1.0  0.65520  0.39950  0.63491  1.0000 -0.6540883011
O   O36       1.0  0.34480  0.60050  0.36509  1.0000 -0.6540883011
O   O37       1.0  0.73270  0.40020  0.73041  1.0000 -0.581667853
O   O38       1.0  0.26730  0.59980  0.26959  1.0000 -0.581667853
