# DDEC6 charges by PACMAN v1.1 (https://github.com/mtap-research/PACMAN-charge/)
data_2013[Sm][dia]3[ASR]1
_chemical_formula_sum              "Sm4 C16 O32"
_cell_length_a       9.6885
_cell_length_b       11.817
_cell_length_c       14.4001
_cell_angle_alpha    90
_cell_angle_beta     122.349
_cell_angle_gamma    90

_symmetry_space_group_name_H-M    "P 1"
_symmetry_Int_Tables_number       1

loop_
  _symmetry_equiv_pos_as_xyz
  'x, y, z'

loop_
  _atom_site_type_symbol
  _atom_site_label
  _atom_site_symmetry_multiplicity
  _atom_site_fract_x
  _atom_site_fract_y
  _atom_site_fract_z
  _atom_site_occupancy
  _atom_site_charge
Sm  Sm1       1.0  0.11686  0.48355  0.33048  1.0000 1.9362768451
Sm  Sm2       1.0  0.88314  0.98355  0.16952  1.0000 1.9362768451
Sm  Sm3       1.0  0.88314  0.51645  0.66952  1.0000 1.9362768451
Sm  Sm4       1.0  0.11686  0.01645  0.83048  1.0000 1.9094429532
C   C1        1.0  0.99580  0.43480  0.50080  1.0000 0.5354021111
C   C2        1.0  0.00420  0.93480  0.99920  1.0000 0.5338636755
C   C3        1.0  0.00420  0.56520  0.49920  1.0000 0.5338636755
C   C4        1.0  0.99580  0.06520  0.00080  1.0000 0.5338636755
C   C5        1.0  0.08250  0.75310  0.28260  1.0000 0.5974725554
C   C6        1.0  0.91750  0.25310  0.21740  1.0000 0.5974725554
C   C7        1.0  0.91750  0.24690  0.71740  1.0000 0.5974725554
C   C8        1.0  0.08250  0.74690  0.78260  1.0000 0.5974725554
C   C9        1.0  0.90490  0.70950  0.20520  1.0000 0.5782836745
C   C10       1.0  0.09510  0.20950  0.29480  1.0000 0.5782836745
C   C11       1.0  0.09510  0.29050  0.79480  1.0000 0.5782836745
C   C12       1.0  0.90490  0.79050  0.70520  1.0000 0.5782836745
C   C13       1.0  0.51560  0.49910  0.45240  1.0000 0.5569427232
C   C14       1.0  0.48440  0.99910  0.04760  1.0000 0.5569427232
C   C15       1.0  0.48440  0.50090  0.54760  1.0000 0.5569427232
C   C16       1.0  0.51560  0.00090  0.95240  1.0000 0.5569427232
O   O1        1.0  0.01720  0.38180  0.43420  1.0000 -0.5199379351
O   O2        1.0  0.98280  0.88180  0.06580  1.0000 -0.5199379351
O   O3        1.0  0.98280  0.61820  0.56580  1.0000 -0.5199379351
O   O4        1.0  0.01720  0.11820  0.93420  1.0000 -0.5199379351
O   O5        1.0  0.96670  0.39210  0.56780  1.0000 -0.5112258617
O   O6        1.0  0.03330  0.89210  0.93220  1.0000 -0.5041511139
O   O7        1.0  0.03330  0.60790  0.43220  1.0000 -0.5112258617
O   O8        1.0  0.96670  0.10790  0.06780  1.0000 -0.5112258617
O   O9        1.0  0.19360  0.67969  0.32700  1.0000 -0.5517398596
O   O10       1.0  0.80640  0.17969  0.17300  1.0000 -0.5550501427
O   O11       1.0  0.80640  0.32031  0.67300  1.0000 -0.5517398596
O   O12       1.0  0.19360  0.82031  0.82700  1.0000 -0.5517398596
O   O13       1.0  0.10200  0.85770  0.29500  1.0000 -0.5304159205
O   O14       1.0  0.89800  0.35770  0.20500  1.0000 -0.5304159205
O   O15       1.0  0.89800  0.14230  0.70500  1.0000 -0.5304159205
O   O16       1.0  0.10200  0.64230  0.79500  1.0000 -0.5304159205
O   O17       1.0  0.79620  0.78340  0.15620  1.0000 -0.5304159205
O   O18       1.0  0.20380  0.28340  0.34380  1.0000 -0.5304159205
O   O19       1.0  0.20380  0.21660  0.84380  1.0000 -0.5304159205
O   O20       1.0  0.79620  0.71660  0.65620  1.0000 -0.5304159205
O   O21       1.0  0.88510  0.60450  0.19890  1.0000 -0.5199379351
O   O22       1.0  0.11490  0.10450  0.30110  1.0000 -0.5304159205
O   O23       1.0  0.11490  0.39550  0.80110  1.0000 -0.5199379351
O   O24       1.0  0.88510  0.89550  0.69890  1.0000 -0.5199379351
O   O25       1.0  0.39120  0.48490  0.35760  1.0000 -0.5112258617
O   O26       1.0  0.60880  0.98490  0.14240  1.0000 -0.5112258617
O   O27       1.0  0.60880  0.51510  0.64240  1.0000 -0.5112258617
O   O28       1.0  0.39120  0.01510  0.85760  1.0000 -0.5112258617
O   O29       1.0  0.65890  0.51250  0.47750  1.0000 -0.5199379351
O   O30       1.0  0.34110  0.01250  0.02250  1.0000 -0.5199379351
O   O31       1.0  0.34110  0.48750  0.52250  1.0000 -0.5199379351
O   O32       1.0  0.65890  0.98750  0.97750  1.0000 -0.5199379351
