# DDEC6 charges by PACMAN v1.1 (https://github.com/mtap-research/PACMAN-charge/)
data_2013[Co][nan]3[ASR]21
_chemical_formula_sum              "Co4 H112 C164 N16 O16"
_cell_length_a       17.5542
_cell_length_b       9.9228
_cell_length_c       29.194
_cell_angle_alpha    90
_cell_angle_beta     125.019
_cell_angle_gamma    90

_symmetry_space_group_name_H-M    "P 1"
_symmetry_Int_Tables_number       1

loop_
  _symmetry_equiv_pos_as_xyz
  'x, y, z'

loop_
  _atom_site_type_symbol
  _atom_site_label
  _atom_site_symmetry_multiplicity
  _atom_site_fract_x
  _atom_site_fract_y
  _atom_site_fract_z
  _atom_site_occupancy
  _atom_site_charge
Co  Co1       1.0  0.87283  0.31217  0.63232  1.0000 0.7191239518
Co  Co2       1.0  0.12717  0.81217  0.86768  1.0000 0.7191239518
Co  Co3       1.0  0.12717  0.68783  0.36768  1.0000 0.7191239518
Co  Co4       1.0  0.87283  0.18783  0.13232  1.0000 0.7191239518
H   H1        1.0  0.88720  0.35080  0.48460  1.0000 0.1114128947
H   H2        1.0  0.11280  0.85080  0.01540  1.0000 0.1114128947
H   H3        1.0  0.11280  0.64920  0.51540  1.0000 0.1114128947
H   H4        1.0  0.88720  0.14920  0.98460  1.0000 0.1114128947
H   H5        1.0  0.91770  0.37630  0.41830  1.0000 0.1114128947
H   H6        1.0  0.08230  0.87630  0.08170  1.0000 0.1114128947
H   H7        1.0  0.08230  0.62370  0.58170  1.0000 0.1114128947
H   H8        1.0  0.91770  0.12370  0.91830  1.0000 0.1114128947
H   H9        1.0  0.57820  0.29730  0.52930  1.0000 0.1196251015
H   H10       1.0  0.42180  0.79730  0.97070  1.0000 0.1196251015
H   H11       1.0  0.42180  0.70270  0.47070  1.0000 0.1196251015
H   H12       1.0  0.57820  0.20270  0.02930  1.0000 0.1196251015
H   H13       1.0  0.58260  0.69980  0.52870  1.0000 0.1114128947
H   H14       1.0  0.41740  0.19980  0.97130  1.0000 0.1114128947
H   H15       1.0  0.41740  0.30020  0.47130  1.0000 0.1114128947
H   H16       1.0  0.58260  0.80020  0.02870  1.0000 0.1114128947
H   H17       1.0  0.04850  0.30310  0.75730  1.0000 0.0985430412
H   H18       1.0  0.95150  0.80310  0.74270  1.0000 0.0985430412
H   H19       1.0  0.95150  0.69690  0.24270  1.0000 0.0985430412
H   H20       1.0  0.04850  0.19690  0.25730  1.0000 0.0985430412
H   H21       1.0  0.20330  0.25340  0.80810  1.0000 0.143793307
H   H22       1.0  0.79670  0.75340  0.69190  1.0000 0.143793307
H   H23       1.0  0.79670  0.74660  0.19190  1.0000 0.143793307
H   H24       1.0  0.20330  0.24660  0.30810  1.0000 0.143793307
H   H25       1.0  0.16510  0.10730  0.66970  1.0000 0.1303993897
H   H26       1.0  0.83490  0.60730  0.83030  1.0000 0.1303993897
H   H27       1.0  0.83490  0.89270  0.33030  1.0000 0.1303993897
H   H28       1.0  0.16510  0.39270  0.16970  1.0000 0.1303993897
H   H29       1.0  0.01040  0.15620  0.62270  1.0000 0.1114128947
H   H30       1.0  0.98960  0.65620  0.87730  1.0000 0.1114128947
H   H31       1.0  0.98960  0.84380  0.37730  1.0000 0.1114128947
H   H32       1.0  0.01040  0.34380  0.12270  1.0000 0.1114128947
H   H33       1.0  0.33670  0.13720  0.85290  1.0000 0.1196251015
H   H34       1.0  0.66330  0.63720  0.64710  1.0000 0.1196251015
H   H35       1.0  0.66330  0.86280  0.14710  1.0000 0.1196251015
H   H36       1.0  0.33670  0.36280  0.35290  1.0000 0.1196251015
H   H37       1.0  0.48930  0.07370  0.89790  1.0000 0.1303993897
H   H38       1.0  0.51070  0.57370  0.60210  1.0000 0.1303993897
H   H39       1.0  0.51070  0.92630  0.10210  1.0000 0.1303993897
H   H40       1.0  0.48930  0.42630  0.39790  1.0000 0.1303993897
H   H41       1.0  0.46380  0.08640  0.75250  1.0000 0.1196251015
H   H42       1.0  0.53620  0.58640  0.74750  1.0000 0.1196251015
H   H43       1.0  0.53620  0.91360  0.24750  1.0000 0.1196251015
H   H44       1.0  0.46380  0.41360  0.25250  1.0000 0.1196251015
H   H45       1.0  0.31080  0.14850  0.70770  1.0000 0.1114128947
H   H46       1.0  0.68920  0.64850  0.79230  1.0000 0.1114128947
H   H47       1.0  0.68920  0.85150  0.29230  1.0000 0.1114128947
H   H48       1.0  0.31080  0.35150  0.20770  1.0000 0.1114128947
H   H49       1.0  0.75490  0.40740  0.67050  1.0000 0.0985430412
H   H50       1.0  0.24510  0.90740  0.82950  1.0000 0.0985430412
H   H51       1.0  0.24510  0.59260  0.32950  1.0000 0.0985430412
H   H52       1.0  0.75490  0.09260  0.17050  1.0000 0.0985430412
H   H53       1.0  0.69520  0.35360  0.71950  1.0000 0.1196251015
H   H54       1.0  0.30480  0.85360  0.78050  1.0000 0.1196251015
H   H55       1.0  0.30480  0.64640  0.28050  1.0000 0.1196251015
H   H56       1.0  0.69520  0.14640  0.21950  1.0000 0.1196251015
H   H57       1.0  0.86030  0.03050  0.77820  1.0000 0.1303993897
H   H58       1.0  0.13970  0.53050  0.72180  1.0000 0.1303993897
H   H59       1.0  0.13970  0.96950  0.22180  1.0000 0.1303993897
H   H60       1.0  0.86030  0.46950  0.27820  1.0000 0.1303993897
H   H61       1.0  0.91520  0.09450  0.72700  1.0000 0.0904577894
H   H62       1.0  0.08480  0.59450  0.77300  1.0000 0.0904577894
H   H63       1.0  0.08480  0.90550  0.27300  1.0000 0.0904577894
H   H64       1.0  0.91520  0.40550  0.22700  1.0000 0.0904577894
H   H65       1.0  0.68260  0.33020  0.78790  1.0000 0.1114128947
H   H66       1.0  0.31740  0.83020  0.71210  1.0000 0.1114128947
H   H67       1.0  0.31740  0.66980  0.21210  1.0000 0.1114128947
H   H68       1.0  0.68260  0.16980  0.28790  1.0000 0.1114128947
H   H69       1.0  0.61170  0.27050  0.83030  1.0000 0.1303993897
H   H70       1.0  0.38830  0.77050  0.66970  1.0000 0.1303993897
H   H71       1.0  0.38830  0.72950  0.16970  1.0000 0.1303993897
H   H72       1.0  0.61170  0.22950  0.33030  1.0000 0.1303993897
H   H73       1.0  0.68990  0.89000  0.83910  1.0000 0.1303993897
H   H74       1.0  0.31010  0.39000  0.66090  1.0000 0.1303993897
H   H75       1.0  0.31010  0.11000  0.16090  1.0000 0.1303993897
H   H76       1.0  0.68990  0.61000  0.33910  1.0000 0.1303993897
H   H77       1.0  0.76390  0.95040  0.79760  1.0000 0.1196251015
H   H78       1.0  0.23610  0.45040  0.70240  1.0000 0.1196251015
H   H79       1.0  0.23610  0.04960  0.20240  1.0000 0.1114128947
H   H80       1.0  0.76390  0.54960  0.29760  1.0000 0.1114128947
H   H81       1.0  0.74450  0.27120  0.01310  1.0000 0.1114128947
H   H82       1.0  0.25550  0.77120  0.48690  1.0000 0.1114128947
H   H83       1.0  0.25550  0.72880  0.98690  1.0000 0.1114128947
H   H84       1.0  0.74450  0.22880  0.51310  1.0000 0.1114128947
H   H85       1.0  0.67810  0.44870  0.95380  1.0000 0.1303993897
H   H86       1.0  0.32190  0.94870  0.54620  1.0000 0.1303993897
H   H87       1.0  0.32190  0.55130  0.04620  1.0000 0.1303993897
H   H88       1.0  0.67810  0.05130  0.45380  1.0000 0.1303993897
H   H89       1.0  0.81140  0.69430  0.08540  1.0000 0.1549841834
H   H90       1.0  0.18860  0.19430  0.41460  1.0000 0.1549841834
H   H91       1.0  0.18860  0.30570  0.91460  1.0000 0.1549841834
H   H92       1.0  0.81140  0.80570  0.58540  1.0000 0.1553320063
H   H93       1.0  0.87880  0.51060  0.14060  1.0000 0.0985430412
H   H94       1.0  0.12120  0.01060  0.35940  1.0000 0.0985430412
H   H95       1.0  0.12120  0.48940  0.85940  1.0000 0.0985430412
H   H96       1.0  0.87880  0.98940  0.64060  1.0000 0.0985430412
H   H97       1.0  0.79810  0.84410  0.02150  1.0000 0.1303993897
H   H98       1.0  0.20190  0.34410  0.47850  1.0000 0.1303993897
H   H99       1.0  0.20190  0.15590  0.97850  1.0000 0.1303993897
H   H100      1.0  0.79810  0.65590  0.52150  1.0000 0.1303993897
H   H101      1.0  0.73900  0.02210  0.95980  1.0000 0.1303993897
H   H102      1.0  0.26100  0.52210  0.54020  1.0000 0.1303993897
H   H103      1.0  0.26100  0.97790  0.04020  1.0000 0.1303993897
H   H104      1.0  0.73900  0.47790  0.45980  1.0000 0.1303993897
H   H105      1.0  0.51510  0.80190  0.85190  1.0000 0.1303993897
H   H106      1.0  0.48490  0.30190  0.64810  1.0000 0.1303993897
H   H107      1.0  0.48490  0.19810  0.14810  1.0000 0.1303993897
H   H108      1.0  0.51510  0.69810  0.35190  1.0000 0.1303993897
H   H109      1.0  0.57520  0.62510  0.91380  1.0000 0.1114128947
H   H110      1.0  0.42480  0.12510  0.58620  1.0000 0.1114128947
H   H111      1.0  0.42480  0.37490  0.08620  1.0000 0.1114128947
H   H112      1.0  0.57520  0.87490  0.41380  1.0000 0.1114128947
C   C1        1.0  0.95854  0.47200  0.58264  1.0000 0.5455583108
C   C2        1.0  0.04146  0.97200  0.91736  1.0000 0.5455583108
C   C3        1.0  0.04146  0.52800  0.41736  1.0000 0.5455583108
C   C4        1.0  0.95854  0.02800  0.08264  1.0000 0.5455583108
C   C5        1.0  0.97955  0.48490  0.53956  1.0000 -0.0179082363
C   C6        1.0  0.02045  0.98490  0.96044  1.0000 -0.0179082363
C   C7        1.0  0.02045  0.51510  0.46044  1.0000 -0.0179082363
C   C8        1.0  0.97955  0.01510  0.03956  1.0000 -0.0179082363
C   C9        1.0  0.93268  0.41160  0.49099  1.0000 -0.1191584094
C   C10       1.0  0.06732  0.91160  0.00901  1.0000 -0.1191584094
C   C11       1.0  0.06732  0.58840  0.50901  1.0000 -0.1191584094
C   C12       1.0  0.93268  0.08840  0.99099  1.0000 -0.1191584094
C   C13       1.0  0.95122  0.42600  0.45122  1.0000 -0.1124880931
C   C14       1.0  0.04878  0.92600  0.04878  1.0000 -0.1124880931
C   C15       1.0  0.04878  0.57400  0.54878  1.0000 -0.1124880931
C   C16       1.0  0.95122  0.07400  0.95122  1.0000 -0.1124880931
C   C17       1.0  0.70166  0.49460  0.57404  1.0000 0.5409934295
C   C18       1.0  0.29834  0.99460  0.92596  1.0000 0.5409934295
C   C19       1.0  0.29834  0.50540  0.42596  1.0000 0.5409934295
C   C20       1.0  0.70166  0.00540  0.07404  1.0000 0.5409934295
C   C21       1.0  0.54688  0.37930  0.51747  1.0000 -0.1191584094
C   C22       1.0  0.45312  0.87930  0.98253  1.0000 -0.1191584094
C   C23       1.0  0.45312  0.62070  0.48253  1.0000 -0.1191584094
C   C24       1.0  0.54688  0.12070  0.01747  1.0000 -0.1191584094
C   C25       1.0  0.59706  0.49820  0.53469  1.0000 -0.0296666098
C   C26       1.0  0.40294  0.99820  0.96531  1.0000 -0.0296666098
C   C27       1.0  0.40294  0.50180  0.46531  1.0000 -0.0296666098
C   C28       1.0  0.59706  0.00180  0.03469  1.0000 -0.0296666098
C   C29       1.0  0.54974  0.61910  0.51723  1.0000 -0.1191584094
C   C30       1.0  0.45026  0.11910  0.98277  1.0000 -0.1191584094
C   C31       1.0  0.45026  0.38090  0.48277  1.0000 -0.1191584094
C   C32       1.0  0.54974  0.88090  0.01723  1.0000 -0.1191584094
C   C33       1.0  0.07198  0.26300  0.73902  1.0000 0.062401626
C   C34       1.0  0.92802  0.76300  0.76098  1.0000 0.0698337813
C   C35       1.0  0.92802  0.73700  0.26098  1.0000 0.0698337813
C   C36       1.0  0.07198  0.23700  0.23902  1.0000 0.062401626
C   C37       1.0  0.16590  0.23430  0.76999  1.0000 -0.1965473147
C   C38       1.0  0.83410  0.73430  0.73001  1.0000 -0.1965473147
C   C39       1.0  0.83410  0.76570  0.23001  1.0000 -0.1965473147
C   C40       1.0  0.16590  0.26570  0.26999  1.0000 -0.1965473147
C   C41       1.0  0.20477  0.17720  0.74444  1.0000 0.1114128947
C   C42       1.0  0.79523  0.67720  0.75556  1.0000 0.1114128947
C   C43       1.0  0.79523  0.82280  0.25556  1.0000 0.1114128947
C   C44       1.0  0.20477  0.32280  0.24444  1.0000 0.1114128947
C   C45       1.0  0.14336  0.14800  0.68880  1.0000 -0.2072561609
C   C46       1.0  0.85664  0.64800  0.81120  1.0000 -0.2072561609
C   C47       1.0  0.85664  0.85200  0.31120  1.0000 -0.2072561609
C   C48       1.0  0.14336  0.35200  0.18880  1.0000 -0.2072561609
C   C49       1.0  0.04967  0.17800  0.66043  1.0000 0.0904577894
C   C50       1.0  0.95033  0.67800  0.83957  1.0000 0.0904577894
C   C51       1.0  0.95033  0.82200  0.33957  1.0000 0.0904577894
C   C52       1.0  0.04967  0.32200  0.16043  1.0000 0.0904577894
C   C53       1.0  0.30540  0.14610  0.77487  1.0000 0.0511001477
C   C54       1.0  0.69460  0.64610  0.72513  1.0000 0.0511001477
C   C55       1.0  0.69460  0.85390  0.22513  1.0000 0.0511001477
C   C56       1.0  0.30540  0.35390  0.27487  1.0000 0.0511001477
C   C57       1.0  0.36167  0.12580  0.83241  1.0000 -0.1191584094
C   C58       1.0  0.63833  0.62580  0.66759  1.0000 -0.1191584094
C   C59       1.0  0.63833  0.87420  0.16759  1.0000 -0.1191584094
C   C60       1.0  0.36167  0.37420  0.33241  1.0000 -0.1191584094
C   C61       1.0  0.45354  0.08910  0.85958  1.0000 -0.1703194308
C   C62       1.0  0.54646  0.58910  0.64042  1.0000 -0.1703194308
C   C63       1.0  0.54646  0.91090  0.14042  1.0000 -0.1703194308
C   C64       1.0  0.45354  0.41090  0.35958  1.0000 -0.1703194308
C   C65       1.0  0.49317  0.07490  0.83019  1.0000 0.1755073888
C   C66       1.0  0.50683  0.57490  0.66981  1.0000 0.1755073888
C   C67       1.0  0.50683  0.92510  0.16981  1.0000 0.1755073888
C   C68       1.0  0.49317  0.42510  0.33019  1.0000 0.1755073888
C   C69       1.0  0.43849  0.09640  0.77288  1.0000 -0.188474864
C   C70       1.0  0.56151  0.59640  0.72712  1.0000 -0.188474864
C   C71       1.0  0.56151  0.90360  0.22712  1.0000 -0.188474864
C   C72       1.0  0.43849  0.40360  0.27288  1.0000 -0.188474864
C   C73       1.0  0.34646  0.13260  0.74606  1.0000 -0.1446598286
C   C74       1.0  0.65354  0.63260  0.75394  1.0000 -0.1446598286
C   C75       1.0  0.65354  0.86740  0.25394  1.0000 -0.1446598286
C   C76       1.0  0.34646  0.36740  0.24606  1.0000 -0.1446598286
C   C77       1.0  0.77544  0.32880  0.69174  1.0000 0.076471077
C   C78       1.0  0.22456  0.82880  0.80826  1.0000 0.076471077
C   C79       1.0  0.22456  0.67120  0.30826  1.0000 0.076471077
C   C80       1.0  0.77544  0.17120  0.19174  1.0000 0.076471077
C   C81       1.0  0.73966  0.29770  0.72165  1.0000 -0.1965473147
C   C82       1.0  0.26034  0.79770  0.77835  1.0000 -0.1965473147
C   C83       1.0  0.26034  0.70230  0.27835  1.0000 -0.1965473147
C   C84       1.0  0.73966  0.20230  0.22165  1.0000 -0.1965473147
C   C85       1.0  0.76914  0.18350  0.75513  1.0000 0.1196251015
C   C86       1.0  0.23086  0.68350  0.74487  1.0000 0.1196251015
C   C87       1.0  0.23086  0.81650  0.24487  1.0000 0.1196251015
C   C88       1.0  0.76914  0.31650  0.25513  1.0000 0.1196251015
C   C89       1.0  0.83673  0.10760  0.75623  1.0000 -0.1811965073
C   C90       1.0  0.16327  0.60760  0.74377  1.0000 -0.1811965073
C   C91       1.0  0.16327  0.89240  0.24377  1.0000 -0.1811965073
C   C92       1.0  0.83673  0.39240  0.25623  1.0000 -0.1811965073
C   C93       1.0  0.86894  0.14660  0.72456  1.0000 0.0698337813
C   C94       1.0  0.13106  0.64660  0.77544  1.0000 0.0698337813
C   C95       1.0  0.13106  0.85340  0.27544  1.0000 0.0698337813
C   C96       1.0  0.86894  0.35340  0.22456  1.0000 0.0698337813
C   C97       1.0  0.72902  0.14610  0.78596  1.0000 0.062401626
C   C98       1.0  0.27098  0.64610  0.71404  1.0000 0.062401626
C   C99       1.0  0.27098  0.85390  0.21404  1.0000 0.062401626
C   C100      1.0  0.72902  0.35390  0.28596  1.0000 0.062401626
C   C101      1.0  0.68367  0.24050  0.79746  1.0000 -0.1316810532
C   C102      1.0  0.31633  0.74050  0.70254  1.0000 -0.1316810532
C   C103      1.0  0.31633  0.75950  0.20254  1.0000 -0.1316810532
C   C104      1.0  0.68367  0.25950  0.29746  1.0000 -0.1316810532
C   C105      1.0  0.64048  0.20460  0.82260  1.0000 -0.1811965073
C   C106      1.0  0.35952  0.70460  0.67740  1.0000 -0.1811965073
C   C107      1.0  0.35952  0.79540  0.17740  1.0000 -0.1811965073
C   C108      1.0  0.64048  0.29540  0.32260  1.0000 -0.1811965073
C   C109      1.0  0.63904  0.07270  0.83668  1.0000 0.1696476115
C   C110      1.0  0.36096  0.57270  0.66332  1.0000 0.1696476115
C   C111      1.0  0.36096  0.92730  0.16332  1.0000 0.1696476115
C   C112      1.0  0.63904  0.42730  0.33668  1.0000 0.1696476115
C   C113      1.0  0.68714  0.97880  0.82809  1.0000 -0.1811965073
C   C114      1.0  0.31286  0.47880  0.67191  1.0000 -0.1811965073
C   C115      1.0  0.31286  0.02120  0.17191  1.0000 -0.1811965073
C   C116      1.0  0.68714  0.52120  0.32809  1.0000 -0.1811965073
C   C117      1.0  0.73161  0.01540  0.80302  1.0000 -0.1191584094
C   C118      1.0  0.26839  0.51540  0.69698  1.0000 -0.1191584094
C   C119      1.0  0.26839  0.98460  0.19698  1.0000 -0.1191584094
C   C120      1.0  0.73161  0.48460  0.30302  1.0000 -0.1191584094
C   C121      1.0  0.75924  0.35780  0.02804  1.0000 0.0985430412
C   C122      1.0  0.24076  0.85780  0.47196  1.0000 0.0985430412
C   C123      1.0  0.24076  0.64220  0.97196  1.0000 0.0985430412
C   C124      1.0  0.75924  0.14220  0.52804  1.0000 0.0985430412
C   C125      1.0  0.71822  0.46440  0.99202  1.0000 -0.2072561609
C   C126      1.0  0.28178  0.96440  0.50798  1.0000 -0.2072561609
C   C127      1.0  0.28178  0.53560  0.00798  1.0000 -0.2072561609
C   C128      1.0  0.71822  0.03560  0.49202  1.0000 -0.2072561609
C   C129      1.0  0.73589  0.59530  0.01195  1.0000 0.1303993897
C   C130      1.0  0.26411  0.09530  0.48805  1.0000 0.1303993897
C   C131      1.0  0.26411  0.40470  0.98805  1.0000 0.1303993897
C   C132      1.0  0.73589  0.90470  0.51195  1.0000 0.1303993897
C   C133      1.0  0.79711  0.60900  0.06931  1.0000 -0.1811965073
C   C134      1.0  0.20289  0.10900  0.43069  1.0000 -0.1811965073
C   C135      1.0  0.20289  0.39100  0.93069  1.0000 -0.1811965073
C   C136      1.0  0.79711  0.89100  0.56931  1.0000 -0.1811965073
C   C137      1.0  0.83672  0.49750  0.10232  1.0000 0.0511001477
C   C138      1.0  0.16328  0.99750  0.39768  1.0000 0.0511001477
C   C139      1.0  0.16328  0.50250  0.89768  1.0000 0.0511001477
C   C140      1.0  0.83672  0.00250  0.60232  1.0000 0.0511001477
C   C141      1.0  0.69515  0.71360  0.97403  1.0000 0.0511001477
C   C142      1.0  0.30485  0.21360  0.52597  1.0000 0.0511001477
C   C143      1.0  0.30485  0.28640  0.02597  1.0000 0.0511001477
C   C144      1.0  0.69515  0.78640  0.47403  1.0000 0.0511001477
C   C145      1.0  0.74141  0.83420  0.98691  1.0000 -0.0918292964
C   C146      1.0  0.25859  0.33420  0.51309  1.0000 -0.0918292964
C   C147      1.0  0.25859  0.16580  0.01309  1.0000 -0.0918292964
C   C148      1.0  0.74141  0.66580  0.48691  1.0000 -0.0918292964
C   C149      1.0  0.70614  0.94140  0.94994  1.0000 -0.1592015887
C   C150      1.0  0.29386  0.44140  0.55006  1.0000 -0.1592015887
C   C151      1.0  0.29386  0.05860  0.05006  1.0000 -0.1592015887
C   C152      1.0  0.70614  0.55860  0.44994  1.0000 -0.1592015887
C   C153      1.0  0.62219  0.92830  0.89843  1.0000 0.1696476115
C   C154      1.0  0.37781  0.42830  0.60157  1.0000 0.1696476115
C   C155      1.0  0.37781  0.07170  0.10157  1.0000 0.1696476115
C   C156      1.0  0.62219  0.57170  0.39843  1.0000 0.1696476115
C   C157      1.0  0.57303  0.81040  0.88573  1.0000 -0.188474864
C   C158      1.0  0.42697  0.31040  0.61427  1.0000 -0.188474864
C   C159      1.0  0.42697  0.18960  0.11427  1.0000 -0.188474864
C   C160      1.0  0.57303  0.68960  0.38573  1.0000 -0.188474864
C   C161      1.0  0.60923  0.70450  0.92303  1.0000 -0.1316810532
C   C162      1.0  0.39077  0.20450  0.57697  1.0000 -0.1316810532
C   C163      1.0  0.39077  0.29550  0.07697  1.0000 -0.1316810532
C   C164      1.0  0.60923  0.79550  0.42303  1.0000 -0.1316810532
N   N1        1.0  0.01315  0.23680  0.68484  1.0000 -0.2478407549
N   N2        1.0  0.98685  0.73680  0.81516  1.0000 -0.2478407549
N   N3        1.0  0.98685  0.76320  0.31516  1.0000 -0.2478407549
N   N4        1.0  0.01315  0.26320  0.18484  1.0000 -0.2478407549
N   N5        1.0  0.83839  0.25260  0.69124  1.0000 -0.2478407549
N   N6        1.0  0.16161  0.75260  0.80876  1.0000 -0.2478407549
N   N7        1.0  0.16161  0.74740  0.30876  1.0000 -0.2478407549
N   N8        1.0  0.83839  0.24740  0.19124  1.0000 -0.2478407549
N   N9        1.0  0.81899  0.37110  0.08316  1.0000 -0.2255862879
N   N10       1.0  0.18101  0.87110  0.41684  1.0000 -0.2255862879
N   N11       1.0  0.18101  0.62890  0.91684  1.0000 -0.2255862879
N   N12       1.0  0.81899  0.12890  0.58316  1.0000 -0.2255862879
N   N13       1.0  0.58828  0.03660  0.85892  1.0000 -0.1811965073
N   N14       1.0  0.41172  0.53660  0.64108  1.0000 -0.1811965073
N   N15       1.0  0.41172  0.96340  0.14108  1.0000 -0.1811965073
N   N16       1.0  0.58828  0.46340  0.35892  1.0000 -0.1811965073
O   O1        1.0  0.99348  0.55570  0.62094  1.0000 -0.5588370787
O   O2        1.0  0.00652  0.05570  0.87906  1.0000 -0.5588370787
O   O3        1.0  0.00652  0.44430  0.37906  1.0000 -0.5588370787
O   O4        1.0  0.99348  0.94430  0.12094  1.0000 -0.5588370787
O   O5        1.0  0.90555  0.37670  0.57623  1.0000 -0.5682346898
O   O6        1.0  0.09445  0.87670  0.92377  1.0000 -0.5682346898
O   O7        1.0  0.09445  0.62330  0.42377  1.0000 -0.5682346898
O   O8        1.0  0.90555  0.12330  0.07623  1.0000 -0.5682346898
O   O9        1.0  0.73915  0.38329  0.57842  1.0000 -0.5505688715
O   O10       1.0  0.26085  0.88329  0.92158  1.0000 -0.5505688715
O   O11       1.0  0.26085  0.61671  0.42158  1.0000 -0.5505688715
O   O12       1.0  0.73915  0.11671  0.07842  1.0000 -0.5505688715
O   O13       1.0  0.74341  0.59893  0.60109  1.0000 -0.5682346898
O   O14       1.0  0.25659  0.09893  0.89891  1.0000 -0.5682346898
O   O15       1.0  0.25659  0.40107  0.39891  1.0000 -0.5682346898
O   O16       1.0  0.74341  0.90107  0.10109  1.0000 -0.5682346898
