# DDEC6 charges by PACMAN v1.1 (https://github.com/mtap-research/PACMAN-charge/)
data_2013[Cd][bnn]3[ASR]1
_chemical_formula_sum              "Cd4 H92 C132 S4 N24 O16"
_cell_length_a       9.4058
_cell_length_b       37.268
_cell_length_c       10.6974
_cell_angle_alpha    90
_cell_angle_beta     101.263
_cell_angle_gamma    90

_symmetry_space_group_name_H-M    "P 1"
_symmetry_Int_Tables_number       1

loop_
  _symmetry_equiv_pos_as_xyz
  'x, y, z'

loop_
  _atom_site_type_symbol
  _atom_site_label
  _atom_site_symmetry_multiplicity
  _atom_site_fract_x
  _atom_site_fract_y
  _atom_site_fract_z
  _atom_site_occupancy
  _atom_site_charge
Cd  Cd1       1.0  0.74166  0.36704  0.14816  1.0000 0.8116735084
Cd  Cd2       1.0  0.75834  0.86704  0.85184  1.0000 0.8116735084
Cd  Cd3       1.0  0.25834  0.63296  0.85184  1.0000 0.8116735084
Cd  Cd4       1.0  0.24166  0.13296  0.14816  1.0000 0.8116735084
H   H1        1.0  0.46270  0.41550  0.48990  1.0000 0.138500362
H   H2        1.0  0.03730  0.91550  0.51010  1.0000 0.138500362
H   H3        1.0  0.53730  0.58450  0.51010  1.0000 0.138500362
H   H4        1.0  0.96270  0.08450  0.48990  1.0000 0.138500362
H   H5        1.0  0.47040  0.41600  0.71820  1.0000 0.138500362
H   H6        1.0  0.02960  0.91600  0.28180  1.0000 0.138500362
H   H7        1.0  0.52960  0.58400  0.28180  1.0000 0.138500362
H   H8        1.0  0.97040  0.08400  0.71820  1.0000 0.138500362
H   H9        1.0  0.65960  0.28260  0.24420  1.0000 0.1206760473
H   H10       1.0  0.84040  0.78260  0.75580  1.0000 0.1206760473
H   H11       1.0  0.34040  0.71740  0.75580  1.0000 0.1206760473
H   H12       1.0  0.15960  0.21740  0.24420  1.0000 0.1206760473
H   H13       1.0  0.46920  0.24180  0.13990  1.0000 0.1206760473
H   H14       1.0  0.03080  0.74180  0.86010  1.0000 0.1206760473
H   H15       1.0  0.53080  0.75820  0.86010  1.0000 0.1206760473
H   H16       1.0  0.96920  0.25820  0.13990  1.0000 0.1206760473
H   H17       1.0  0.43750  0.33370  0.95220  1.0000 0.1206760473
H   H18       1.0  0.06250  0.83370  0.04780  1.0000 0.1206760473
H   H19       1.0  0.56250  0.66630  0.04780  1.0000 0.1206760473
H   H20       1.0  0.93750  0.16630  0.95220  1.0000 0.1206760473
H   H21       1.0  0.33270  0.21700  0.95120  1.0000 0.1301257064
H   H22       1.0  0.16730  0.71700  0.04880  1.0000 0.1301257064
H   H23       1.0  0.66730  0.78300  0.04880  1.0000 0.1301257064
H   H24       1.0  0.83270  0.28300  0.95120  1.0000 0.1301257064
H   H25       1.0  0.14300  0.19590  0.79910  1.0000 0.1111737897
H   H26       1.0  0.35700  0.69590  0.20090  1.0000 0.1111737897
H   H27       1.0  0.85700  0.80410  0.20090  1.0000 0.1111737897
H   H28       1.0  0.64300  0.30410  0.79910  1.0000 0.1111737897
H   H29       1.0  0.01530  0.29650  0.70880  1.0000 0.1206760473
H   H30       1.0  0.48470  0.79650  0.29120  1.0000 0.1206760473
H   H31       1.0  0.98470  0.70350  0.29120  1.0000 0.1206760473
H   H32       1.0  0.51530  0.20350  0.70880  1.0000 0.1206760473
H   H33       1.0  0.19700  0.31770  0.86620  1.0000 0.1206760473
H   H34       1.0  0.30300  0.81770  0.13380  1.0000 0.1206760473
H   H35       1.0  0.80300  0.68230  0.13380  1.0000 0.1206760473
H   H36       1.0  0.69700  0.18230  0.86620  1.0000 0.1206760473
H   H37       1.0  0.46280  0.18740  0.36610  1.0000 0.1206760473
H   H38       1.0  0.03720  0.68740  0.63390  1.0000 0.1206760473
H   H39       1.0  0.53720  0.81260  0.63390  1.0000 0.1206760473
H   H40       1.0  0.96280  0.31260  0.36610  1.0000 0.1206760473
H   H41       1.0  0.55210  0.15850  0.03860  1.0000 0.1206760473
H   H42       1.0  0.94790  0.65850  0.96140  1.0000 0.1206760473
H   H43       1.0  0.44790  0.84150  0.96140  1.0000 0.1206760473
H   H44       1.0  0.05210  0.34150  0.03860  1.0000 0.1206760473
H   H45       1.0  0.77680  0.18010  0.16860  1.0000 0.1206760473
H   H46       1.0  0.72320  0.68010  0.83140  1.0000 0.1206760473
H   H47       1.0  0.22320  0.81990  0.83140  1.0000 0.1206760473
H   H48       1.0  0.27680  0.31990  0.16860  1.0000 0.1206760473
H   H49       1.0  0.90170  0.16410  0.41860  1.0000 0.138500362
H   H50       1.0  0.59830  0.66410  0.58140  1.0000 0.138500362
H   H51       1.0  0.09830  0.83590  0.58140  1.0000 0.138500362
H   H52       1.0  0.40170  0.33590  0.41860  1.0000 0.138500362
H   H53       1.0  0.06290  0.18530  0.59370  1.0000 0.1111737897
H   H54       1.0  0.43710  0.68530  0.40630  1.0000 0.1111737897
H   H55       1.0  0.93710  0.81470  0.40630  1.0000 0.1111737897
H   H56       1.0  0.56290  0.31470  0.59370  1.0000 0.1111737897
H   H57       1.0  0.80930  0.27080  0.60770  1.0000 0.1111737897
H   H58       1.0  0.69070  0.77080  0.39230  1.0000 0.1111737897
H   H59       1.0  0.19070  0.72920  0.39230  1.0000 0.1111737897
H   H60       1.0  0.30930  0.22920  0.60770  1.0000 0.1111737897
H   H61       1.0  0.64310  0.24760  0.43940  1.0000 0.1206760473
H   H62       1.0  0.85690  0.74760  0.56060  1.0000 0.1206760473
H   H63       1.0  0.35690  0.75240  0.56060  1.0000 0.1206760473
H   H64       1.0  0.14310  0.25240  0.43940  1.0000 0.1206760473
H   H65       1.0  0.82800  0.44940  0.30990  1.0000 0.1301257064
H   H66       1.0  0.67200  0.94940  0.69010  1.0000 0.1301257064
H   H67       1.0  0.17200  0.55060  0.69010  1.0000 0.1301257064
H   H68       1.0  0.32800  0.05060  0.30990  1.0000 0.1301257064
H   H69       1.0  0.02700  0.48940  0.28740  1.0000 0.1301257064
H   H70       1.0  0.47300  0.98940  0.71260  1.0000 0.1301257064
H   H71       1.0  0.97300  0.51060  0.71260  1.0000 0.1301257064
H   H72       1.0  0.52700  0.01060  0.28740  1.0000 0.1301257064
H   H73       1.0  0.01510  0.40840  0.04750  1.0000 0.1111737897
H   H74       1.0  0.48490  0.90840  0.95250  1.0000 0.1111737897
H   H75       1.0  0.98490  0.59160  0.95250  1.0000 0.1111737897
H   H76       1.0  0.51510  0.09160  0.04750  1.0000 0.1111737897
H   H77       1.0  0.29420  0.42010  0.11070  1.0000 0.138500362
H   H78       1.0  0.20580  0.92010  0.88930  1.0000 0.138500362
H   H79       1.0  0.70580  0.57990  0.88930  1.0000 0.138500362
H   H80       1.0  0.79420  0.07990  0.11070  1.0000 0.138500362
H   H81       1.0  0.49320  0.44110  0.03970  1.0000 0.1301257064
H   H82       1.0  0.00680  0.94110  0.96030  1.0000 0.1301257064
H   H83       1.0  0.50680  0.55890  0.96030  1.0000 0.1301257064
H   H84       1.0  0.99320  0.05890  0.03970  1.0000 0.1301257064
H   H85       1.0  0.33270  0.54010  0.02820  1.0000 0.1111737897
H   H86       1.0  0.16730  0.04010  0.97180  1.0000 0.1111737897
H   H87       1.0  0.66730  0.45990  0.97180  1.0000 0.1111737897
H   H88       1.0  0.83270  0.95990  0.02820  1.0000 0.1111737897
H   H89       1.0  0.13070  0.51850  0.09630  1.0000 0.1206760473
H   H90       1.0  0.36930  0.01850  0.90370  1.0000 0.1206760473
H   H91       1.0  0.86930  0.48150  0.90370  1.0000 0.1206760473
H   H92       1.0  0.63070  0.98150  0.09630  1.0000 0.1206760473
C   C1        1.0  0.67900  0.37922  0.38730  1.0000 0.5415138019
C   C2        1.0  0.82100  0.87922  0.61270  1.0000 0.5415138019
C   C3        1.0  0.32100  0.62078  0.61270  1.0000 0.5415138019
C   C4        1.0  0.17900  0.12078  0.38730  1.0000 0.5415138019
C   C5        1.0  0.64870  0.38682  0.51620  1.0000 -0.1208523625
C   C6        1.0  0.85130  0.88682  0.48380  1.0000 -0.1208523625
C   C7        1.0  0.35130  0.61318  0.48380  1.0000 -0.1208523625
C   C8        1.0  0.14870  0.11318  0.51620  1.0000 -0.1208523625
C   C9        1.0  0.53570  0.40462  0.54880  1.0000 -0.1208523625
C   C10       1.0  0.96430  0.90462  0.45120  1.0000 -0.1208523625
C   C11       1.0  0.46430  0.59538  0.45120  1.0000 -0.1208523625
C   C12       1.0  0.03570  0.09538  0.54880  1.0000 -0.1208523625
C   C13       1.0  0.54010  0.40488  0.68070  1.0000 -0.1208523625
C   C14       1.0  0.95990  0.90488  0.31930  1.0000 -0.1208523625
C   C15       1.0  0.45990  0.59512  0.31930  1.0000 -0.1208523625
C   C16       1.0  0.04010  0.09512  0.68070  1.0000 -0.1208523625
C   C17       1.0  0.65650  0.38725  0.74780  1.0000 -0.1208523625
C   C18       1.0  0.84350  0.88725  0.25220  1.0000 -0.1208523625
C   C19       1.0  0.34350  0.61275  0.25220  1.0000 -0.1208523625
C   C20       1.0  0.15650  0.11275  0.74780  1.0000 -0.1208523625
C   C21       1.0  0.69480  0.38013  0.88790  1.0000 0.5415138019
C   C22       1.0  0.80520  0.88013  0.11210  1.0000 0.5415138019
C   C23       1.0  0.30520  0.61987  0.11210  1.0000 0.5415138019
C   C24       1.0  0.19480  0.11987  0.88790  1.0000 0.5415138019
C   C25       1.0  0.59060  0.28785  0.17170  1.0000 -0.0394007551
C   C26       1.0  0.90940  0.78785  0.82830  1.0000 -0.0394007551
C   C27       1.0  0.40940  0.71215  0.82830  1.0000 -0.0394007551
C   C28       1.0  0.09060  0.21215  0.17170  1.0000 -0.0394007551
C   C29       1.0  0.48540  0.26508  0.11440  1.0000 -0.1117937217
C   C30       1.0  0.01460  0.76508  0.88560  1.0000 -0.1117937217
C   C31       1.0  0.51460  0.73492  0.88560  1.0000 -0.1117937217
C   C32       1.0  0.98540  0.23492  0.11440  1.0000 -0.1117937217
C   C33       1.0  0.46950  0.31595  0.01200  1.0000 0.0917427124
C   C34       1.0  0.03050  0.81595  0.98800  1.0000 0.0917427124
C   C35       1.0  0.53050  0.68405  0.98800  1.0000 0.0917427124
C   C36       1.0  0.96950  0.18405  0.01200  1.0000 0.0917427124
C   C37       1.0  0.28740  0.26972  0.92140  1.0000 0.1499387962
C   C38       1.0  0.21260  0.76972  0.07860  1.0000 0.1499387962
C   C39       1.0  0.71260  0.73028  0.07860  1.0000 0.1499387962
C   C40       1.0  0.78740  0.23028  0.92140  1.0000 0.1499387962
C   C41       1.0  0.26930  0.23306  0.90220  1.0000 -0.1618006012
C   C42       1.0  0.23070  0.73306  0.09780  1.0000 -0.1618006012
C   C43       1.0  0.73070  0.76694  0.09780  1.0000 -0.1618006012
C   C44       1.0  0.76930  0.26694  0.90220  1.0000 -0.1618006012
C   C45       1.0  0.15640  0.22052  0.81000  1.0000 -0.1307609106
C   C46       1.0  0.34360  0.72052  0.19000  1.0000 -0.1307609106
C   C47       1.0  0.84360  0.77948  0.19000  1.0000 -0.1307609106
C   C48       1.0  0.65640  0.27948  0.81000  1.0000 -0.1307609106
C   C49       1.0  0.06230  0.24394  0.73300  1.0000 0.0600071227
C   C50       1.0  0.43770  0.74394  0.26700  1.0000 0.0600071227
C   C51       1.0  0.93770  0.75606  0.26700  1.0000 0.0600071227
C   C52       1.0  0.56230  0.25606  0.73300  1.0000 0.0600071227
C   C53       1.0  0.07920  0.28039  0.75690  1.0000 -0.1208523625
C   C54       1.0  0.42080  0.78039  0.24310  1.0000 -0.1208523625
C   C55       1.0  0.92080  0.71961  0.24310  1.0000 -0.1208523625
C   C56       1.0  0.57920  0.21961  0.75690  1.0000 -0.1208523625
C   C57       1.0  0.18880  0.29319  0.85040  1.0000 -0.1861515777
C   C58       1.0  0.31120  0.79319  0.14960  1.0000 -0.1861515777
C   C59       1.0  0.81120  0.70681  0.14960  1.0000 -0.1861515777
C   C60       1.0  0.68880  0.20681  0.85040  1.0000 -0.1861515777
C   C61       1.0  0.51240  0.18284  0.30060  1.0000 0.0967091427
C   C62       1.0  0.98760  0.68284  0.69940  1.0000 0.0967091427
C   C63       1.0  0.48760  0.81716  0.69940  1.0000 0.0967091427
C   C64       1.0  0.01240  0.31716  0.30060  1.0000 0.0967091427
C   C65       1.0  0.56260  0.16696  0.12160  1.0000 -0.05243671
C   C66       1.0  0.93740  0.66696  0.87840  1.0000 -0.05243671
C   C67       1.0  0.43740  0.83304  0.87840  1.0000 -0.05243671
C   C68       1.0  0.06260  0.33304  0.12160  1.0000 -0.05243671
C   C69       1.0  0.68700  0.17907  0.19250  1.0000 -0.1208523625
C   C70       1.0  0.81300  0.67907  0.80750  1.0000 -0.1208523625
C   C71       1.0  0.31300  0.82093  0.80750  1.0000 -0.1208523625
C   C72       1.0  0.18700  0.32093  0.19250  1.0000 -0.1208523625
C   C73       1.0  0.75580  0.20384  0.41440  1.0000 0.138500362
C   C74       1.0  0.74420  0.70384  0.58560  1.0000 0.138500362
C   C75       1.0  0.24420  0.79616  0.58560  1.0000 0.138500362
C   C76       1.0  0.25580  0.29616  0.41440  1.0000 0.138500362
C   C77       1.0  0.88180  0.18514  0.45850  1.0000 -0.1618006012
C   C78       1.0  0.61820  0.68514  0.54150  1.0000 -0.1618006012
C   C79       1.0  0.11820  0.81486  0.54150  1.0000 -0.1618006012
C   C80       1.0  0.38180  0.31486  0.45850  1.0000 -0.1618006012
C   C81       1.0  0.97850  0.19817  0.56280  1.0000 -0.1307609106
C   C82       1.0  0.52150  0.69817  0.43720  1.0000 -0.1307609106
C   C83       1.0  0.02150  0.80183  0.43720  1.0000 -0.1307609106
C   C84       1.0  0.47850  0.30183  0.56280  1.0000 -0.1307609106
C   C85       1.0  0.95310  0.23005  0.62310  1.0000 0.0600071227
C   C86       1.0  0.54690  0.73005  0.37690  1.0000 0.0600071227
C   C87       1.0  0.04690  0.76995  0.37690  1.0000 0.0600071227
C   C88       1.0  0.45310  0.26995  0.62310  1.0000 0.0600071227
C   C89       1.0  0.82740  0.24884  0.57250  1.0000 -0.1208523625
C   C90       1.0  0.67260  0.74884  0.42750  1.0000 -0.1208523625
C   C91       1.0  0.17260  0.75116  0.42750  1.0000 -0.1208523625
C   C92       1.0  0.32740  0.25116  0.57250  1.0000 -0.1208523625
C   C93       1.0  0.72860  0.23521  0.47020  1.0000 -0.18173617
C   C94       1.0  0.77140  0.73521  0.52980  1.0000 -0.18173617
C   C95       1.0  0.27140  0.76479  0.52980  1.0000 -0.18173617
C   C96       1.0  0.22860  0.26479  0.47020  1.0000 -0.18173617
C   C97       1.0  0.89110  0.44608  0.25400  1.0000 -0.0304863664
C   C98       1.0  0.60890  0.94608  0.74600  1.0000 -0.0304863664
C   C99       1.0  0.10890  0.55392  0.74600  1.0000 -0.0304863664
C   C100      1.0  0.39110  0.05392  0.25400  1.0000 -0.0304863664
C   C101      1.0  0.00160  0.46821  0.24260  1.0000 -0.1117937217
C   C102      1.0  0.49840  0.96821  0.75740  1.0000 -0.1117937217
C   C103      1.0  0.99840  0.53179  0.75740  1.0000 -0.1117937217
C   C104      1.0  0.50160  0.03179  0.24260  1.0000 -0.1117937217
C   C105      1.0  0.99340  0.42334  0.11080  1.0000 0.0917427124
C   C106      1.0  0.50660  0.92334  0.88920  1.0000 0.0917427124
C   C107      1.0  0.00660  0.57666  0.88920  1.0000 0.0917427124
C   C108      1.0  0.49340  0.07666  0.11080  1.0000 0.0917427124
C   C109      1.0  0.19320  0.46688  0.10920  1.0000 0.1499387962
C   C110      1.0  0.30680  0.96688  0.89080  1.0000 0.138500362
C   C111      1.0  0.80680  0.53312  0.89080  1.0000 0.138500362
C   C112      1.0  0.69320  0.03312  0.10920  1.0000 0.138500362
C   C113      1.0  0.30090  0.44436  0.09300  1.0000 -0.1675695429
C   C114      1.0  0.19910  0.94436  0.90700  1.0000 -0.1675695429
C   C115      1.0  0.69910  0.55564  0.90700  1.0000 -0.1675695429
C   C116      1.0  0.80090  0.05564  0.09300  1.0000 -0.1675695429
C   C117      1.0  0.42050  0.45709  0.05030  1.0000 -0.1042894857
C   C118      1.0  0.07950  0.95709  0.94970  1.0000 -0.1042894857
C   C119      1.0  0.57950  0.54291  0.94970  1.0000 -0.1042894857
C   C120      1.0  0.92050  0.04291  0.05030  1.0000 -0.1042894857
C   C121      1.0  0.43550  0.49316  0.02260  1.0000 0.0675032915
C   C122      1.0  0.06450  0.99316  0.97740  1.0000 0.0675032915
C   C123      1.0  0.56450  0.50684  0.97740  1.0000 0.0675032915
C   C124      1.0  0.93550  0.00684  0.02260  1.0000 0.0675032915
C   C125      1.0  0.32540  0.51567  0.04300  1.0000 -0.1208523625
C   C126      1.0  0.17460  0.01567  0.95700  1.0000 -0.1208523625
C   C127      1.0  0.67460  0.48433  0.95700  1.0000 -0.1208523625
C   C128      1.0  0.82540  0.98433  0.04300  1.0000 -0.1208523625
C   C129      1.0  0.20410  0.50286  0.08490  1.0000 -0.18173617
C   C130      1.0  0.29590  0.00286  0.91510  1.0000 -0.18173617
C   C131      1.0  0.79590  0.49714  0.91510  1.0000 -0.18173617
C   C132      1.0  0.70410  0.99714  0.08490  1.0000 -0.18173617
S   S1        1.0  0.76289  0.37028  0.64782  1.0000 0.1206760473
S   S2        1.0  0.73711  0.87028  0.35218  1.0000 0.1206760473
S   S3        1.0  0.23711  0.62972  0.35218  1.0000 0.1206760473
S   S4        1.0  0.26289  0.12972  0.64782  1.0000 0.1206760473
N   N1        1.0  0.58040  0.31960  0.10720  1.0000 -0.2690323504
N   N2        1.0  0.91960  0.81960  0.89280  1.0000 -0.2690323504
N   N3        1.0  0.41960  0.68040  0.89280  1.0000 -0.2690323504
N   N4        1.0  0.08040  0.18040  0.10720  1.0000 -0.2690323504
N   N5        1.0  0.40760  0.28309  0.01160  1.0000 -0.0024203182
N   N6        1.0  0.09240  0.78309  0.98840  1.0000 -0.0024203182
N   N7        1.0  0.59240  0.71691  0.98840  1.0000 -0.0024203182
N   N8        1.0  0.90760  0.21691  0.01160  1.0000 -0.0024203182
N   N9        1.0  0.45290  0.16897  0.18970  1.0000 -0.2846054124
N   N10       1.0  0.04710  0.66897  0.81030  1.0000 -0.2846054124
N   N11       1.0  0.54710  0.83103  0.81030  1.0000 -0.2846054124
N   N12       1.0  0.95290  0.33103  0.18970  1.0000 -0.2846054124
N   N13       1.0  0.65570  0.18967  0.30730  1.0000 -0.0024203182
N   N14       1.0  0.84430  0.68967  0.69270  1.0000 -0.0024203182
N   N15       1.0  0.34430  0.81033  0.69270  1.0000 -0.0024203182
N   N16       1.0  0.15570  0.31033  0.30730  1.0000 -0.0024203182
N   N17       1.0  0.88610  0.41789  0.17060  1.0000 -0.2690323504
N   N18       1.0  0.61390  0.91789  0.82940  1.0000 -0.2690323504
N   N19       1.0  0.11390  0.58211  0.82940  1.0000 -0.2690323504
N   N20       1.0  0.38610  0.08211  0.17060  1.0000 -0.2690323504
N   N21       1.0  0.06900  0.45351  0.15270  1.0000 -0.0024203182
N   N22       1.0  0.43100  0.95351  0.84730  1.0000 -0.0024203182
N   N23       1.0  0.93100  0.54649  0.84730  1.0000 -0.0024203182
N   N24       1.0  0.56900  0.04649  0.15270  1.0000 -0.0024203182
O   O1        1.0  0.60350  0.39444  0.29300  1.0000 -0.5423453885
O   O2        1.0  0.89650  0.89444  0.70700  1.0000 -0.5423453885
O   O3        1.0  0.39650  0.60556  0.70700  1.0000 -0.5423453885
O   O4        1.0  0.10350  0.10556  0.29300  1.0000 -0.5423453885
O   O5        1.0  0.77560  0.35734  0.37910  1.0000 -0.5580320495
O   O6        1.0  0.72440  0.85734  0.62090  1.0000 -0.5580320495
O   O7        1.0  0.22440  0.64266  0.62090  1.0000 -0.5580320495
O   O8        1.0  0.27560  0.14266  0.37910  1.0000 -0.5580320495
O   O9        1.0  0.80610  0.36249  0.92780  1.0000 -0.5580320495
O   O10       1.0  0.69390  0.86249  0.07220  1.0000 -0.5580320495
O   O11       1.0  0.19390  0.63751  0.07220  1.0000 -0.5580320495
O   O12       1.0  0.30610  0.13751  0.92780  1.0000 -0.5580320495
O   O13       1.0  0.60830  0.39101  0.95490  1.0000 -0.5423453885
O   O14       1.0  0.89170  0.89101  0.04510  1.0000 -0.5423453885
O   O15       1.0  0.39170  0.60899  0.04510  1.0000 -0.5423453885
O   O16       1.0  0.10830  0.10899  0.95490  1.0000 -0.5423453885
