# DDEC6 charges by PACMAN v1.1 (https://github.com/mtap-research/PACMAN-charge/)
data_2013[Ni][xmz]3[ASR]2
_chemical_formula_sum              "Ni6 H88 C144 N12 O26"
_cell_length_a       18.504
_cell_length_b       18.504
_cell_length_c       18.504
_cell_angle_alpha    103.942
_cell_angle_beta     103.942
_cell_angle_gamma    103.942

_symmetry_space_group_name_H-M    "P 1"
_symmetry_Int_Tables_number       1

loop_
  _symmetry_equiv_pos_as_xyz
  'x, y, z'

loop_
  _atom_site_type_symbol
  _atom_site_label
  _atom_site_symmetry_multiplicity
  _atom_site_fract_x
  _atom_site_fract_y
  _atom_site_fract_z
  _atom_site_occupancy
  _atom_site_charge
Ni  Ni1       1.0  0.81860  0.75000  0.68140  1.0000 0.8724538041
Ni  Ni2       1.0  0.75000  0.68140  0.81860  1.0000 0.8724538041
Ni  Ni3       1.0  0.68140  0.81860  0.75000  1.0000 0.8724538041
Ni  Ni4       1.0  0.18140  0.25000  0.31860  1.0000 0.8724538041
Ni  Ni5       1.0  0.25000  0.31860  0.18140  1.0000 0.8724538041
Ni  Ni6       1.0  0.31860  0.18140  0.25000  1.0000 0.8724538041
H   H1        1.0  0.23180  0.54280  0.26080  1.0000 0.1203709945
H   H2        1.0  0.54280  0.26080  0.23180  1.0000 0.1203709945
H   H3        1.0  0.26080  0.23180  0.54280  1.0000 0.1203709945
H   H4        1.0  0.26820  0.23920  0.95720  1.0000 0.1203709945
H   H5        1.0  0.95720  0.26820  0.23920  1.0000 0.1203709945
H   H6        1.0  0.23920  0.95720  0.26820  1.0000 0.1203709945
H   H7        1.0  0.76820  0.45720  0.73920  1.0000 0.1203709945
H   H8        1.0  0.45720  0.73920  0.76820  1.0000 0.1203709945
H   H9        1.0  0.73920  0.76820  0.45720  1.0000 0.1203709945
H   H10       1.0  0.73180  0.76080  0.04280  1.0000 0.1203709945
H   H11       1.0  0.04280  0.73180  0.76080  1.0000 0.1203709945
H   H12       1.0  0.76080  0.04280  0.73180  1.0000 0.1203709945
H   H13       1.0  0.18820  0.65050  0.29210  1.0000 0.1203709945
H   H14       1.0  0.65050  0.29210  0.18820  1.0000 0.1203709945
H   H15       1.0  0.29210  0.18820  0.65050  1.0000 0.1203709945
H   H16       1.0  0.31180  0.20790  0.84950  1.0000 0.1203709945
H   H17       1.0  0.84950  0.31180  0.20790  1.0000 0.1203709945
H   H18       1.0  0.20790  0.84950  0.31180  1.0000 0.1203709945
H   H19       1.0  0.81180  0.34950  0.70790  1.0000 0.1203709945
H   H20       1.0  0.34950  0.70790  0.81180  1.0000 0.1203709945
H   H21       1.0  0.70790  0.81180  0.34950  1.0000 0.1203709945
H   H22       1.0  0.68820  0.79210  0.15050  1.0000 0.1203709945
H   H23       1.0  0.15050  0.68820  0.79210  1.0000 0.1203709945
H   H24       1.0  0.79210  0.15050  0.68820  1.0000 0.1203709945
H   H25       1.0  0.14210  0.59010  0.47510  1.0000 0.110241555
H   H26       1.0  0.59010  0.47510  0.14210  1.0000 0.110241555
H   H27       1.0  0.47510  0.14210  0.59010  1.0000 0.110241555
H   H28       1.0  0.35790  0.02490  0.90990  1.0000 0.110241555
H   H29       1.0  0.90990  0.35790  0.02490  1.0000 0.110241555
H   H30       1.0  0.02490  0.90990  0.35790  1.0000 0.110241555
H   H31       1.0  0.85790  0.40990  0.52490  1.0000 0.110241555
H   H32       1.0  0.40990  0.52490  0.85790  1.0000 0.110241555
H   H33       1.0  0.52490  0.85790  0.40990  1.0000 0.110241555
H   H34       1.0  0.64210  0.97510  0.09010  1.0000 0.110241555
H   H35       1.0  0.09010  0.64210  0.97510  1.0000 0.110241555
H   H36       1.0  0.97510  0.09010  0.64210  1.0000 0.110241555
H   H37       1.0  0.17920  0.47980  0.43940  1.0000 0.1203709945
H   H38       1.0  0.47980  0.43940  0.17920  1.0000 0.1203709945
H   H39       1.0  0.43940  0.17920  0.47980  1.0000 0.1203709945
H   H40       1.0  0.32080  0.06060  0.02020  1.0000 0.1203709945
H   H41       1.0  0.02020  0.32080  0.06060  1.0000 0.1203709945
H   H42       1.0  0.06060  0.02020  0.32080  1.0000 0.1203709945
H   H43       1.0  0.82080  0.52020  0.56060  1.0000 0.1203709945
H   H44       1.0  0.52020  0.56060  0.82080  1.0000 0.1203709945
H   H45       1.0  0.56060  0.82080  0.52020  1.0000 0.1203709945
H   H46       1.0  0.67920  0.93940  0.97980  1.0000 0.1203709945
H   H47       1.0  0.97980  0.67920  0.93940  1.0000 0.1203709945
H   H48       1.0  0.93940  0.97980  0.67920  1.0000 0.1203709945
H   H49       1.0  0.06130  0.65020  0.46940  1.0000 0.110241555
H   H50       1.0  0.65020  0.46940  0.06130  1.0000 0.110241555
H   H51       1.0  0.46940  0.06130  0.65020  1.0000 0.110241555
H   H52       1.0  0.43870  0.03060  0.84980  1.0000 0.110241555
H   H53       1.0  0.84980  0.43870  0.03060  1.0000 0.110241555
H   H54       1.0  0.03060  0.84980  0.43870  1.0000 0.110241555
H   H55       1.0  0.93870  0.34980  0.53060  1.0000 0.110241555
H   H56       1.0  0.34980  0.53060  0.93870  1.0000 0.110241555
H   H57       1.0  0.53060  0.93870  0.34980  1.0000 0.110241555
H   H58       1.0  0.56130  0.96940  0.15020  1.0000 0.110241555
H   H59       1.0  0.15020  0.56130  0.96940  1.0000 0.110241555
H   H60       1.0  0.96940  0.15020  0.56130  1.0000 0.110241555
H   H61       1.0  0.94400  0.83730  0.49080  1.0000 0.127805165
H   H62       1.0  0.83730  0.49080  0.94400  1.0000 0.127805165
H   H63       1.0  0.49080  0.94400  0.83730  1.0000 0.127805165
H   H64       1.0  0.55600  0.00920  0.66270  1.0000 0.127805165
H   H65       1.0  0.66270  0.55600  0.00920  1.0000 0.127805165
H   H66       1.0  0.00920  0.66270  0.55600  1.0000 0.127805165
H   H67       1.0  0.05600  0.16270  0.50920  1.0000 0.127805165
H   H68       1.0  0.16270  0.50920  0.05600  1.0000 0.127805165
H   H69       1.0  0.50920  0.05600  0.16270  1.0000 0.127805165
H   H70       1.0  0.44400  0.99080  0.33730  1.0000 0.127805165
H   H71       1.0  0.33730  0.44400  0.99080  1.0000 0.127805165
H   H72       1.0  0.99080  0.33730  0.44400  1.0000 0.127805165
H   H73       1.0  0.86580  0.83370  0.57020  1.0000 0.110241555
H   H74       1.0  0.83370  0.57020  0.86580  1.0000 0.110241555
H   H75       1.0  0.57020  0.86580  0.83370  1.0000 0.110241555
H   H76       1.0  0.63420  0.92980  0.66630  1.0000 0.110241555
H   H77       1.0  0.66630  0.63420  0.92980  1.0000 0.110241555
H   H78       1.0  0.92980  0.66630  0.63420  1.0000 0.110241555
H   H79       1.0  0.13420  0.16630  0.42980  1.0000 0.110241555
H   H80       1.0  0.16630  0.42980  0.13420  1.0000 0.110241555
H   H81       1.0  0.42980  0.13420  0.16630  1.0000 0.110241555
H   H82       1.0  0.36580  0.07020  0.33370  1.0000 0.110241555
H   H83       1.0  0.33370  0.36580  0.07020  1.0000 0.110241555
H   H84       1.0  0.07020  0.33370  0.36580  1.0000 0.110241555
H   H85       1.0  0.79337  0.79337  0.79337  1.0000 0.3679658724
H   H86       1.0  0.70663  0.70663  0.70663  1.0000 0.3679658724
H   H87       1.0  0.20663  0.20663  0.20663  1.0000 0.3679658724
H   H88       1.0  0.29337  0.29337  0.29337  1.0000 0.3679658724
C   C1        1.0  0.22520  0.42240  0.31880  1.0000 0.5729152216
C   C2        1.0  0.42240  0.31880  0.22520  1.0000 0.5729152216
C   C3        1.0  0.31880  0.22520  0.42240  1.0000 0.5729152216
C   C4        1.0  0.27480  0.18120  0.07760  1.0000 0.5729152216
C   C5        1.0  0.07760  0.27480  0.18120  1.0000 0.5729152216
C   C6        1.0  0.18120  0.07760  0.27480  1.0000 0.5729152216
C   C7        1.0  0.77480  0.57760  0.68120  1.0000 0.5729152216
C   C8        1.0  0.57760  0.68120  0.77480  1.0000 0.5729152216
C   C9        1.0  0.68120  0.77480  0.57760  1.0000 0.5729152216
C   C10       1.0  0.72520  0.81880  0.92240  1.0000 0.5729152216
C   C11       1.0  0.92240  0.72520  0.81880  1.0000 0.5729152216
C   C12       1.0  0.81880  0.92240  0.72520  1.0000 0.5729152216
C   C13       1.0  0.20460  0.49720  0.34320  1.0000 -0.0138309067
C   C14       1.0  0.49720  0.34320  0.20460  1.0000 -0.0138309067
C   C15       1.0  0.34320  0.20460  0.49720  1.0000 -0.0138309067
C   C16       1.0  0.29540  0.15680  0.00280  1.0000 -0.0138309067
C   C17       1.0  0.00280  0.29540  0.15680  1.0000 -0.0138309067
C   C18       1.0  0.15680  0.00280  0.29540  1.0000 -0.0138309067
C   C19       1.0  0.79540  0.50280  0.65680  1.0000 -0.0138309067
C   C20       1.0  0.50280  0.65680  0.79540  1.0000 -0.0138309067
C   C21       1.0  0.65680  0.79540  0.50280  1.0000 -0.0138309067
C   C22       1.0  0.70460  0.84320  0.99720  1.0000 -0.0138309067
C   C23       1.0  0.99720  0.70460  0.84320  1.0000 -0.0138309067
C   C24       1.0  0.84320  0.99720  0.70460  1.0000 -0.0138309067
C   C25       1.0  0.20990  0.55030  0.30250  1.0000 -0.1091577644
C   C26       1.0  0.55030  0.30250  0.20990  1.0000 -0.1091577644
C   C27       1.0  0.30250  0.20990  0.55030  1.0000 -0.1091577644
C   C28       1.0  0.29010  0.19750  0.94970  1.0000 -0.1091577644
C   C29       1.0  0.94970  0.29010  0.19750  1.0000 -0.1091577644
C   C30       1.0  0.19750  0.94970  0.29010  1.0000 -0.1091577644
C   C31       1.0  0.79010  0.44970  0.69750  1.0000 -0.1091577644
C   C32       1.0  0.44970  0.69750  0.79010  1.0000 -0.1091577644
C   C33       1.0  0.69750  0.79010  0.44970  1.0000 -0.1091577644
C   C34       1.0  0.70990  0.80250  0.05030  1.0000 -0.1091577644
C   C35       1.0  0.05030  0.70990  0.80250  1.0000 -0.1091577644
C   C36       1.0  0.80250  0.05030  0.70990  1.0000 -0.1091577644
C   C37       1.0  0.18410  0.61500  0.32150  1.0000 -0.1226076748
C   C38       1.0  0.61500  0.32150  0.18410  1.0000 -0.1226076748
C   C39       1.0  0.32150  0.18410  0.61500  1.0000 -0.1226076748
C   C40       1.0  0.31590  0.17850  0.88500  1.0000 -0.1226076748
C   C41       1.0  0.88500  0.31590  0.17850  1.0000 -0.1226076748
C   C42       1.0  0.17850  0.88500  0.31590  1.0000 -0.1226076748
C   C43       1.0  0.81590  0.38500  0.67850  1.0000 -0.1226076748
C   C44       1.0  0.38500  0.67850  0.81590  1.0000 -0.1226076748
C   C45       1.0  0.67850  0.81590  0.38500  1.0000 -0.1226076748
C   C46       1.0  0.68410  0.82150  0.11500  1.0000 -0.1226076748
C   C47       1.0  0.11500  0.68410  0.82150  1.0000 -0.1226076748
C   C48       1.0  0.82150  0.11500  0.68410  1.0000 -0.1226076748
C   C49       1.0  0.15280  0.62820  0.38160  1.0000 0.0437666168
C   C50       1.0  0.62820  0.38160  0.15280  1.0000 0.0437666168
C   C51       1.0  0.38160  0.15280  0.62820  1.0000 0.0437666168
C   C52       1.0  0.34720  0.11840  0.87180  1.0000 0.0437666168
C   C53       1.0  0.87180  0.34720  0.11840  1.0000 0.0437666168
C   C54       1.0  0.11840  0.87180  0.34720  1.0000 0.0437666168
C   C55       1.0  0.84720  0.37180  0.61840  1.0000 0.0437666168
C   C56       1.0  0.37180  0.61840  0.84720  1.0000 0.0437666168
C   C57       1.0  0.61840  0.84720  0.37180  1.0000 0.0437666168
C   C58       1.0  0.65280  0.88160  0.12820  1.0000 0.0437666168
C   C59       1.0  0.12820  0.65280  0.88160  1.0000 0.0437666168
C   C60       1.0  0.88160  0.12820  0.65280  1.0000 0.0437666168
C   C61       1.0  0.15630  0.57860  0.42860  1.0000 -0.1515632194
C   C62       1.0  0.57860  0.42860  0.15630  1.0000 -0.1515632194
C   C63       1.0  0.42860  0.15630  0.57860  1.0000 -0.1515632194
C   C64       1.0  0.34370  0.07140  0.92140  1.0000 -0.1515632194
C   C65       1.0  0.92140  0.34370  0.07140  1.0000 -0.1515632194
C   C66       1.0  0.07140  0.92140  0.34370  1.0000 -0.1515632194
C   C67       1.0  0.84370  0.42140  0.57140  1.0000 -0.1515632194
C   C68       1.0  0.42140  0.57140  0.84370  1.0000 -0.1515632194
C   C69       1.0  0.57140  0.84370  0.42140  1.0000 -0.1515632194
C   C70       1.0  0.65630  0.92860  0.07860  1.0000 -0.1515632194
C   C71       1.0  0.07860  0.65630  0.92860  1.0000 -0.1515632194
C   C72       1.0  0.92860  0.07860  0.65630  1.0000 -0.1515632194
C   C73       1.0  0.17990  0.51380  0.40830  1.0000 -0.1091577644
C   C74       1.0  0.51380  0.40830  0.17990  1.0000 -0.1091577644
C   C75       1.0  0.40830  0.17990  0.51380  1.0000 -0.1091577644
C   C76       1.0  0.32010  0.09170  0.98620  1.0000 -0.1091577644
C   C77       1.0  0.98620  0.32010  0.09170  1.0000 -0.1091577644
C   C78       1.0  0.09170  0.98620  0.32010  1.0000 -0.1091577644
C   C79       1.0  0.82010  0.48620  0.59170  1.0000 -0.1091577644
C   C80       1.0  0.48620  0.59170  0.82010  1.0000 -0.1091577644
C   C81       1.0  0.59170  0.82010  0.48620  1.0000 -0.1091577644
C   C82       1.0  0.67990  0.90830  0.01380  1.0000 -0.1091577644
C   C83       1.0  0.01380  0.67990  0.90830  1.0000 -0.1091577644
C   C84       1.0  0.90830  0.01380  0.67990  1.0000 -0.1091577644
C   C85       1.0  0.11800  0.69250  0.39860  1.0000 0.2231103781
C   C86       1.0  0.69250  0.39860  0.11800  1.0000 0.2231103781
C   C87       1.0  0.39860  0.11800  0.69250  1.0000 0.2231103781
C   C88       1.0  0.38200  0.10140  0.80750  1.0000 0.2231103781
C   C89       1.0  0.80750  0.38200  0.10140  1.0000 0.2231103781
C   C90       1.0  0.10140  0.80750  0.38200  1.0000 0.2231103781
C   C91       1.0  0.88200  0.30750  0.60140  1.0000 0.2231103781
C   C92       1.0  0.30750  0.60140  0.88200  1.0000 0.2231103781
C   C93       1.0  0.60140  0.88200  0.30750  1.0000 0.2231103781
C   C94       1.0  0.61800  0.89860  0.19250  1.0000 0.2231103781
C   C95       1.0  0.19250  0.61800  0.89860  1.0000 0.2231103781
C   C96       1.0  0.89860  0.19250  0.61800  1.0000 0.2231103781
C   C97       1.0  0.07060  0.69140  0.44710  1.0000 -0.2503602353
C   C98       1.0  0.69140  0.44710  0.07060  1.0000 -0.2503602353
C   C99       1.0  0.44710  0.07060  0.69140  1.0000 -0.2503602353
C   C100      1.0  0.42940  0.05290  0.80860  1.0000 -0.2503602353
C   C101      1.0  0.80860  0.42940  0.05290  1.0000 -0.2503602353
C   C102      1.0  0.05290  0.80860  0.42940  1.0000 -0.2503602353
C   C103      1.0  0.92940  0.30860  0.55290  1.0000 -0.2503602353
C   C104      1.0  0.30860  0.55290  0.92940  1.0000 -0.2503602353
C   C105      1.0  0.55290  0.92940  0.30860  1.0000 -0.2503602353
C   C106      1.0  0.57060  0.94710  0.19140  1.0000 -0.2503602353
C   C107      1.0  0.19140  0.57060  0.94710  1.0000 -0.2503602353
C   C108      1.0  0.94710  0.19140  0.57060  1.0000 -0.2503602353
C   C109      1.0  0.03735  0.75000  0.46265  1.0000 0.110241555
C   C110      1.0  0.75000  0.46265  0.03735  1.0000 0.110241555
C   C111      1.0  0.46265  0.03735  0.75000  1.0000 0.110241555
C   C112      1.0  0.96265  0.25000  0.53735  1.0000 0.110241555
C   C113      1.0  0.25000  0.53735  0.96265  1.0000 0.110241555
C   C114      1.0  0.53735  0.96265  0.25000  1.0000 0.110241555
C   C115      1.0  0.98595  0.75000  0.51405  1.0000 0.1203709945
C   C116      1.0  0.75000  0.51405  0.98595  1.0000 0.1203709945
C   C117      1.0  0.51405  0.98595  0.75000  1.0000 0.1203709945
C   C118      1.0  0.01405  0.25000  0.48595  1.0000 0.1203709945
C   C119      1.0  0.25000  0.48595  0.01405  1.0000 0.1203709945
C   C120      1.0  0.48595  0.01405  0.25000  1.0000 0.1203709945
C   C121      1.0  0.94200  0.80120  0.51960  1.0000 -0.1997769522
C   C122      1.0  0.80120  0.51960  0.94200  1.0000 -0.1997769522
C   C123      1.0  0.51960  0.94200  0.80120  1.0000 -0.1997769522
C   C124      1.0  0.55800  0.98040  0.69880  1.0000 -0.1997769522
C   C125      1.0  0.69880  0.55800  0.98040  1.0000 -0.1997769522
C   C126      1.0  0.98040  0.69880  0.55800  1.0000 -0.1997769522
C   C127      1.0  0.05800  0.19880  0.48040  1.0000 -0.1997769522
C   C128      1.0  0.19880  0.48040  0.05800  1.0000 -0.1997769522
C   C129      1.0  0.48040  0.05800  0.19880  1.0000 -0.1997769522
C   C130      1.0  0.44200  0.01960  0.30120  1.0000 -0.1997769522
C   C131      1.0  0.30120  0.44200  0.01960  1.0000 -0.1997769522
C   C132      1.0  0.01960  0.30120  0.44200  1.0000 -0.1997769522
C   C133      1.0  0.89570  0.79860  0.56730  1.0000 0.0959577899
C   C134      1.0  0.79860  0.56730  0.89570  1.0000 0.0959577899
C   C135      1.0  0.56730  0.89570  0.79860  1.0000 0.0959577899
C   C136      1.0  0.60430  0.93270  0.70140  1.0000 0.0959577899
C   C137      1.0  0.70140  0.60430  0.93270  1.0000 0.0959577899
C   C138      1.0  0.93270  0.70140  0.60430  1.0000 0.0959577899
C   C139      1.0  0.10430  0.20140  0.43270  1.0000 0.0959577899
C   C140      1.0  0.20140  0.43270  0.10430  1.0000 0.0959577899
C   C141      1.0  0.43270  0.10430  0.20140  1.0000 0.0959577899
C   C142      1.0  0.39570  0.06730  0.29860  1.0000 0.0959577899
C   C143      1.0  0.29860  0.39570  0.06730  1.0000 0.0959577899
C   C144      1.0  0.06730  0.29860  0.39570  1.0000 0.0959577899
N   N1        1.0  0.88995  0.75000  0.61005  1.0000 -0.186540879
N   N2        1.0  0.75000  0.61005  0.88995  1.0000 -0.186540879
N   N3        1.0  0.61005  0.88995  0.75000  1.0000 -0.186540879
N   N4        1.0  0.11005  0.25000  0.38995  1.0000 -0.186540879
N   N5        1.0  0.25000  0.38995  0.11005  1.0000 -0.186540879
N   N6        1.0  0.38995  0.11005  0.25000  1.0000 -0.186540879
N   N7        1.0  0.13355  0.75000  0.36645  1.0000 -0.3448324946
N   N8        1.0  0.75000  0.36645  0.13355  1.0000 -0.3448324946
N   N9        1.0  0.36645  0.13355  0.75000  1.0000 -0.3448324946
N   N10       1.0  0.86645  0.25000  0.63355  1.0000 -0.3448324946
N   N11       1.0  0.25000  0.63355  0.86645  1.0000 -0.3448324946
N   N12       1.0  0.63355  0.86645  0.25000  1.0000 -0.3448324946
O   O1        1.0  0.75000  0.75000  0.75000  1.0000 -0.69873551
O   O2        1.0  0.25000  0.25000  0.25000  1.0000 -0.69873551
O   O3        1.0  0.26070  0.41718  0.26902  1.0000 -0.541232372
O   O4        1.0  0.41718  0.26902  0.26070  1.0000 -0.541232372
O   O5        1.0  0.26902  0.26070  0.41718  1.0000 -0.541232372
O   O6        1.0  0.23930  0.23098  0.08282  1.0000 -0.541232372
O   O7        1.0  0.08282  0.23930  0.23098  1.0000 -0.541232372
O   O8        1.0  0.23098  0.08282  0.23930  1.0000 -0.541232372
O   O9        1.0  0.73930  0.58282  0.73098  1.0000 -0.541232372
O   O10       1.0  0.58282  0.73098  0.73930  1.0000 -0.541232372
O   O11       1.0  0.73098  0.73930  0.58282  1.0000 -0.541232372
O   O12       1.0  0.76070  0.76902  0.91718  1.0000 -0.541232372
O   O13       1.0  0.91718  0.76070  0.76902  1.0000 -0.541232372
O   O14       1.0  0.76902  0.91718  0.76070  1.0000 -0.541232372
O   O15       1.0  0.20474  0.37160  0.35016  1.0000 -0.549751793
O   O16       1.0  0.37160  0.35016  0.20474  1.0000 -0.549751793
O   O17       1.0  0.35016  0.20474  0.37160  1.0000 -0.549751793
O   O18       1.0  0.29526  0.14984  0.12840  1.0000 -0.549751793
O   O19       1.0  0.12840  0.29526  0.14984  1.0000 -0.549751793
O   O20       1.0  0.14984  0.12840  0.29526  1.0000 -0.549751793
O   O21       1.0  0.79526  0.62840  0.64984  1.0000 -0.549751793
O   O22       1.0  0.62840  0.64984  0.79526  1.0000 -0.549751793
O   O23       1.0  0.64984  0.79526  0.62840  1.0000 -0.549751793
O   O24       1.0  0.70474  0.85016  0.87160  1.0000 -0.549751793
O   O25       1.0  0.87160  0.70474  0.85016  1.0000 -0.549751793
O   O26       1.0  0.85016  0.87160  0.70474  1.0000 -0.549751793
