# DDEC6 charges by PACMAN v1.1 (https://github.com/mtap-research/PACMAN-charge/)
data_2013[Nd][nan]3[ASR]4
_chemical_formula_sum              "Nd2 H10 C20 O14"
_cell_length_a       11.0921
_cell_length_b       11.0921
_cell_length_c       6.9059
_cell_angle_alpha    75.7258
_cell_angle_beta     104.274
_cell_angle_gamma    126.477

_symmetry_space_group_name_H-M    "P 1"
_symmetry_Int_Tables_number       1

loop_
  _symmetry_equiv_pos_as_xyz
  'x, y, z'

loop_
  _atom_site_type_symbol
  _atom_site_label
  _atom_site_symmetry_multiplicity
  _atom_site_fract_x
  _atom_site_fract_y
  _atom_site_fract_z
  _atom_site_occupancy
  _atom_site_charge
Nd  Nd1       1.0  0.38771  0.09150  0.44236  1.0000 2.0507791684
Nd  Nd2       1.0  0.90850  0.61229  0.94236  1.0000 2.0507791684
H   H1        1.0  0.00390  0.32110  0.45970  1.0000 0.1135155455
H   H2        1.0  0.67890  0.99610  0.95970  1.0000 0.1135155455
H   H3        1.0  0.05720  0.14780  0.63320  1.0000 0.1311500192
H   H4        1.0  0.85220  0.94280  0.13320  1.0000 0.1311500192
H   H5        1.0  0.61610  0.81129  0.53000  1.0000 0.1311500192
H   H6        1.0  0.18870  0.38390  0.03000  1.0000 0.1311500192
H   H7        1.0  0.45840  0.82099  0.18760  1.0000 0.1364705012
H   H8        1.0  0.17900  0.54160  0.68760  1.0000 0.1364705012
H   H9        1.0  0.38620  0.75260  0.39030  1.0000 0.1364705012
H   H10       1.0  0.24740  0.61380  0.89030  1.0000 0.1364705012
C   C1        1.0  0.66300  0.02059  0.42580  1.0000 0.2377060995
C   C2        1.0  0.97940  0.33700  0.92580  1.0000 0.2377060995
C   C3        1.0  0.77700  0.17459  0.40400  1.0000 -0.1575663417
C   C4        1.0  0.82540  0.22300  0.90400  1.0000 -0.1575663417
C   C5        1.0  0.92540  0.21920  0.47800  1.0000 -0.0942921295
C   C6        1.0  0.78080  0.07460  0.97800  1.0000 -0.0942921295
C   C7        1.0  0.95870  0.11569  0.57790  1.0000 -0.1256834968
C   C8        1.0  0.88430  0.04130  0.07790  1.0000 -0.1256834968
C   C9        1.0  0.84210  0.96249  0.59420  1.0000 0.0333333955
C   C10       1.0  0.03750  0.15790  0.09420  1.0000 0.0333333955
C   C11       1.0  0.69360  0.91379  0.51860  1.0000 -0.246025677
C   C12       1.0  0.08621  0.30640  0.01860  1.0000 -0.246025677
C   C13       1.0  0.41330  0.83330  0.27850  1.0000 -0.177313435
C   C14       1.0  0.16670  0.58670  0.77850  1.0000 -0.177313435
C   C15       1.0  0.27450  0.82929  0.16900  1.0000 0.6489995763
C   C16       1.0  0.17070  0.72550  0.66900  1.0000 0.6489995763
C   C17       1.0  0.75060  0.29579  0.29800  1.0000 0.6580869601
C   C18       1.0  0.70420  0.24940  0.79800  1.0000 0.6580869601
C   C19       1.0  0.87090  0.84449  0.70220  1.0000 0.5701575921
C   C20       1.0  0.15550  0.12910  0.20220  1.0000 0.5701575921
O   O1        1.0  0.51710  0.97809  0.35030  1.0000 -0.2564026966
O   O2        1.0  0.02190  0.48290  0.85030  1.0000 -0.2564026966
O   O3        1.0  0.27602  0.94537  0.15650  1.0000 -0.6045915141
O   O4        1.0  0.05462  0.72398  0.65650  1.0000 -0.6045915141
O   O5        1.0  0.17018  0.71101  0.10020  1.0000 -0.6336935117
O   O6        1.0  0.28898  0.82982  0.60020  1.0000 -0.6336935117
O   O7        1.0  0.61981  0.26859  0.28460  1.0000 -0.6611081913
O   O8        1.0  0.73142  0.38019  0.78460  1.0000 -0.6611081913
O   O9        1.0  0.85929  0.41770  0.22570  1.0000 -0.6611081913
O   O10       1.0  0.58230  0.14071  0.72570  1.0000 -0.6611081913
O   O11       1.0  0.98355  0.88124  0.83650  1.0000 -0.6175411895
O   O12       1.0  0.11875  0.01645  0.33650  1.0000 -0.6175411895
O   O13       1.0  0.78170  0.71169  0.65980  1.0000 -0.6124930039
O   O14       1.0  0.28830  0.21830  0.15980  1.0000 -0.6124930039
