# DDEC6 charges by PACMAN v1.1 (https://github.com/mtap-research/PACMAN-charge/)
data_2013[Cu][nan]3[ASR]7
_chemical_formula_sum              "Cu6 H6 C24 O18"
_cell_length_a       15.1538
_cell_length_b       15.1538
_cell_length_c       15.1538
_cell_angle_alpha    118.136
_cell_angle_beta     118.136
_cell_angle_gamma    118.136

_symmetry_space_group_name_H-M    "P 1"
_symmetry_Int_Tables_number       1

loop_
  _symmetry_equiv_pos_as_xyz
  'x, y, z'

loop_
  _atom_site_type_symbol
  _atom_site_label
  _atom_site_symmetry_multiplicity
  _atom_site_fract_x
  _atom_site_fract_y
  _atom_site_fract_z
  _atom_site_occupancy
  _atom_site_charge
Cu  Cu1       1.0  0.07095  0.63762  0.33144  1.0000 0.9234234208
Cu  Cu2       1.0  0.63762  0.33144  0.07095  1.0000 0.9255603665
Cu  Cu3       1.0  0.33144  0.07095  0.63762  1.0000 0.9234234208
Cu  Cu4       1.0  0.92905  0.36238  0.66856  1.0000 0.9255603665
Cu  Cu5       1.0  0.36238  0.66856  0.92905  1.0000 0.9255603665
Cu  Cu6       1.0  0.66856  0.92905  0.36238  1.0000 0.9255603665
H   H1        1.0  0.68530  0.14630  0.12490  1.0000 0.1483486557
H   H2        1.0  0.14630  0.12490  0.68530  1.0000 0.1483486557
H   H3        1.0  0.12490  0.68530  0.14630  1.0000 0.1483486557
H   H4        1.0  0.31470  0.85370  0.87510  1.0000 0.1483486557
H   H5        1.0  0.85370  0.87510  0.31470  1.0000 0.1483486557
H   H6        1.0  0.87510  0.31470  0.85370  1.0000 0.1483486557
C   C1        1.0  0.81450  0.29170  0.27840  1.0000 -0.1852196789
C   C2        1.0  0.29170  0.27840  0.81450  1.0000 -0.1846074349
C   C3        1.0  0.27840  0.81450  0.29170  1.0000 -0.1846074349
C   C4        1.0  0.18550  0.70830  0.72160  1.0000 -0.1846074349
C   C5        1.0  0.70830  0.72160  0.18550  1.0000 -0.1852196789
C   C6        1.0  0.72160  0.18550  0.70830  1.0000 -0.1852196789
C   C7        1.0  0.28180  0.88330  0.71170  1.0000 0.6275300596
C   C8        1.0  0.88330  0.71170  0.28180  1.0000 0.6275300596
C   C9        1.0  0.71170  0.28180  0.88330  1.0000 0.6275300596
C   C10       1.0  0.71820  0.11670  0.28830  1.0000 0.6275300596
C   C11       1.0  0.11670  0.28830  0.71820  1.0000 0.6275300596
C   C12       1.0  0.28830  0.71820  0.11670  1.0000 0.6275300596
C   C13       1.0  0.93610  0.46480  0.36470  1.0000 0.2748883778
C   C14       1.0  0.46480  0.36470  0.93610  1.0000 0.2748883778
C   C15       1.0  0.36470  0.93610  0.46480  1.0000 0.275206458
C   C16       1.0  0.06390  0.53520  0.63530  1.0000 0.275206458
C   C17       1.0  0.53520  0.63530  0.06390  1.0000 0.275206458
C   C18       1.0  0.63530  0.06390  0.53520  1.0000 0.275206458
C   C19       1.0  0.12750  0.67900  0.59420  1.0000 -0.1159087058
C   C20       1.0  0.67900  0.59420  0.12750  1.0000 -0.1159087058
C   C21       1.0  0.59420  0.12750  0.67900  1.0000 -0.1159087058
C   C22       1.0  0.87250  0.32100  0.40580  1.0000 -0.1159087058
C   C23       1.0  0.32100  0.40580  0.87250  1.0000 -0.1159087058
C   C24       1.0  0.40580  0.87250  0.32100  1.0000 -0.1159087058
O   O1        1.0  0.86178  0.41889  0.22543  1.0000 -0.5765831159
O   O2        1.0  0.41889  0.22543  0.86178  1.0000 -0.5765831159
O   O3        1.0  0.22543  0.86178  0.41889  1.0000 -0.5765831159
O   O4        1.0  0.13822  0.58111  0.77457  1.0000 -0.5765831159
O   O5        1.0  0.58111  0.77457  0.13822  1.0000 -0.5765831159
O   O6        1.0  0.77457  0.13822  0.58111  1.0000 -0.5765831159
O   O7        1.0  0.28333  0.88370  0.62967  1.0000 -0.5927119241
O   O8        1.0  0.88370  0.62967  0.28333  1.0000 -0.5927119241
O   O9        1.0  0.62967  0.28333  0.88370  1.0000 -0.5927119241
O   O10       1.0  0.71667  0.11630  0.37033  1.0000 -0.5927119241
O   O11       1.0  0.11630  0.37033  0.71667  1.0000 -0.5927119241
O   O12       1.0  0.37033  0.71667  0.11630  1.0000 -0.5927119241
O   O13       1.0  0.41359  0.05522  0.89819  1.0000 -0.5058668143
O   O14       1.0  0.05522  0.89819  0.41359  1.0000 -0.5049252993
O   O15       1.0  0.89819  0.41359  0.05522  1.0000 -0.5058668143
O   O16       1.0  0.58641  0.94478  0.10181  1.0000 -0.5058668143
O   O17       1.0  0.94478  0.10181  0.58641  1.0000 -0.5058668143
O   O18       1.0  0.10181  0.58641  0.94478  1.0000 -0.5058668143
