# DDEC6 charges by PACMAN v1.1 (https://github.com/mtap-research/PACMAN-charge/)
data_2013[Ni][bct]3[ASR]1
_chemical_formula_sum              "Ni6 H40 C64 N8 O28"
_cell_length_a       14.4265
_cell_length_b       14.4265
_cell_length_c       13.2146
_cell_angle_alpha    87.7194
_cell_angle_beta     92.2806
_cell_angle_gamma    79.18

_symmetry_space_group_name_H-M    "P 1"
_symmetry_Int_Tables_number       1

loop_
  _symmetry_equiv_pos_as_xyz
  'x, y, z'

loop_
  _atom_site_type_symbol
  _atom_site_label
  _atom_site_symmetry_multiplicity
  _atom_site_fract_x
  _atom_site_fract_y
  _atom_site_fract_z
  _atom_site_occupancy
  _atom_site_charge
Ni  Ni1       1.0  0.02488  0.41056  0.25499  1.0000 0.8236688307
Ni  Ni2       1.0  0.41056  0.02488  0.24501  1.0000 0.8236688307
Ni  Ni3       1.0  0.97512  0.58944  0.74501  1.0000 0.8236688307
Ni  Ni4       1.0  0.58944  0.97512  0.75499  1.0000 0.8236688307
Ni  Ni5       1.0  0.00000  0.50000  0.50000  1.0000 1.0837258627
Ni  Ni6       1.0  0.50000  0.00000  0.00000  1.0000 1.085218363
H   H1        1.0  0.14410  0.47250  0.08020  1.0000 0.1223766393
H   H2        1.0  0.47250  0.14410  0.41980  1.0000 0.1223766393
H   H3        1.0  0.85590  0.52750  0.91980  1.0000 0.1223766393
H   H4        1.0  0.52750  0.85590  0.58020  1.0000 0.1223766393
H   H5        1.0  0.87890  0.45390  0.07850  1.0000 0.1384652486
H   H6        1.0  0.45390  0.87890  0.42150  1.0000 0.1384652486
H   H7        1.0  0.12110  0.54610  0.92150  1.0000 0.1384652486
H   H8        1.0  0.54610  0.12110  0.57850  1.0000 0.1384652486
H   H9        1.0  0.24170  0.82430  0.38940  1.0000 0.1103589484
H   H10       1.0  0.82430  0.24170  0.11060  1.0000 0.1103589484
H   H11       1.0  0.75830  0.17570  0.61060  1.0000 0.1103589484
H   H12       1.0  0.17570  0.75830  0.88940  1.0000 0.1103589484
H   H13       1.0  0.06650  0.19050  0.24610  1.0000 0.1278410652
H   H14       1.0  0.19050  0.06650  0.25390  1.0000 0.1278410652
H   H15       1.0  0.93350  0.80950  0.75390  1.0000 0.1278410652
H   H16       1.0  0.80950  0.93350  0.74610  1.0000 0.1278410652
H   H17       1.0  0.16670  0.70150  0.43540  1.0000 0.1384652486
H   H18       1.0  0.70150  0.16670  0.06460  1.0000 0.1384652486
H   H19       1.0  0.83330  0.29850  0.56460  1.0000 0.1384652486
H   H20       1.0  0.29850  0.83330  0.93540  1.0000 0.1384652486
H   H21       1.0  0.20150  0.59730  0.16020  1.0000 0.1103589484
H   H22       1.0  0.59730  0.20150  0.33980  1.0000 0.1103589484
H   H23       1.0  0.79850  0.40270  0.83980  1.0000 0.1103589484
H   H24       1.0  0.40270  0.79850  0.66020  1.0000 0.1103589484
H   H25       1.0  0.27400  0.72180  0.11260  1.0000 0.1223766393
H   H26       1.0  0.72180  0.27400  0.38740  1.0000 0.1223766393
H   H27       1.0  0.72600  0.27820  0.88740  1.0000 0.1223766393
H   H28       1.0  0.27820  0.72600  0.61260  1.0000 0.1223766393
H   H29       1.0  0.74450  0.68530  0.42300  1.0000 0.1278410652
H   H30       1.0  0.68530  0.74450  0.07700  1.0000 0.1278410652
H   H31       1.0  0.25550  0.31470  0.57700  1.0000 0.1278410652
H   H32       1.0  0.31470  0.25550  0.92300  1.0000 0.1278410652
H   H33       1.0  0.80560  0.62240  0.13870  1.0000 0.1103589484
H   H34       1.0  0.62240  0.80560  0.36130  1.0000 0.1103589484
H   H35       1.0  0.19440  0.37760  0.86130  1.0000 0.1103589484
H   H36       1.0  0.37760  0.19440  0.63870  1.0000 0.1103589484
H   H37       1.0  0.24150  0.36390  0.24050  1.0000 0.1223766393
H   H38       1.0  0.36390  0.24150  0.25950  1.0000 0.1223766393
H   H39       1.0  0.75850  0.63610  0.75950  1.0000 0.1223766393
H   H40       1.0  0.63610  0.75850  0.74050  1.0000 0.1223766393
C   C1        1.0  0.08400  0.48300  0.04860  1.0000 0.0372028687
C   C2        1.0  0.48300  0.08400  0.45140  1.0000 0.0372028687
C   C3        1.0  0.91600  0.51700  0.95140  1.0000 0.0372028687
C   C4        1.0  0.51700  0.91600  0.54860  1.0000 0.0372028687
C   C5        1.0  0.92980  0.47220  0.04760  1.0000 0.0372028687
C   C6        1.0  0.47220  0.92980  0.45240  1.0000 0.0372028687
C   C7        1.0  0.07020  0.52780  0.95240  1.0000 0.0372028687
C   C8        1.0  0.52780  0.07020  0.54760  1.0000 0.0372028687
C   C9        1.0  0.23230  0.78010  0.34260  1.0000 -0.1036081048
C   C10       1.0  0.78010  0.23230  0.15740  1.0000 -0.1036081048
C   C11       1.0  0.76770  0.21990  0.65740  1.0000 -0.1036081048
C   C12       1.0  0.21990  0.76770  0.84260  1.0000 -0.1036081048
C   C13       1.0  0.86910  0.56650  0.32560  1.0000 0.5784762954
C   C14       1.0  0.56650  0.86910  0.17440  1.0000 0.5784762954
C   C15       1.0  0.13090  0.43350  0.67440  1.0000 0.5784762954
C   C16       1.0  0.43350  0.13090  0.82560  1.0000 0.5784762954
C   C17       1.0  0.11910  0.56350  0.33070  1.0000 0.5784762954
C   C18       1.0  0.56350  0.11910  0.16930  1.0000 0.5784762954
C   C19       1.0  0.88090  0.43650  0.66930  1.0000 0.5784762954
C   C20       1.0  0.43650  0.88090  0.83070  1.0000 0.5784762954
C   C21       1.0  0.78830  0.64370  0.28610  1.0000 -0.0104730361
C   C22       1.0  0.64370  0.78830  0.21390  1.0000 -0.0104730361
C   C23       1.0  0.21170  0.35630  0.71390  1.0000 -0.0104730361
C   C24       1.0  0.35630  0.21170  0.78610  1.0000 -0.0104730361
C   C25       1.0  0.17340  0.63940  0.30220  1.0000 -0.0163934099
C   C26       1.0  0.63940  0.17340  0.19780  1.0000 -0.0163934099
C   C27       1.0  0.82660  0.36060  0.69780  1.0000 -0.0163934099
C   C28       1.0  0.36060  0.82660  0.80220  1.0000 -0.0163934099
C   C29       1.0  0.30820  0.86840  0.20970  1.0000 0.5548095038
C   C30       1.0  0.86840  0.30820  0.29030  1.0000 0.5548095038
C   C31       1.0  0.69180  0.13160  0.79030  1.0000 0.5548095038
C   C32       1.0  0.13160  0.69180  0.70970  1.0000 0.5548095038
C   C33       1.0  0.12750  0.20310  0.24740  1.0000 0.0307860827
C   C34       1.0  0.20310  0.12750  0.25260  1.0000 0.0307860827
C   C35       1.0  0.87250  0.79690  0.75260  1.0000 0.0307860827
C   C36       1.0  0.79690  0.87250  0.74740  1.0000 0.0307860827
C   C37       1.0  0.18750  0.70610  0.37000  1.0000 -0.0916018704
C   C38       1.0  0.70610  0.18750  0.13000  1.0000 -0.0916018704
C   C39       1.0  0.81250  0.29390  0.63000  1.0000 -0.0916018704
C   C40       1.0  0.29390  0.81250  0.87000  1.0000 -0.0916018704
C   C41       1.0  0.26260  0.78720  0.24480  1.0000 -0.0163934099
C   C42       1.0  0.78720  0.26260  0.25520  1.0000 -0.0163934099
C   C43       1.0  0.73740  0.21280  0.75520  1.0000 -0.0163934099
C   C44       1.0  0.21280  0.73740  0.74480  1.0000 -0.0163934099
C   C45       1.0  0.20780  0.64360  0.20550  1.0000 -0.121482964
C   C46       1.0  0.64360  0.20780  0.29450  1.0000 -0.121482964
C   C47       1.0  0.79220  0.35640  0.79450  1.0000 -0.121482964
C   C48       1.0  0.35640  0.79220  0.70550  1.0000 -0.121482964
C   C49       1.0  0.25170  0.71810  0.17750  1.0000 -0.1036081048
C   C50       1.0  0.71810  0.25170  0.32250  1.0000 -0.1036081048
C   C51       1.0  0.74830  0.28190  0.82250  1.0000 -0.1036081048
C   C52       1.0  0.28190  0.74830  0.67750  1.0000 -0.1036081048
C   C53       1.0  0.73310  0.69730  0.35350  1.0000 -0.0916018704
C   C54       1.0  0.69730  0.73310  0.14650  1.0000 -0.0916018704
C   C55       1.0  0.26690  0.30270  0.64650  1.0000 -0.0916018704
C   C56       1.0  0.30270  0.26690  0.85350  1.0000 -0.0916018704
C   C57       1.0  0.76960  0.66020  0.18370  1.0000 -0.1076640444
C   C58       1.0  0.66020  0.76960  0.31630  1.0000 -0.1076640444
C   C59       1.0  0.23040  0.33980  0.81630  1.0000 -0.1076640444
C   C60       1.0  0.33980  0.23040  0.68370  1.0000 -0.1076640444
C   C61       1.0  0.22870  0.30310  0.24560  1.0000 -0.00383933
C   C62       1.0  0.30310  0.22870  0.25440  1.0000 -0.00383933
C   C63       1.0  0.77130  0.69690  0.75440  1.0000 -0.00383933
C   C64       1.0  0.69690  0.77130  0.74560  1.0000 -0.00383933
N   N1        1.0  0.13820  0.29300  0.24400  1.0000 -0.1894141802
N   N2        1.0  0.29300  0.13820  0.25600  1.0000 -0.1894141802
N   N3        1.0  0.86180  0.70700  0.75600  1.0000 -0.1894141802
N   N4        1.0  0.70700  0.86180  0.74400  1.0000 -0.1894141802
N   N5        1.0  0.01480  0.45500  0.09650  1.0000 -0.145691234
N   N6        1.0  0.45500  0.01480  0.40350  1.0000 -0.145691234
N   N7        1.0  0.98520  0.54500  0.90350  1.0000 -0.145691234
N   N8        1.0  0.54500  0.98520  0.59650  1.0000 -0.145691234
O   O1        1.0  0.91480  0.52100  0.26130  1.0000 -0.509998254
O   O2        1.0  0.52100  0.91480  0.23870  1.0000 -0.509998254
O   O3        1.0  0.08520  0.47900  0.73870  1.0000 -0.509998254
O   O4        1.0  0.47900  0.08520  0.76130  1.0000 -0.509998254
O   O5        1.0  0.12110  0.49650  0.27170  1.0000 -0.5603966663
O   O6        1.0  0.49650  0.12110  0.22830  1.0000 -0.5547914574
O   O7        1.0  0.87890  0.50350  0.72830  1.0000 -0.5547914574
O   O8        1.0  0.50350  0.87890  0.77170  1.0000 -0.5547914574
O   O9        1.0  0.32410  0.92670  0.27430  1.0000 -0.5603966663
O   O10       1.0  0.92670  0.32410  0.22570  1.0000 -0.5603966663
O   O11       1.0  0.67590  0.07330  0.72570  1.0000 -0.5603966663
O   O12       1.0  0.07330  0.67590  0.77430  1.0000 -0.5603966663
O   O13       1.0  0.88120  0.55700  0.41980  1.0000 -0.4829585919
O   O14       1.0  0.55700  0.88120  0.08020  1.0000 -0.4829585919
O   O15       1.0  0.11880  0.44300  0.58020  1.0000 -0.4829585919
O   O16       1.0  0.44300  0.11880  0.91980  1.0000 -0.4829585919
O   O17       1.0  0.02320  0.37960  0.41180  1.0000 -0.3679976235
O   O18       1.0  0.37960  0.02320  0.08820  1.0000 -0.3679976235
O   O19       1.0  0.97680  0.62040  0.58820  1.0000 -0.3679976235
O   O20       1.0  0.62040  0.97680  0.91180  1.0000 -0.3679976235
O   O21       1.0  0.07620  0.57360  0.41170  1.0000 -0.4829585919
O   O22       1.0  0.57360  0.07620  0.08830  1.0000 -0.4829585919
O   O23       1.0  0.92380  0.42640  0.58830  1.0000 -0.4829585919
O   O24       1.0  0.42640  0.92380  0.91170  1.0000 -0.4829585919
O   O25       1.0  0.32650  0.87070  0.11810  1.0000 -0.4514041463
O   O26       1.0  0.87070  0.32650  0.38190  1.0000 -0.4514041463
O   O27       1.0  0.67350  0.12930  0.88190  1.0000 -0.4514041463
O   O28       1.0  0.12930  0.67350  0.61810  1.0000 -0.4514041463
