# DDEC6 charges by PACMAN v1.1 (https://github.com/mtap-research/PACMAN-charge/)
data_2013[Ni][ant]3[ASR]1
_chemical_formula_sum              "Ni8 H56 C104 N8 O32"
_cell_length_a       16.846
_cell_length_b       14.18
_cell_length_c       18.754
_cell_angle_alpha    90
_cell_angle_beta     97.7
_cell_angle_gamma    90

_symmetry_space_group_name_H-M    "P 1"
_symmetry_Int_Tables_number       1

loop_
  _symmetry_equiv_pos_as_xyz
  'x, y, z'

loop_
  _atom_site_type_symbol
  _atom_site_label
  _atom_site_symmetry_multiplicity
  _atom_site_fract_x
  _atom_site_fract_y
  _atom_site_fract_z
  _atom_site_occupancy
  _atom_site_charge
Ni  Ni1       1.0  0.04704  0.72375  0.17566  1.0000 0.8253744272
Ni  Ni2       1.0  0.95296  0.27625  0.82434  1.0000 0.824029806
Ni  Ni3       1.0  0.95296  0.72375  0.32434  1.0000 0.824029806
Ni  Ni4       1.0  0.04704  0.27625  0.67566  1.0000 0.8253744272
Ni  Ni5       1.0  0.54704  0.22375  0.17566  1.0000 0.824029806
Ni  Ni6       1.0  0.45296  0.77625  0.82434  1.0000 0.824029806
Ni  Ni7       1.0  0.45296  0.22375  0.32434  1.0000 0.8253744272
Ni  Ni8       1.0  0.54704  0.77625  0.67566  1.0000 0.8253744272
H   H1        1.0  0.24537  0.60999  0.96120  1.0000 0.1293554474
H   H2        1.0  0.75463  0.39001  0.03880  1.0000 0.1293554474
H   H3        1.0  0.75463  0.60999  0.53880  1.0000 0.1293554474
H   H4        1.0  0.24537  0.39001  0.46120  1.0000 0.1293554474
H   H5        1.0  0.74537  0.10999  0.96120  1.0000 0.1293554474
H   H6        1.0  0.25463  0.89001  0.03880  1.0000 0.1293554474
H   H7        1.0  0.25463  0.10999  0.53880  1.0000 0.1293554474
H   H8        1.0  0.74537  0.89001  0.46120  1.0000 0.1293554474
H   H9        1.0  0.48760  0.61230  0.07499  1.0000 0.1293554474
H   H10       1.0  0.51240  0.38770  0.92501  1.0000 0.1293554474
H   H11       1.0  0.51240  0.61230  0.42501  1.0000 0.1293554474
H   H12       1.0  0.48760  0.38770  0.57499  1.0000 0.1293554474
H   H13       1.0  0.98760  0.11230  0.07499  1.0000 0.1293554474
H   H14       1.0  0.01240  0.88770  0.92501  1.0000 0.1293554474
H   H15       1.0  0.01240  0.11230  0.42501  1.0000 0.1293554474
H   H16       1.0  0.98760  0.88770  0.57499  1.0000 0.1293554474
H   H17       1.0  0.52955  0.70285  0.97115  1.0000 0.0987154723
H   H18       1.0  0.47045  0.29715  0.02885  1.0000 0.0987154723
H   H19       1.0  0.47045  0.70285  0.52885  1.0000 0.0987154723
H   H20       1.0  0.52955  0.29715  0.47115  1.0000 0.0987154723
H   H21       1.0  0.02955  0.20285  0.97115  1.0000 0.0987154723
H   H22       1.0  0.97045  0.79715  0.02885  1.0000 0.0987154723
H   H23       1.0  0.97045  0.20285  0.52885  1.0000 0.0987154723
H   H24       1.0  0.02955  0.79715  0.47115  1.0000 0.0987154723
H   H25       1.0  0.29654  0.70190  0.86223  1.0000 0.0987154723
H   H26       1.0  0.70346  0.29810  0.13777  1.0000 0.0987154723
H   H27       1.0  0.70346  0.70190  0.63777  1.0000 0.0987154723
H   H28       1.0  0.29654  0.29810  0.36223  1.0000 0.0987154723
H   H29       1.0  0.79654  0.20190  0.86223  1.0000 0.0987154723
H   H30       1.0  0.20346  0.79810  0.13777  1.0000 0.0987154723
H   H31       1.0  0.20346  0.20190  0.63777  1.0000 0.0987154723
H   H32       1.0  0.79654  0.79810  0.36223  1.0000 0.0987154723
H   H33       1.0  0.25999  0.40952  0.24521  1.0000 0.1203384297
H   H34       1.0  0.74001  0.59048  0.75479  1.0000 0.1203384297
H   H35       1.0  0.74001  0.40952  0.25479  1.0000 0.1203384297
H   H36       1.0  0.25999  0.59048  0.74521  1.0000 0.1203384297
H   H37       1.0  0.75999  0.90952  0.24521  1.0000 0.1203384297
H   H38       1.0  0.24001  0.09048  0.75479  1.0000 0.1203384297
H   H39       1.0  0.24001  0.90952  0.25479  1.0000 0.1203384297
H   H40       1.0  0.75999  0.09048  0.74521  1.0000 0.1203384297
H   H41       1.0  0.22958  0.63768  0.09189  1.0000 0.1076964332
H   H42       1.0  0.77042  0.36232  0.90811  1.0000 0.1076964332
H   H43       1.0  0.77042  0.63768  0.40811  1.0000 0.1076964332
H   H44       1.0  0.22958  0.36232  0.59189  1.0000 0.1076964332
H   H45       1.0  0.72958  0.13768  0.09189  1.0000 0.1076964332
H   H46       1.0  0.27042  0.86232  0.90811  1.0000 0.1076964332
H   H47       1.0  0.27042  0.13768  0.40811  1.0000 0.1076964332
H   H48       1.0  0.72958  0.86232  0.59189  1.0000 0.1076964332
H   H49       1.0  0.43148  0.44706  0.09495  1.0000 0.1076964332
H   H50       1.0  0.56852  0.55294  0.90505  1.0000 0.1076964332
H   H51       1.0  0.56852  0.44706  0.40505  1.0000 0.1076964332
H   H52       1.0  0.43148  0.55294  0.59495  1.0000 0.1076964332
H   H53       1.0  0.93148  0.94706  0.09495  1.0000 0.1076964332
H   H54       1.0  0.06852  0.05294  0.90505  1.0000 0.1076964332
H   H55       1.0  0.06852  0.94706  0.40505  1.0000 0.1076964332
H   H56       1.0  0.93148  0.05294  0.59495  1.0000 0.1076964332
C   C1        1.0  0.30874  0.63094  0.96616  1.0000 -0.1794834352
C   C2        1.0  0.69126  0.36906  0.03384  1.0000 -0.1794834352
C   C3        1.0  0.69126  0.63094  0.53384  1.0000 -0.1794834352
C   C4        1.0  0.30874  0.36906  0.46616  1.0000 -0.1794834352
C   C5        1.0  0.80874  0.13094  0.96616  1.0000 -0.1794834352
C   C6        1.0  0.19126  0.86906  0.03384  1.0000 -0.1794834352
C   C7        1.0  0.19126  0.13094  0.53384  1.0000 -0.1794834352
C   C8        1.0  0.80874  0.86906  0.46616  1.0000 -0.1794834352
C   C9        1.0  0.36240  0.60361  0.02666  1.0000 0.1203384297
C   C10       1.0  0.63760  0.39639  0.97334  1.0000 0.1203384297
C   C11       1.0  0.63760  0.60361  0.47334  1.0000 0.1203384297
C   C12       1.0  0.36240  0.39639  0.52666  1.0000 0.1203384297
C   C13       1.0  0.86240  0.10361  0.02666  1.0000 0.1203384297
C   C14       1.0  0.13760  0.89639  0.97334  1.0000 0.1203384297
C   C15       1.0  0.13760  0.10361  0.47334  1.0000 0.1203384297
C   C16       1.0  0.86240  0.89639  0.52666  1.0000 0.1203384297
C   C17       1.0  0.44326  0.63007  0.02849  1.0000 -0.1870206679
C   C18       1.0  0.55674  0.36993  0.97151  1.0000 -0.1870206679
C   C19       1.0  0.55674  0.63007  0.47151  1.0000 -0.1870206679
C   C20       1.0  0.44326  0.36993  0.52849  1.0000 -0.1870206679
C   C21       1.0  0.94326  0.13007  0.02849  1.0000 -0.1870206679
C   C22       1.0  0.05674  0.86993  0.97151  1.0000 -0.1870206679
C   C23       1.0  0.05674  0.13007  0.47151  1.0000 -0.1870206679
C   C24       1.0  0.94326  0.86993  0.52849  1.0000 -0.1870206679
C   C25       1.0  0.46698  0.68120  0.97146  1.0000 0.0987154723
C   C26       1.0  0.53302  0.31880  0.02854  1.0000 0.0987154723
C   C27       1.0  0.53302  0.68120  0.52854  1.0000 0.0987154723
C   C28       1.0  0.46698  0.31880  0.47146  1.0000 0.0987154723
C   C29       1.0  0.96698  0.18120  0.97146  1.0000 0.0987154723
C   C30       1.0  0.03302  0.81880  0.02854  1.0000 0.0987154723
C   C31       1.0  0.03302  0.18120  0.52854  1.0000 0.0987154723
C   C32       1.0  0.96698  0.81880  0.47146  1.0000 0.0987154723
C   C33       1.0  0.33675  0.68158  0.91083  1.0000 0.1076964332
C   C34       1.0  0.66325  0.31842  0.08917  1.0000 0.1076964332
C   C35       1.0  0.66325  0.68158  0.58917  1.0000 0.1076964332
C   C36       1.0  0.33675  0.31842  0.41083  1.0000 0.1076964332
C   C37       1.0  0.83675  0.18158  0.91083  1.0000 0.1076964332
C   C38       1.0  0.16325  0.81842  0.08917  1.0000 0.1076964332
C   C39       1.0  0.16325  0.18158  0.58917  1.0000 0.1076964332
C   C40       1.0  0.83675  0.81842  0.41083  1.0000 0.1076964332
C   C41       1.0  0.34919  0.41790  0.17092  1.0000 -0.0169697367
C   C42       1.0  0.65081  0.58210  0.82908  1.0000 -0.0169697367
C   C43       1.0  0.65081  0.41790  0.32908  1.0000 -0.0169697367
C   C44       1.0  0.34919  0.58210  0.67092  1.0000 -0.0169697367
C   C45       1.0  0.84919  0.91790  0.17092  1.0000 -0.0169697367
C   C46       1.0  0.15081  0.08210  0.82908  1.0000 -0.0169697367
C   C47       1.0  0.15081  0.91790  0.32908  1.0000 -0.0169697367
C   C48       1.0  0.84919  0.08210  0.67092  1.0000 -0.0169697367
C   C49       1.0  0.27997  0.44786  0.20015  1.0000 -0.1133762012
C   C50       1.0  0.72003  0.55214  0.79985  1.0000 -0.1133762012
C   C51       1.0  0.72003  0.44786  0.29985  1.0000 -0.1133762012
C   C52       1.0  0.27997  0.55214  0.70015  1.0000 -0.1133762012
C   C53       1.0  0.77997  0.94786  0.20015  1.0000 -0.1133762012
C   C54       1.0  0.22003  0.05214  0.79985  1.0000 -0.1133762012
C   C55       1.0  0.22003  0.94786  0.29985  1.0000 -0.1133762012
C   C56       1.0  0.77997  0.05214  0.70015  1.0000 -0.1133762012
C   C57       1.0  0.23688  0.52780  0.17144  1.0000 -0.0009807632
C   C58       1.0  0.76312  0.47220  0.82856  1.0000 -0.0009807632
C   C59       1.0  0.76312  0.52780  0.32856  1.0000 -0.0009807632
C   C60       1.0  0.23688  0.47220  0.67144  1.0000 -0.0009807632
C   C61       1.0  0.73688  0.02780  0.17144  1.0000 -0.0009807632
C   C62       1.0  0.26312  0.97220  0.82856  1.0000 -0.0009807632
C   C63       1.0  0.26312  0.02780  0.32856  1.0000 -0.0009807632
C   C64       1.0  0.73688  0.97220  0.67144  1.0000 -0.0009807632
C   C65       1.0  0.26382  0.57614  0.11378  1.0000 -0.1279734942
C   C66       1.0  0.73618  0.42386  0.88622  1.0000 -0.1279734942
C   C67       1.0  0.73618  0.57614  0.38622  1.0000 -0.1279734942
C   C68       1.0  0.26382  0.42386  0.61378  1.0000 -0.1279734942
C   C69       1.0  0.76382  0.07614  0.11378  1.0000 -0.1279734942
C   C70       1.0  0.23618  0.92386  0.88622  1.0000 -0.1279734942
C   C71       1.0  0.23618  0.07614  0.38622  1.0000 -0.1279734942
C   C72       1.0  0.76382  0.92386  0.61378  1.0000 -0.1279734942
C   C73       1.0  0.33415  0.54942  0.08602  1.0000 0.0471946378
C   C74       1.0  0.66585  0.45058  0.91398  1.0000 0.0471946378
C   C75       1.0  0.66585  0.54942  0.41398  1.0000 0.0471946378
C   C76       1.0  0.33415  0.45058  0.58602  1.0000 0.0471946378
C   C77       1.0  0.83415  0.04942  0.08602  1.0000 0.0471946378
C   C78       1.0  0.16585  0.95058  0.91398  1.0000 0.0471946378
C   C79       1.0  0.16585  0.04942  0.41398  1.0000 0.0471946378
C   C80       1.0  0.83415  0.95058  0.58602  1.0000 0.0471946378
C   C81       1.0  0.37658  0.47011  0.11535  1.0000 -0.1392373341
C   C82       1.0  0.62342  0.52989  0.88465  1.0000 -0.1392373341
C   C83       1.0  0.62342  0.47011  0.38465  1.0000 -0.1392373341
C   C84       1.0  0.37658  0.52989  0.61535  1.0000 -0.1392373341
C   C85       1.0  0.87658  0.97011  0.11535  1.0000 -0.1392373341
C   C86       1.0  0.12342  0.02989  0.88465  1.0000 -0.1392373341
C   C87       1.0  0.12342  0.97011  0.38465  1.0000 -0.1392373341
C   C88       1.0  0.87658  0.02989  0.61535  1.0000 -0.1392373341
C   C89       1.0  0.39799  0.33288  0.19911  1.0000 0.5961187957
C   C90       1.0  0.60201  0.66712  0.80089  1.0000 0.5961187957
C   C91       1.0  0.60201  0.33288  0.30089  1.0000 0.5961187957
C   C92       1.0  0.39799  0.66712  0.69911  1.0000 0.5961187957
C   C93       1.0  0.89799  0.83288  0.19911  1.0000 0.5961187957
C   C94       1.0  0.10201  0.16712  0.80089  1.0000 0.5961187957
C   C95       1.0  0.10201  0.83288  0.30089  1.0000 0.5961187957
C   C96       1.0  0.89799  0.16712  0.69911  1.0000 0.5961187957
C   C97       1.0  0.16265  0.56497  0.20310  1.0000 0.5701572624
C   C98       1.0  0.83735  0.43503  0.79690  1.0000 0.5701572624
C   C99       1.0  0.83735  0.56497  0.29690  1.0000 0.5701572624
C   C100      1.0  0.16265  0.43503  0.70310  1.0000 0.5701572624
C   C101      1.0  0.66265  0.06497  0.20310  1.0000 0.5701572624
C   C102      1.0  0.33735  0.93503  0.79690  1.0000 0.5701572624
C   C103      1.0  0.33735  0.06497  0.29690  1.0000 0.5701572624
C   C104      1.0  0.66265  0.93503  0.70310  1.0000 0.5701572624
N   N1        1.0  0.41505  0.70680  0.91291  1.0000 -0.2167042243
N   N2        1.0  0.58495  0.29320  0.08709  1.0000 -0.2167042243
N   N3        1.0  0.58495  0.70680  0.58709  1.0000 -0.2167042243
N   N4        1.0  0.41505  0.29320  0.41291  1.0000 -0.2167042243
N   N5        1.0  0.91505  0.20680  0.91291  1.0000 -0.2167042243
N   N6        1.0  0.08495  0.79320  0.08709  1.0000 -0.2167042243
N   N7        1.0  0.08495  0.20680  0.58709  1.0000 -0.2167042243
N   N8        1.0  0.91505  0.79320  0.41291  1.0000 -0.2167042243
O   O1        1.0  0.12545  0.63266  0.16211  1.0000 -0.5794271389
O   O2        1.0  0.87455  0.36734  0.83789  1.0000 -0.5794271389
O   O3        1.0  0.87455  0.63266  0.33789  1.0000 -0.5794271389
O   O4        1.0  0.12545  0.36734  0.66211  1.0000 -0.5794271389
O   O5        1.0  0.62545  0.13266  0.16211  1.0000 -0.5794271389
O   O6        1.0  0.37455  0.86734  0.83789  1.0000 -0.5794271389
O   O7        1.0  0.37455  0.13266  0.33789  1.0000 -0.5794271389
O   O8        1.0  0.62545  0.86734  0.66211  1.0000 -0.5794271389
O   O9        1.0  0.14391  0.53272  0.25972  1.0000 -0.5032434436
O   O10       1.0  0.85609  0.46728  0.74028  1.0000 -0.5032434436
O   O11       1.0  0.85609  0.53272  0.24028  1.0000 -0.5032434436
O   O12       1.0  0.14391  0.46728  0.75972  1.0000 -0.5103047246
O   O13       1.0  0.64391  0.03272  0.25972  1.0000 -0.5032434436
O   O14       1.0  0.35609  0.96728  0.74028  1.0000 -0.5032434436
O   O15       1.0  0.35609  0.03272  0.24028  1.0000 -0.5103047246
O   O16       1.0  0.64391  0.96728  0.75972  1.0000 -0.5103047246
O   O17       1.0  0.45334  0.30305  0.16306  1.0000 -0.5794271389
O   O18       1.0  0.54666  0.69695  0.83694  1.0000 -0.5794271389
O   O19       1.0  0.54666  0.30305  0.33694  1.0000 -0.5794271389
O   O20       1.0  0.45334  0.69695  0.66306  1.0000 -0.5794271389
O   O21       1.0  0.95334  0.80305  0.16306  1.0000 -0.5794271389
O   O22       1.0  0.04666  0.19695  0.83694  1.0000 -0.5794271389
O   O23       1.0  0.04666  0.80305  0.33694  1.0000 -0.5794271389
O   O24       1.0  0.95334  0.19695  0.66306  1.0000 -0.5794271389
O   O25       1.0  0.38024  0.29720  0.25741  1.0000 -0.5103047246
O   O26       1.0  0.61976  0.70280  0.74259  1.0000 -0.5103047246
O   O27       1.0  0.61976  0.29720  0.24259  1.0000 -0.5103047246
O   O28       1.0  0.38024  0.70280  0.75741  1.0000 -0.5103047246
O   O29       1.0  0.88024  0.79720  0.25741  1.0000 -0.5103047246
O   O30       1.0  0.11976  0.20280  0.74259  1.0000 -0.5103047246
O   O31       1.0  0.11976  0.79720  0.24259  1.0000 -0.5103047246
O   O32       1.0  0.88024  0.20280  0.75741  1.0000 -0.5103047246
