# DDEC6 charges by PACMAN v1.1 (https://github.com/mtap-research/PACMAN-charge/)
data_2013[Zn][dia]3[ASR]15
_chemical_formula_sum              "Zn4 H72 C104 N8 O16"
_cell_length_a       26.4842
_cell_length_b       5.891
_cell_length_c       21.471
_cell_angle_alpha    90
_cell_angle_beta     111.538
_cell_angle_gamma    90

_symmetry_space_group_name_H-M    "P 1"
_symmetry_Int_Tables_number       1

loop_
  _symmetry_equiv_pos_as_xyz
  'x, y, z'

loop_
  _atom_site_type_symbol
  _atom_site_label
  _atom_site_symmetry_multiplicity
  _atom_site_fract_x
  _atom_site_fract_y
  _atom_site_fract_z
  _atom_site_occupancy
  _atom_site_charge
Zn  Zn1       1.0  0.00000  0.68505  0.25000  1.0000 0.7595724518
Zn  Zn2       1.0  0.00000  0.31495  0.75000  1.0000 0.7595724518
Zn  Zn3       1.0  0.50000  0.18505  0.25000  1.0000 0.7595724518
Zn  Zn4       1.0  0.50000  0.81495  0.75000  1.0000 0.7595724518
H   H1        1.0  0.09105  0.14556  0.39090  1.0000 0.0908129372
H   H2        1.0  0.90895  0.85444  0.60910  1.0000 0.0908129372
H   H3        1.0  0.90895  0.14556  0.10910  1.0000 0.0908129372
H   H4        1.0  0.09105  0.85444  0.89090  1.0000 0.0908129372
H   H5        1.0  0.59105  0.64556  0.39090  1.0000 0.0908129372
H   H6        1.0  0.40895  0.35444  0.60910  1.0000 0.0908129372
H   H7        1.0  0.40895  0.64556  0.10910  1.0000 0.0908129372
H   H8        1.0  0.59105  0.35444  0.89090  1.0000 0.0908129372
H   H9        1.0  0.15966  0.35806  0.48315  1.0000 0.0908129372
H   H10       1.0  0.84034  0.64194  0.51685  1.0000 0.0908129372
H   H11       1.0  0.84034  0.35806  0.01685  1.0000 0.0908129372
H   H12       1.0  0.15966  0.64194  0.98315  1.0000 0.0908129372
H   H13       1.0  0.65966  0.85806  0.48315  1.0000 0.0908129372
H   H14       1.0  0.34034  0.14194  0.51685  1.0000 0.0908129372
H   H15       1.0  0.34034  0.85806  0.01685  1.0000 0.0908129372
H   H16       1.0  0.65966  0.14194  0.98315  1.0000 0.0908129372
H   H17       1.0  0.93939  0.26106  0.24914  1.0000 0.0993230807
H   H18       1.0  0.06061  0.73894  0.75086  1.0000 0.0993230807
H   H19       1.0  0.06061  0.26106  0.25086  1.0000 0.0993230807
H   H20       1.0  0.93939  0.73894  0.74914  1.0000 0.0993230807
H   H21       1.0  0.43939  0.76106  0.24914  1.0000 0.0993230807
H   H22       1.0  0.56061  0.23894  0.75086  1.0000 0.0993230807
H   H23       1.0  0.56061  0.76106  0.25086  1.0000 0.0993230807
H   H24       1.0  0.43939  0.23894  0.74914  1.0000 0.0993230807
H   H25       1.0  0.93210  0.98044  0.33333  1.0000 0.1293957065
H   H26       1.0  0.06790  0.01956  0.66667  1.0000 0.1293957065
H   H27       1.0  0.06790  0.98044  0.16670  1.0000 0.1293957065
H   H28       1.0  0.93210  0.01956  0.83330  1.0000 0.1293957065
H   H29       1.0  0.43210  0.48044  0.33333  1.0000 0.1293957065
H   H30       1.0  0.56790  0.51956  0.66667  1.0000 0.1293957065
H   H31       1.0  0.56790  0.48044  0.16670  1.0000 0.1293957065
H   H32       1.0  0.43210  0.51956  0.83330  1.0000 0.1293957065
H   H33       1.0  0.04466  0.40393  0.48880  1.0000 0.1157920774
H   H34       1.0  0.95534  0.59607  0.51120  1.0000 0.1157920774
H   H35       1.0  0.95534  0.40393  0.01120  1.0000 0.1157920774
H   H36       1.0  0.04466  0.59607  0.98880  1.0000 0.1157920774
H   H37       1.0  0.54466  0.90393  0.48880  1.0000 0.1157920774
H   H38       1.0  0.45534  0.09607  0.51120  1.0000 0.1157920774
H   H39       1.0  0.45534  0.90393  0.01120  1.0000 0.1157920774
H   H40       1.0  0.54466  0.09607  0.98880  1.0000 0.1157920774
H   H41       1.0  0.04833  0.66377  0.39774  1.0000 0.0993230807
H   H42       1.0  0.95167  0.33623  0.60226  1.0000 0.0993230807
H   H43       1.0  0.95167  0.66377  0.10226  1.0000 0.0993230807
H   H44       1.0  0.04833  0.33623  0.89774  1.0000 0.0993230807
H   H45       1.0  0.54833  0.16377  0.39774  1.0000 0.0993230807
H   H46       1.0  0.45167  0.83623  0.60226  1.0000 0.0993230807
H   H47       1.0  0.45167  0.16377  0.10226  1.0000 0.0993230807
H   H48       1.0  0.54833  0.83623  0.89774  1.0000 0.0993230807
H   H49       1.0  0.95597  0.86175  0.44504  1.0000 0.1054171602
H   H50       1.0  0.04403  0.13825  0.55496  1.0000 0.1054171602
H   H51       1.0  0.04403  0.86175  0.05496  1.0000 0.1054171602
H   H52       1.0  0.95597  0.13825  0.94504  1.0000 0.1054171602
H   H53       1.0  0.45597  0.36175  0.44504  1.0000 0.1054171602
H   H54       1.0  0.54403  0.63825  0.55496  1.0000 0.1054171602
H   H55       1.0  0.54403  0.36175  0.05496  1.0000 0.1054171602
H   H56       1.0  0.45597  0.63825  0.94504  1.0000 0.1054171602
H   H57       1.0  0.28720  0.02133  0.43610  1.0000 0.0908129372
H   H58       1.0  0.71280  0.97867  0.56390  1.0000 0.0908129372
H   H59       1.0  0.71280  0.02133  0.06390  1.0000 0.0908129372
H   H60       1.0  0.28720  0.97867  0.93610  1.0000 0.0908129372
H   H61       1.0  0.78720  0.52133  0.43610  1.0000 0.0908129372
H   H62       1.0  0.21280  0.47867  0.56390  1.0000 0.0908129372
H   H63       1.0  0.21280  0.52133  0.06390  1.0000 0.0908129372
H   H64       1.0  0.78720  0.47867  0.93610  1.0000 0.0908129372
H   H65       1.0  0.21648  0.81132  0.34401  1.0000 0.1157920774
H   H66       1.0  0.78352  0.18868  0.65599  1.0000 0.1157920774
H   H67       1.0  0.78352  0.81132  0.15599  1.0000 0.1157920774
H   H68       1.0  0.21648  0.18868  0.84401  1.0000 0.1157920774
H   H69       1.0  0.71648  0.31132  0.34401  1.0000 0.1157920774
H   H70       1.0  0.28352  0.68868  0.65599  1.0000 0.1157920774
H   H71       1.0  0.28352  0.31132  0.15599  1.0000 0.1157920774
H   H72       1.0  0.71648  0.68868  0.84401  1.0000 0.1157920774
C   C1        1.0  0.10800  0.81538  0.31452  1.0000 0.547403341
C   C2        1.0  0.89200  0.18462  0.68548  1.0000 0.547403341
C   C3        1.0  0.89200  0.81538  0.18548  1.0000 0.547403341
C   C4        1.0  0.10800  0.18462  0.81452  1.0000 0.547403341
C   C5        1.0  0.60800  0.31538  0.31452  1.0000 0.547403341
C   C6        1.0  0.39200  0.68462  0.68548  1.0000 0.547403341
C   C7        1.0  0.39200  0.31538  0.18548  1.0000 0.547403341
C   C8        1.0  0.60800  0.68462  0.81452  1.0000 0.547403341
C   C9        1.0  0.15003  0.95808  0.36471  1.0000 -0.0371954391
C   C10       1.0  0.84997  0.04192  0.63529  1.0000 -0.0371954391
C   C11       1.0  0.84997  0.95808  0.13529  1.0000 -0.0371954391
C   C12       1.0  0.15003  0.04192  0.86471  1.0000 -0.0371954391
C   C13       1.0  0.65003  0.45808  0.36471  1.0000 -0.0371954391
C   C14       1.0  0.34997  0.54192  0.63529  1.0000 -0.0371954391
C   C15       1.0  0.34997  0.45808  0.13529  1.0000 -0.0371954391
C   C16       1.0  0.65003  0.54192  0.86471  1.0000 -0.0371954391
C   C17       1.0  0.13441  0.11803  0.40276  1.0000 -0.0865006168
C   C18       1.0  0.86559  0.88197  0.59724  1.0000 -0.0865006168
C   C19       1.0  0.86559  0.11803  0.09724  1.0000 -0.0865006168
C   C20       1.0  0.13441  0.88197  0.90276  1.0000 -0.0865006168
C   C21       1.0  0.63441  0.61803  0.40276  1.0000 -0.0865006168
C   C22       1.0  0.36559  0.38197  0.59724  1.0000 -0.0865006168
C   C23       1.0  0.36559  0.61803  0.09724  1.0000 -0.0865006168
C   C24       1.0  0.63441  0.38197  0.90276  1.0000 -0.0865006168
C   C25       1.0  0.17337  0.23429  0.45472  1.0000 -0.1277936652
C   C26       1.0  0.82663  0.76571  0.54528  1.0000 -0.1277936652
C   C27       1.0  0.82663  0.23429  0.04528  1.0000 -0.1277936652
C   C28       1.0  0.17337  0.76571  0.95472  1.0000 -0.1277936652
C   C29       1.0  0.67337  0.73429  0.45472  1.0000 -0.1277936652
C   C30       1.0  0.32663  0.26571  0.54528  1.0000 -0.1277936652
C   C31       1.0  0.32663  0.73429  0.04528  1.0000 -0.1277936652
C   C32       1.0  0.67337  0.26571  0.95472  1.0000 -0.1277936652
C   C33       1.0  0.22946  0.19481  0.47079  1.0000 0.0737502126
C   C34       1.0  0.77054  0.80519  0.52921  1.0000 0.0737502126
C   C35       1.0  0.77054  0.19481  0.02921  1.0000 0.0737502126
C   C36       1.0  0.22946  0.80519  0.97079  1.0000 0.0737502126
C   C37       1.0  0.72946  0.69481  0.47079  1.0000 0.0737502126
C   C38       1.0  0.27054  0.30519  0.52921  1.0000 0.0737502126
C   C39       1.0  0.27054  0.69481  0.02921  1.0000 0.0737502126
C   C40       1.0  0.72946  0.30519  0.97079  1.0000 0.0737502126
C   C41       1.0  0.24436  0.04677  0.42847  1.0000 -0.1277936652
C   C42       1.0  0.75564  0.95323  0.57153  1.0000 -0.1277936652
C   C43       1.0  0.75564  0.04677  0.07153  1.0000 -0.1277936652
C   C44       1.0  0.24436  0.95323  0.92847  1.0000 -0.1277936652
C   C45       1.0  0.74436  0.54677  0.42847  1.0000 -0.1277936652
C   C46       1.0  0.25564  0.45323  0.57153  1.0000 -0.1277936652
C   C47       1.0  0.25564  0.54677  0.07153  1.0000 -0.1277936652
C   C48       1.0  0.74436  0.45323  0.92847  1.0000 -0.1277936652
C   C49       1.0  0.20537  0.92833  0.37664  1.0000 -0.0865006168
C   C50       1.0  0.79463  0.07167  0.62336  1.0000 -0.0865006168
C   C51       1.0  0.79463  0.92833  0.12336  1.0000 -0.0865006168
C   C52       1.0  0.20537  0.07167  0.87664  1.0000 -0.0865006168
C   C53       1.0  0.70537  0.42833  0.37664  1.0000 -0.0865006168
C   C54       1.0  0.29463  0.57167  0.62336  1.0000 -0.0865006168
C   C55       1.0  0.29463  0.42833  0.12336  1.0000 -0.0865006168
C   C56       1.0  0.70537  0.57167  0.87664  1.0000 -0.0865006168
C   C57       1.0  0.96178  0.28594  0.30279  1.0000 0.1293957065
C   C58       1.0  0.03822  0.71406  0.69721  1.0000 0.1293957065
C   C59       1.0  0.03822  0.28594  0.19721  1.0000 0.1293957065
C   C60       1.0  0.96178  0.71406  0.80279  1.0000 0.1293957065
C   C61       1.0  0.46178  0.78594  0.30279  1.0000 0.1293957065
C   C62       1.0  0.53822  0.21406  0.69721  1.0000 0.1293957065
C   C63       1.0  0.53822  0.78594  0.19721  1.0000 0.1293957065
C   C64       1.0  0.46178  0.21406  0.80279  1.0000 0.1293957065
C   C65       1.0  0.95789  0.13092  0.34982  1.0000 -0.1616379415
C   C66       1.0  0.04211  0.86908  0.65018  1.0000 -0.1616379415
C   C67       1.0  0.04211  0.13092  0.15018  1.0000 -0.1616379415
C   C68       1.0  0.95789  0.86908  0.84982  1.0000 -0.1616379415
C   C69       1.0  0.45789  0.63092  0.34982  1.0000 -0.1616379415
C   C70       1.0  0.54211  0.36908  0.65018  1.0000 -0.1616379415
C   C71       1.0  0.54211  0.63092  0.15018  1.0000 -0.1616379415
C   C72       1.0  0.45789  0.36908  0.84982  1.0000 -0.1616379415
C   C73       1.0  0.98791  0.16849  0.41852  1.0000 0.1433663721
C   C74       1.0  0.01209  0.83151  0.58148  1.0000 0.1433663721
C   C75       1.0  0.01209  0.16849  0.08148  1.0000 0.1433663721
C   C76       1.0  0.98791  0.83151  0.91852  1.0000 0.1433663721
C   C77       1.0  0.48791  0.66849  0.41852  1.0000 0.1433663721
C   C78       1.0  0.51209  0.33151  0.58148  1.0000 0.1433663721
C   C79       1.0  0.51209  0.66849  0.08148  1.0000 0.1433663721
C   C80       1.0  0.48791  0.33151  0.91852  1.0000 0.1433663721
C   C81       1.0  0.02033  0.36564  0.43640  1.0000 -0.1822491066
C   C82       1.0  0.97967  0.63436  0.56360  1.0000 -0.1822491066
C   C83       1.0  0.97967  0.36564  0.06360  1.0000 -0.1822491066
C   C84       1.0  0.02033  0.63436  0.93640  1.0000 -0.1822491066
C   C85       1.0  0.52033  0.86564  0.43640  1.0000 -0.1822491066
C   C86       1.0  0.47967  0.13436  0.56360  1.0000 -0.1822491066
C   C87       1.0  0.47967  0.86564  0.06360  1.0000 -0.1822491066
C   C88       1.0  0.52033  0.13436  0.93640  1.0000 -0.1822491066
C   C89       1.0  0.02247  0.51206  0.38681  1.0000 0.0908129372
C   C90       1.0  0.97753  0.48794  0.61319  1.0000 0.0908129372
C   C91       1.0  0.97753  0.51206  0.11319  1.0000 0.0908129372
C   C92       1.0  0.02247  0.48794  0.88681  1.0000 0.0908129372
C   C93       1.0  0.52247  0.01206  0.38681  1.0000 0.0908129372
C   C94       1.0  0.47753  0.98794  0.61319  1.0000 0.0908129372
C   C95       1.0  0.47753  0.01206  0.11319  1.0000 0.0908129372
C   C96       1.0  0.52247  0.98794  0.88681  1.0000 0.0908129372
C   C97       1.0  0.98487  0.99981  0.46663  1.0000 -0.1184007247
C   C98       1.0  0.01513  0.00019  0.53337  1.0000 -0.1184007247
C   C99       1.0  0.01513  0.99981  0.03337  1.0000 -0.1184007247
C   C100      1.0  0.98487  0.00019  0.96663  1.0000 -0.1184007247
C   C101      1.0  0.48487  0.49981  0.46663  1.0000 -0.1184007247
C   C102      1.0  0.51513  0.50019  0.53337  1.0000 -0.1184007247
C   C103      1.0  0.51513  0.49981  0.03337  1.0000 -0.1184007247
C   C104      1.0  0.48487  0.50019  0.96663  1.0000 -0.1184007247
N   N1        1.0  0.99348  0.47313  0.32060  1.0000 -0.2494235133
N   N2        1.0  0.00652  0.52687  0.67940  1.0000 -0.2494235133
N   N3        1.0  0.00652  0.47313  0.17940  1.0000 -0.2494235133
N   N4        1.0  0.99348  0.52687  0.82060  1.0000 -0.2494235133
N   N5        1.0  0.49348  0.97313  0.32060  1.0000 -0.2494235133
N   N6        1.0  0.50652  0.02687  0.67940  1.0000 -0.2494235133
N   N7        1.0  0.50652  0.97313  0.17940  1.0000 -0.2494235133
N   N8        1.0  0.49348  0.02687  0.82060  1.0000 -0.2494235133
O   O1        1.0  0.05781  0.88526  0.30352  1.0000 -0.5766724889
O   O2        1.0  0.94219  0.11474  0.69648  1.0000 -0.5766724889
O   O3        1.0  0.94219  0.88526  0.19648  1.0000 -0.5766724889
O   O4        1.0  0.05781  0.11474  0.80352  1.0000 -0.5766724889
O   O5        1.0  0.55781  0.38526  0.30352  1.0000 -0.5766724889
O   O6        1.0  0.44219  0.61474  0.69648  1.0000 -0.5766724889
O   O7        1.0  0.44219  0.38526  0.19648  1.0000 -0.5766724889
O   O8        1.0  0.55781  0.61474  0.80352  1.0000 -0.5766724889
O   O9        1.0  0.12019  0.64611  0.28794  1.0000 -0.5478290116
O   O10       1.0  0.87981  0.35389  0.71206  1.0000 -0.5478290116
O   O11       1.0  0.87981  0.64611  0.21206  1.0000 -0.5478290116
O   O12       1.0  0.12019  0.35389  0.78794  1.0000 -0.5478290116
O   O13       1.0  0.62019  0.14611  0.28794  1.0000 -0.5478290116
O   O14       1.0  0.37981  0.85389  0.71206  1.0000 -0.5478290116
O   O15       1.0  0.37981  0.14611  0.21206  1.0000 -0.5478290116
O   O16       1.0  0.62019  0.85389  0.78794  1.0000 -0.5478290116
