# DDEC6 charges by PACMAN v1.1 (https://github.com/mtap-research/PACMAN-charge/)
data_2013[Ni][ins]3[ASR]1
_chemical_formula_sum              "Ni4 H88 C136 N16 O16"
_cell_length_a       8.3722
_cell_length_b       34.923
_cell_length_c       11.4888
_cell_angle_alpha    90
_cell_angle_beta     105.59
_cell_angle_gamma    90

_symmetry_space_group_name_H-M    "P 1"
_symmetry_Int_Tables_number       1

loop_
  _symmetry_equiv_pos_as_xyz
  'x, y, z'

loop_
  _atom_site_type_symbol
  _atom_site_label
  _atom_site_symmetry_multiplicity
  _atom_site_fract_x
  _atom_site_fract_y
  _atom_site_fract_z
  _atom_site_occupancy
  _atom_site_charge
Ni  Ni1       1.0  0.47694  0.85140  0.50910  1.0000 0.671565257
Ni  Ni2       1.0  0.52306  0.35140  0.99090  1.0000 0.671565257
Ni  Ni3       1.0  0.52306  0.14860  0.49090  1.0000 0.671565257
Ni  Ni4       1.0  0.47694  0.64860  0.00910  1.0000 0.671565257
H   H1        1.0  0.86760  0.78090  0.78440  1.0000 0.1100493793
H   H2        1.0  0.13240  0.28090  0.71560  1.0000 0.1100493793
H   H3        1.0  0.13240  0.21910  0.21560  1.0000 0.1100493793
H   H4        1.0  0.86760  0.71910  0.28440  1.0000 0.1100493793
H   H5        1.0  0.17090  0.77360  0.87660  1.0000 0.1305652971
H   H6        1.0  0.82910  0.27360  0.62340  1.0000 0.1305652971
H   H7        1.0  0.82910  0.22640  0.12340  1.0000 0.1305652971
H   H8        1.0  0.17090  0.72640  0.37660  1.0000 0.1305652971
H   H9        1.0  0.37910  0.72970  0.89650  1.0000 0.1100493793
H   H10       1.0  0.62090  0.22970  0.60350  1.0000 0.1100493793
H   H11       1.0  0.62090  0.27030  0.10350  1.0000 0.1100493793
H   H12       1.0  0.37910  0.77030  0.39650  1.0000 0.1100493793
H   H13       1.0  0.18810  0.66470  0.09860  1.0000 0.1193265343
H   H14       1.0  0.81190  0.16470  0.40140  1.0000 0.1193265343
H   H15       1.0  0.81190  0.33530  0.90140  1.0000 0.1193265343
H   H16       1.0  0.18810  0.83530  0.59860  1.0000 0.1193265343
H   H17       1.0  0.97820  0.70750  0.08950  1.0000 0.1355405226
H   H18       1.0  0.02180  0.20750  0.41050  1.0000 0.1355405226
H   H19       1.0  0.02180  0.29250  0.91050  1.0000 0.1355405226
H   H20       1.0  0.97820  0.79250  0.58950  1.0000 0.1355405226
H   H21       1.0  0.89330  0.77160  0.13600  1.0000 0.1193265343
H   H22       1.0  0.10670  0.27160  0.36400  1.0000 0.1193265343
H   H23       1.0  0.10670  0.22840  0.86400  1.0000 0.1193265343
H   H24       1.0  0.89330  0.72840  0.63600  1.0000 0.1193265343
H   H25       1.0  0.53260  0.83430  0.91870  1.0000 0.1193265343
H   H26       1.0  0.46740  0.33430  0.58130  1.0000 0.1193265343
H   H27       1.0  0.46740  0.16570  0.08130  1.0000 0.1193265343
H   H28       1.0  0.53260  0.66570  0.41870  1.0000 0.1193265343
H   H29       1.0  0.86780  0.81770  0.27530  1.0000 0.1355405226
H   H30       1.0  0.13220  0.31770  0.22470  1.0000 0.1355405226
H   H31       1.0  0.13220  0.18230  0.72470  1.0000 0.1355405226
H   H32       1.0  0.86780  0.68230  0.77530  1.0000 0.1355405226
H   H33       1.0  0.77350  0.83650  0.43470  1.0000 0.1100493793
H   H34       1.0  0.22650  0.33650  0.06530  1.0000 0.1100493793
H   H35       1.0  0.22650  0.16350  0.56530  1.0000 0.1100493793
H   H36       1.0  0.77350  0.66350  0.93470  1.0000 0.1100493793
H   H37       1.0  0.31720  0.83700  0.23450  1.0000 0.1193265343
H   H38       1.0  0.68280  0.33700  0.26550  1.0000 0.1193265343
H   H39       1.0  0.68280  0.16300  0.76550  1.0000 0.1193265343
H   H40       1.0  0.31720  0.66300  0.73450  1.0000 0.1193265343
H   H41       1.0  0.39890  0.81930  0.06830  1.0000 0.1305652971
H   H42       1.0  0.60110  0.31930  0.43170  1.0000 0.1305652971
H   H43       1.0  0.60110  0.18070  0.93170  1.0000 0.1305652971
H   H44       1.0  0.39890  0.68070  0.56830  1.0000 0.1305652971
H   H45       1.0  0.85270  0.90660  0.24910  1.0000 0.1100493793
H   H46       1.0  0.14730  0.40660  0.25090  1.0000 0.1100493793
H   H47       1.0  0.14730  0.09340  0.75090  1.0000 0.1100493793
H   H48       1.0  0.85270  0.59340  0.74910  1.0000 0.1100493793
H   H49       1.0  0.85210  0.02100  0.26330  1.0000 0.1100493793
H   H50       1.0  0.14790  0.52100  0.23670  1.0000 0.1100493793
H   H51       1.0  0.14790  0.97900  0.73670  1.0000 0.1100493793
H   H52       1.0  0.85210  0.47900  0.76330  1.0000 0.1100493793
H   H53       1.0  0.26140  0.96240  0.43180  1.0000 0.1100493793
H   H54       1.0  0.73860  0.46240  0.06820  1.0000 0.1100493793
H   H55       1.0  0.73860  0.03760  0.56820  1.0000 0.1100493793
H   H56       1.0  0.26140  0.53760  0.93180  1.0000 0.1100493793
H   H57       1.0  0.32580  0.01530  0.54280  1.0000 0.1193265343
H   H58       1.0  0.67420  0.51530  0.95720  1.0000 0.1305652971
H   H59       1.0  0.67420  0.98470  0.45720  1.0000 0.1305652971
H   H60       1.0  0.32580  0.48470  0.04280  1.0000 0.1193265343
H   H61       1.0  0.47130  0.07060  0.59050  1.0000 0.1100493793
H   H62       1.0  0.52870  0.57060  0.90950  1.0000 0.1100493793
H   H63       1.0  0.52870  0.92940  0.40950  1.0000 0.1100493793
H   H64       1.0  0.47130  0.42940  0.09050  1.0000 0.1100493793
H   H65       1.0  0.19130  0.12180  0.31160  1.0000 0.1100493793
H   H66       1.0  0.80870  0.62180  0.18840  1.0000 0.1100493793
H   H67       1.0  0.80870  0.87820  0.68840  1.0000 0.1100493793
H   H68       1.0  0.19130  0.37820  0.81160  1.0000 0.1100493793
H   H69       1.0  0.03650  0.06820  0.25520  1.0000 0.1305652971
H   H70       1.0  0.96350  0.56820  0.24480  1.0000 0.1305652971
H   H71       1.0  0.96350  0.93180  0.74480  1.0000 0.1305652971
H   H72       1.0  0.03650  0.43180  0.75520  1.0000 0.1305652971
H   H73       1.0  0.63780  0.91330  0.09420  1.0000 0.1305652971
H   H74       1.0  0.36220  0.41330  0.40580  1.0000 0.1305652971
H   H75       1.0  0.36220  0.08670  0.90580  1.0000 0.1305652971
H   H76       1.0  0.63780  0.58670  0.59420  1.0000 0.1305652971
H   H77       1.0  0.35730  0.91300  0.00250  1.0000 0.1000144673
H   H78       1.0  0.64270  0.41300  0.49750  1.0000 0.1000144673
H   H79       1.0  0.64270  0.08700  0.99750  1.0000 0.1000144673
H   H80       1.0  0.35730  0.58700  0.50250  1.0000 0.1000144673
H   H81       1.0  0.30460  0.01150  0.13480  1.0000 0.1000144673
H   H82       1.0  0.69540  0.51150  0.36520  1.0000 0.1000144673
H   H83       1.0  0.69540  0.98850  0.86520  1.0000 0.1000144673
H   H84       1.0  0.30460  0.48850  0.63480  1.0000 0.1000144673
H   H85       1.0  0.58150  0.01500  0.23270  1.0000 0.1305652971
H   H86       1.0  0.41850  0.51500  0.26730  1.0000 0.1305652971
H   H87       1.0  0.41850  0.98500  0.76730  1.0000 0.1305652971
H   H88       1.0  0.58150  0.48500  0.73270  1.0000 0.1305652971
C   C1        1.0  0.60800  0.82607  0.71130  1.0000 0.5193536058
C   C2        1.0  0.39200  0.32607  0.78870  1.0000 0.5193536058
C   C3        1.0  0.39200  0.17393  0.28870  1.0000 0.5193536058
C   C4        1.0  0.60800  0.67393  0.21130  1.0000 0.5193536058
C   C5        1.0  0.68780  0.80985  0.83340  1.0000 -0.005567072
C   C6        1.0  0.31220  0.30985  0.66667  1.0000 -0.005567072
C   C7        1.0  0.31220  0.19015  0.16660  1.0000 -0.005567072
C   C8        1.0  0.68780  0.69015  0.33340  1.0000 -0.005567072
C   C9        1.0  0.82610  0.78665  0.84970  1.0000 -0.1668784346
C   C10       1.0  0.17390  0.28665  0.65030  1.0000 -0.1668784346
C   C11       1.0  0.17390  0.21335  0.15030  1.0000 -0.1668784346
C   C12       1.0  0.82610  0.71335  0.34970  1.0000 -0.1668784346
C   C13       1.0  0.90390  0.77174  0.96390  1.0000 0.0640652962
C   C14       1.0  0.09610  0.27174  0.53610  1.0000 0.0640652962
C   C15       1.0  0.09610  0.22826  0.03610  1.0000 0.0640652962
C   C16       1.0  0.90390  0.72826  0.46390  1.0000 0.0640652962
C   C17       1.0  0.04610  0.74551  0.97840  1.0000 0.1193265343
C   C18       1.0  0.95390  0.24551  0.52160  1.0000 0.1193265343
C   C19       1.0  0.95390  0.25449  0.02160  1.0000 0.1193265343
C   C20       1.0  0.04610  0.75449  0.47840  1.0000 0.1193265343
C   C21       1.0  0.17110  0.75162  0.92220  1.0000 -0.209758319
C   C22       1.0  0.82890  0.25162  0.57780  1.0000 -0.209758319
C   C23       1.0  0.82890  0.24838  0.07780  1.0000 -0.209758319
C   C24       1.0  0.17110  0.74838  0.42220  1.0000 -0.209758319
C   C25       1.0  0.29580  0.72488  0.93430  1.0000 0.0852421969
C   C26       1.0  0.70420  0.22488  0.56570  1.0000 0.0852421969
C   C27       1.0  0.70420  0.27512  0.06570  1.0000 0.0852421969
C   C28       1.0  0.29580  0.77512  0.43430  1.0000 0.0852421969
C   C29       1.0  0.18440  0.68694  0.05330  1.0000 0.1000144673
C   C30       1.0  0.81560  0.18694  0.44670  1.0000 0.1000144673
C   C31       1.0  0.81560  0.31306  0.94670  1.0000 0.1000144673
C   C32       1.0  0.18440  0.81306  0.55330  1.0000 0.1000144673
C   C33       1.0  0.05670  0.71239  0.04750  1.0000 -0.2010734333
C   C34       1.0  0.94330  0.21239  0.45250  1.0000 -0.2010734333
C   C35       1.0  0.94330  0.28761  0.95250  1.0000 -0.2010734333
C   C36       1.0  0.05670  0.78761  0.54750  1.0000 -0.2010734333
C   C37       1.0  0.84190  0.78135  0.05980  1.0000 -0.1622017716
C   C38       1.0  0.15810  0.28135  0.44020  1.0000 -0.1622017716
C   C39       1.0  0.15810  0.21865  0.94020  1.0000 -0.1622017716
C   C40       1.0  0.84190  0.71865  0.55980  1.0000 -0.1622017716
C   C41       1.0  0.70480  0.80508  0.04590  1.0000 0.0789330402
C   C42       1.0  0.29520  0.30508  0.45410  1.0000 0.0789330402
C   C43       1.0  0.29520  0.19492  0.95410  1.0000 0.0789330402
C   C44       1.0  0.70480  0.69492  0.54590  1.0000 0.0789330402
C   C45       1.0  0.62630  0.81897  0.93030  1.0000 -0.1668784346
C   C46       1.0  0.37370  0.31897  0.56970  1.0000 -0.1668784346
C   C47       1.0  0.37370  0.18103  0.06970  1.0000 -0.1668784346
C   C48       1.0  0.62630  0.68103  0.43030  1.0000 -0.1668784346
C   C49       1.0  0.64450  0.81620  0.15110  1.0000 0.1193265343
C   C50       1.0  0.35550  0.31620  0.34890  1.0000 0.1193265343
C   C51       1.0  0.35550  0.18380  0.84890  1.0000 0.1193265343
C   C52       1.0  0.64450  0.68380  0.65110  1.0000 0.1193265343
C   C53       1.0  0.75490  0.82162  0.26450  1.0000 -0.1864817292
C   C54       1.0  0.24510  0.32162  0.23550  1.0000 -0.1864817292
C   C55       1.0  0.24510  0.17838  0.73550  1.0000 -0.1864817292
C   C56       1.0  0.75490  0.67838  0.76450  1.0000 -0.1864817292
C   C57       1.0  0.69700  0.83271  0.36030  1.0000 0.0789330402
C   C58       1.0  0.30300  0.33271  0.13970  1.0000 0.0789330402
C   C59       1.0  0.30300  0.16729  0.63970  1.0000 0.0789330402
C   C60       1.0  0.69700  0.66729  0.86030  1.0000 0.0789330402
C   C61       1.0  0.42960  0.83316  0.24270  1.0000 0.0697189184
C   C62       1.0  0.57040  0.33316  0.25730  1.0000 0.0697189184
C   C63       1.0  0.57040  0.16684  0.75730  1.0000 0.0697189184
C   C64       1.0  0.42960  0.66684  0.74270  1.0000 0.0697189184
C   C65       1.0  0.47770  0.82242  0.14210  1.0000 -0.2010734333
C   C66       1.0  0.52230  0.32242  0.35790  1.0000 -0.2010734333
C   C67       1.0  0.52230  0.17758  0.85790  1.0000 -0.2010734333
C   C68       1.0  0.47770  0.67758  0.64210  1.0000 -0.2010734333
C   C69       1.0  0.16350  0.89105  0.36680  1.0000 0.5551261678
C   C70       1.0  0.83650  0.39105  0.13320  1.0000 0.5551261678
C   C71       1.0  0.83650  0.10895  0.63320  1.0000 0.5549365654
C   C72       1.0  0.16350  0.60895  0.86680  1.0000 0.5549365654
C   C73       1.0  0.07250  0.92868  0.34260  1.0000 0.0001947353
C   C74       1.0  0.92750  0.42868  0.15740  1.0000 0.0001947353
C   C75       1.0  0.92750  0.07132  0.65740  1.0000 0.0001947353
C   C76       1.0  0.07250  0.57132  0.84260  1.0000 0.0001947353
C   C77       1.0  0.90740  0.92952  0.27530  1.0000 -0.1622017716
C   C78       1.0  0.09260  0.42952  0.22470  1.0000 -0.1622017716
C   C79       1.0  0.09260  0.07048  0.72470  1.0000 -0.1622017716
C   C80       1.0  0.90740  0.57048  0.77530  1.0000 -0.1622017716
C   C81       1.0  0.82240  0.96403  0.24630  1.0000 0.0697189184
C   C82       1.0  0.17760  0.46403  0.25370  1.0000 0.0697189184
C   C83       1.0  0.17760  0.03597  0.75370  1.0000 0.0697189184
C   C84       1.0  0.82240  0.53597  0.74630  1.0000 0.0697189184
C   C85       1.0  0.90680  0.99780  0.28410  1.0000 -0.1864817292
C   C86       1.0  0.09320  0.49780  0.21590  1.0000 -0.1864817292
C   C87       1.0  0.09320  0.00220  0.71590  1.0000 -0.1864817292
C   C88       1.0  0.90680  0.50220  0.78410  1.0000 -0.1864817292
C   C89       1.0  0.07230  0.99792  0.35250  1.0000 0.0697189184
C   C90       1.0  0.92770  0.49792  0.14750  1.0000 0.0697189184
C   C91       1.0  0.92770  0.00208  0.64750  1.0000 0.0697189184
C   C92       1.0  0.07230  0.50208  0.85250  1.0000 0.0697189184
C   C93       1.0  0.15270  0.96283  0.38340  1.0000 -0.1668784346
C   C94       1.0  0.84730  0.46283  0.11660  1.0000 -0.1668784346
C   C95       1.0  0.84730  0.03717  0.61660  1.0000 -0.1668784346
C   C96       1.0  0.15270  0.53717  0.88340  1.0000 -0.1668784346
C   C97       1.0  0.16440  0.03408  0.39000  1.0000 0.1193265343
C   C98       1.0  0.83560  0.53408  0.11000  1.0000 0.1193265343
C   C99       1.0  0.83560  0.96592  0.61000  1.0000 0.1193265343
C   C100      1.0  0.16440  0.46592  0.89000  1.0000 0.1193265343
C   C101      1.0  0.29610  0.03653  0.49270  1.0000 -0.209758319
C   C102      1.0  0.70390  0.53653  0.00730  1.0000 -0.209758319
C   C103      1.0  0.70390  0.96347  0.50730  1.0000 -0.209758319
C   C104      1.0  0.29610  0.46347  0.99270  1.0000 -0.209758319
C   C105      1.0  0.38330  0.07011  0.52100  1.0000 0.0789330402
C   C106      1.0  0.61670  0.57011  0.97900  1.0000 0.0789330402
C   C107      1.0  0.61670  0.92989  0.47900  1.0000 0.0789330402
C   C108      1.0  0.38330  0.42989  0.02100  1.0000 0.0789330402
C   C109      1.0  0.22020  0.09993  0.35860  1.0000 0.0789330402
C   C110      1.0  0.77980  0.59993  0.14140  1.0000 0.0789330402
C   C111      1.0  0.77980  0.90007  0.64140  1.0000 0.0789330402
C   C112      1.0  0.22020  0.40007  0.85860  1.0000 0.0789330402
C   C113      1.0  0.12610  0.06758  0.32360  1.0000 -0.2010734333
C   C114      1.0  0.87390  0.56758  0.17640  1.0000 -0.2010734333
C   C115      1.0  0.87390  0.93242  0.67640  1.0000 -0.2010734333
C   C116      1.0  0.12610  0.43242  0.82360  1.0000 -0.2010734333
C   C117      1.0  0.64360  0.96390  0.17920  1.0000 0.1100493793
C   C118      1.0  0.35640  0.46390  0.32080  1.0000 0.1100493793
C   C119      1.0  0.35640  0.03610  0.82080  1.0000 0.1100493793
C   C120      1.0  0.64360  0.53610  0.67920  1.0000 0.1100493793
C   C121      1.0  0.57260  0.93372  0.10620  1.0000 -0.209758319
C   C122      1.0  0.42740  0.43372  0.39380  1.0000 -0.209758319
C   C123      1.0  0.42740  0.06628  0.89380  1.0000 -0.209758319
C   C124      1.0  0.57260  0.56628  0.60620  1.0000 -0.209758319
C   C125      1.0  0.40250  0.93388  0.05030  1.0000 0.0789330402
C   C126      1.0  0.59750  0.43388  0.44970  1.0000 0.0789330402
C   C127      1.0  0.59750  0.06612  0.94970  1.0000 0.0789330402
C   C128      1.0  0.40250  0.56612  0.55030  1.0000 0.0789330402
C   C129      1.0  0.37210  0.99095  0.12740  1.0000 0.0789330402
C   C130      1.0  0.62790  0.49095  0.37260  1.0000 0.0789330402
C   C131      1.0  0.62790  0.00905  0.87260  1.0000 0.0789330402
C   C132      1.0  0.37210  0.50905  0.62740  1.0000 0.0789330402
C   C133      1.0  0.54000  0.99338  0.18730  1.0000 -0.209758319
C   C134      1.0  0.46000  0.49338  0.31270  1.0000 -0.209758319
C   C135      1.0  0.46000  0.00662  0.81270  1.0000 -0.209758319
C   C136      1.0  0.54000  0.50662  0.68730  1.0000 -0.209758319
N   N1        1.0  0.30360  0.69250  0.99700  1.0000 -0.2010734333
N   N2        1.0  0.69640  0.19250  0.50300  1.0000 -0.2010734333
N   N3        1.0  0.69640  0.30750  0.00300  1.0000 -0.2010734333
N   N4        1.0  0.30360  0.80750  0.49700  1.0000 -0.2010734333
N   N5        1.0  0.53570  0.83840  0.35230  1.0000 -0.2362610512
N   N6        1.0  0.46430  0.33840  0.14770  1.0000 -0.2362610512
N   N7        1.0  0.46430  0.16160  0.64770  1.0000 -0.2362610512
N   N8        1.0  0.53570  0.66160  0.85230  1.0000 -0.2362610512
N   N9        1.0  0.35040  0.10201  0.45570  1.0000 -0.209758319
N   N10       1.0  0.64960  0.60201  0.04430  1.0000 -0.209758319
N   N11       1.0  0.64960  0.89799  0.54430  1.0000 -0.209758319
N   N12       1.0  0.35040  0.39799  0.95570  1.0000 -0.209758319
N   N13       1.0  0.30250  0.96187  0.06140  1.0000 -0.2592917309
N   N14       1.0  0.69750  0.46187  0.43860  1.0000 -0.2592917309
N   N15       1.0  0.69750  0.03813  0.93860  1.0000 -0.2592917309
N   N16       1.0  0.30250  0.53813  0.56140  1.0000 -0.2592917309
O   O1        1.0  0.65720  0.81514  0.62155  1.0000 -0.5479747579
O   O2        1.0  0.34280  0.31514  0.87845  1.0000 -0.5479747579
O   O3        1.0  0.34280  0.18486  0.37845  1.0000 -0.5479747579
O   O4        1.0  0.65720  0.68486  0.12155  1.0000 -0.5479747579
O   O5        1.0  0.49450  0.85064  0.69910  1.0000 -0.5160856918
O   O6        1.0  0.50550  0.35064  0.80090  1.0000 -0.5160856918
O   O7        1.0  0.50550  0.14936  0.30090  1.0000 -0.5160856918
O   O8        1.0  0.49450  0.64936  0.19910  1.0000 -0.5160856918
O   O9        1.0  0.10750  0.86364  0.29950  1.0000 -0.5649597273
O   O10       1.0  0.89250  0.36364  0.20050  1.0000 -0.5687580503
O   O11       1.0  0.89250  0.13636  0.70050  1.0000 -0.5687580503
O   O12       1.0  0.10750  0.63636  0.79950  1.0000 -0.5687580503
O   O13       1.0  0.29520  0.89113  0.45410  1.0000 -0.5687580503
O   O14       1.0  0.70480  0.39113  0.04590  1.0000 -0.5687580503
O   O15       1.0  0.70480  0.10887  0.54590  1.0000 -0.5687580503
O   O16       1.0  0.29520  0.60887  0.95410  1.0000 -0.5687580503
