# DDEC6 charges by PACMAN v1.1 (https://github.com/mtap-research/PACMAN-charge/)
data_2013[Cd][nan]3[ASR]13
_chemical_formula_sum              "Cd6 H60 C108 O36"
_cell_length_a       15.4481
_cell_length_b       11.4391
_cell_length_c       19.1156
_cell_angle_alpha    90
_cell_angle_beta     94.625
_cell_angle_gamma    90

_symmetry_space_group_name_H-M    "P 1"
_symmetry_Int_Tables_number       1

loop_
  _symmetry_equiv_pos_as_xyz
  'x, y, z'

loop_
  _atom_site_type_symbol
  _atom_site_label
  _atom_site_symmetry_multiplicity
  _atom_site_fract_x
  _atom_site_fract_y
  _atom_site_fract_z
  _atom_site_occupancy
  _atom_site_charge
Cd  Cd1       1.0  0.50000  0.53199  0.75000  1.0000 1.1344032818
Cd  Cd2       1.0  0.50000  0.46801  0.25000  1.0000 1.1344032818
Cd  Cd3       1.0  0.54334  0.43363  0.92290  1.0000 1.0092284017
Cd  Cd4       1.0  0.45666  0.43363  0.57710  1.0000 1.0092284017
Cd  Cd5       1.0  0.45666  0.56637  0.07710  1.0000 1.0092284017
Cd  Cd6       1.0  0.54334  0.56637  0.42290  1.0000 1.0092284017
H   H1        1.0  0.72010  0.73200  0.98040  1.0000 0.1203811624
H   H2        1.0  0.27990  0.73200  0.51960  1.0000 0.1203811624
H   H3        1.0  0.27990  0.26800  0.01960  1.0000 0.1203811624
H   H4        1.0  0.72010  0.26800  0.48040  1.0000 0.1203811624
H   H5        1.0  0.82100  0.88060  0.00020  1.0000 0.1307869236
H   H6        1.0  0.17900  0.88060  0.49980  1.0000 0.1307869236
H   H7        1.0  0.17900  0.11940  0.99980  1.0000 0.1307869236
H   H8        1.0  0.82100  0.11940  0.50020  1.0000 0.1307869236
H   H9        1.0  0.76370  0.99860  0.80510  1.0000 0.1307869236
H   H10       1.0  0.23630  0.99860  0.69490  1.0000 0.1307869236
H   H11       1.0  0.23630  0.00140  0.19490  1.0000 0.1307869236
H   H12       1.0  0.76370  0.00140  0.30510  1.0000 0.1307869236
H   H13       1.0  0.16340  0.99190  0.82990  1.0000 0.1601393063
H   H14       1.0  0.83660  0.99190  0.67010  1.0000 0.1601393063
H   H15       1.0  0.83660  0.00810  0.17010  1.0000 0.1601393063
H   H16       1.0  0.16340  0.00810  0.32990  1.0000 0.1601393063
H   H17       1.0  0.98040  0.19020  0.91150  1.0000 0.1601393063
H   H18       1.0  0.01960  0.19020  0.58850  1.0000 0.1601393063
H   H19       1.0  0.01960  0.80980  0.08850  1.0000 0.1601393063
H   H20       1.0  0.98040  0.80980  0.41150  1.0000 0.1601393063
H   H21       1.0  0.28930  0.26180  0.89120  1.0000 0.139234263
H   H22       1.0  0.71070  0.26180  0.60880  1.0000 0.139234263
H   H23       1.0  0.71070  0.73820  0.10880  1.0000 0.139234263
H   H24       1.0  0.28930  0.73820  0.39120  1.0000 0.139234263
H   H25       1.0  0.38210  0.31480  0.80730  1.0000 0.1203811624
H   H26       1.0  0.61790  0.31480  0.69270  1.0000 0.1203811624
H   H27       1.0  0.61790  0.68520  0.19270  1.0000 0.1203811624
H   H28       1.0  0.38210  0.68520  0.30730  1.0000 0.1203811624
H   H29       1.0  0.10180  0.19560  0.73880  1.0000 0.1307869236
H   H30       1.0  0.89820  0.19560  0.76120  1.0000 0.1307869236
H   H31       1.0  0.89820  0.80440  0.26120  1.0000 0.1307869236
H   H32       1.0  0.10180  0.80440  0.23880  1.0000 0.1307869236
H   H33       1.0  0.15870  0.79180  0.94320  1.0000 0.139234263
H   H34       1.0  0.84130  0.79180  0.55680  1.0000 0.139234263
H   H35       1.0  0.84130  0.20820  0.05680  1.0000 0.139234263
H   H36       1.0  0.15870  0.20820  0.44320  1.0000 0.139234263
H   H37       1.0  0.28520  0.68850  0.97510  1.0000 0.1307869236
H   H38       1.0  0.71480  0.68850  0.52490  1.0000 0.1307869236
H   H39       1.0  0.71480  0.31150  0.02490  1.0000 0.1307869236
H   H40       1.0  0.28520  0.31150  0.47510  1.0000 0.1307869236
H   H41       1.0  0.29350  0.57910  0.77680  1.0000 0.1203811624
H   H42       1.0  0.70650  0.57910  0.72320  1.0000 0.1203811624
H   H43       1.0  0.70650  0.42090  0.22320  1.0000 0.1203811624
H   H44       1.0  0.29350  0.42090  0.27680  1.0000 0.1203811624
H   H45       1.0  0.16720  0.68170  0.74470  1.0000 0.139234263
H   H46       1.0  0.83280  0.68170  0.75530  1.0000 0.139234263
H   H47       1.0  0.83280  0.31830  0.25530  1.0000 0.139234263
H   H48       1.0  0.16720  0.31830  0.24470  1.0000 0.139234263
H   H49       1.0  0.93300  0.85000  0.86700  1.0000 0.1544168525
H   H50       1.0  0.06700  0.85000  0.63300  1.0000 0.1544168525
H   H51       1.0  0.06700  0.15000  0.13300  1.0000 0.1544168525
H   H52       1.0  0.93300  0.15000  0.36700  1.0000 0.1544168525
H   H53       1.0  0.66400  0.84400  0.78600  1.0000 0.1203811624
H   H54       1.0  0.33600  0.84400  0.71400  1.0000 0.1203811624
H   H55       1.0  0.33600  0.15600  0.21400  1.0000 0.1203811624
H   H56       1.0  0.66400  0.15600  0.28600  1.0000 0.1203811624
H   H57       1.0  0.19400  0.25700  0.65600  1.0000 0.1203811624
H   H58       1.0  0.80600  0.25700  0.84400  1.0000 0.1203811624
H   H59       1.0  0.80600  0.74300  0.34400  1.0000 0.1203811624
H   H60       1.0  0.19400  0.74300  0.15600  1.0000 0.1203811624
C   C1        1.0  0.61969  0.67490  0.86636  1.0000 0.5906665855
C   C2        1.0  0.38031  0.67490  0.63364  1.0000 0.5906665855
C   C3        1.0  0.38031  0.32510  0.13364  1.0000 0.5906665855
C   C4        1.0  0.61969  0.32510  0.36636  1.0000 0.5906665855
C   C5        1.0  0.68224  0.77450  0.88051  1.0000 -0.0382389194
C   C6        1.0  0.31776  0.77450  0.61949  1.0000 -0.0382389194
C   C7        1.0  0.31776  0.22550  0.11949  1.0000 -0.0382389194
C   C8        1.0  0.68224  0.22550  0.38051  1.0000 -0.0382389194
C   C9        1.0  0.72920  0.78500  0.94480  1.0000 -0.0854997924
C   C10       1.0  0.27080  0.78500  0.55520  1.0000 -0.0854997924
C   C11       1.0  0.27080  0.21500  0.05520  1.0000 -0.0854997924
C   C12       1.0  0.72920  0.21500  0.44480  1.0000 -0.0854997924
C   C13       1.0  0.78960  0.87380  0.95690  1.0000 -0.206049434
C   C14       1.0  0.21040  0.87380  0.54310  1.0000 -0.206049434
C   C15       1.0  0.21040  0.12620  0.04310  1.0000 -0.206049434
C   C16       1.0  0.78960  0.12620  0.45690  1.0000 -0.206049434
C   C17       1.0  0.80230  0.95140  0.90420  1.0000 0.2381732062
C   C18       1.0  0.19770  0.95140  0.59580  1.0000 0.2381732062
C   C19       1.0  0.19770  0.04860  0.09580  1.0000 0.2381732062
C   C20       1.0  0.80230  0.04860  0.40420  1.0000 0.2381732062
C   C21       1.0  0.75540  0.94410  0.84000  1.0000 -0.2044517371
C   C22       1.0  0.24460  0.94410  0.66000  1.0000 -0.2044517371
C   C23       1.0  0.24460  0.05590  0.16000  1.0000 -0.2044517371
C   C24       1.0  0.75540  0.05590  0.34000  1.0000 -0.2044517371
C   C25       1.0  0.69580  0.85460  0.82822  1.0000 -0.0779498025
C   C26       1.0  0.30420  0.85460  0.67178  1.0000 -0.0779498025
C   C27       1.0  0.30420  0.14540  0.17178  1.0000 -0.0779498025
C   C28       1.0  0.69580  0.14540  0.32822  1.0000 -0.0779498025
C   C29       1.0  0.94370  0.02200  0.89238  1.0000 0.2875349866
C   C30       1.0  0.05630  0.02200  0.60762  1.0000 0.2875349866
C   C31       1.0  0.05630  0.97800  0.10762  1.0000 0.2875349866
C   C32       1.0  0.94370  0.97800  0.39238  1.0000 0.2875349866
C   C33       1.0  0.96950  0.91470  0.86780  1.0000 -0.3366992391
C   C34       1.0  0.03050  0.91470  0.63220  1.0000 -0.3366992391
C   C35       1.0  0.03050  0.08530  0.13220  1.0000 -0.3366992391
C   C36       1.0  0.96950  0.08530  0.36780  1.0000 -0.3366992391
C   C37       1.0  0.05200  0.90550  0.84524  1.0000 0.2875349866
C   C38       1.0  0.94800  0.90550  0.65476  1.0000 0.2875349866
C   C39       1.0  0.94800  0.09450  0.15476  1.0000 0.2875349866
C   C40       1.0  0.05200  0.09450  0.34524  1.0000 0.2875349866
C   C41       1.0  0.10820  0.99940  0.84558  1.0000 -0.3487699992
C   C42       1.0  0.89180  0.99940  0.65442  1.0000 -0.3487699992
C   C43       1.0  0.89180  0.00060  0.15442  1.0000 -0.3487699992
C   C44       1.0  0.10820  0.00060  0.34558  1.0000 -0.3487699992
C   C45       1.0  0.07920  0.10550  0.87024  1.0000 0.2784231835
C   C46       1.0  0.92080  0.10550  0.62976  1.0000 0.2784231835
C   C47       1.0  0.92080  0.89450  0.12976  1.0000 0.2784231835
C   C48       1.0  0.07920  0.89450  0.37024  1.0000 0.2784231835
C   C49       1.0  0.99810  0.11870  0.89438  1.0000 -0.3366992391
C   C50       1.0  0.00190  0.11870  0.60562  1.0000 -0.3366992391
C   C51       1.0  0.00190  0.88130  0.10562  1.0000 -0.3366992391
C   C52       1.0  0.99810  0.88130  0.39438  1.0000 -0.3366992391
C   C53       1.0  0.18680  0.22580  0.82297  1.0000 0.2517659039
C   C54       1.0  0.81320  0.22580  0.67703  1.0000 0.2517659039
C   C55       1.0  0.81320  0.77420  0.17703  1.0000 0.2517659039
C   C56       1.0  0.18680  0.77420  0.32297  1.0000 0.2517659039
C   C57       1.0  0.27020  0.26020  0.84381  1.0000 -0.2044517371
C   C58       1.0  0.72980  0.26020  0.65619  1.0000 -0.2044517371
C   C59       1.0  0.72980  0.73980  0.15619  1.0000 -0.2044517371
C   C60       1.0  0.27020  0.73980  0.34381  1.0000 -0.2044517371
C   C61       1.0  0.32540  0.29240  0.79350  1.0000 -0.0779498025
C   C62       1.0  0.67460  0.29240  0.70650  1.0000 -0.0779498025
C   C63       1.0  0.67460  0.70760  0.20650  1.0000 -0.0779498025
C   C64       1.0  0.32540  0.70760  0.29350  1.0000 -0.0779498025
C   C65       1.0  0.29705  0.29160  0.72303  1.0000 -0.0479040268
C   C66       1.0  0.70295  0.29160  0.77697  1.0000 -0.0479040268
C   C67       1.0  0.70295  0.70840  0.27697  1.0000 -0.0479040268
C   C68       1.0  0.29705  0.70840  0.22303  1.0000 -0.0479040268
C   C69       1.0  0.21350  0.25450  0.70266  1.0000 -0.0779498025
C   C70       1.0  0.78650  0.25450  0.79734  1.0000 -0.0779498025
C   C71       1.0  0.78650  0.74550  0.29734  1.0000 -0.0779498025
C   C72       1.0  0.21350  0.74550  0.20266  1.0000 -0.0779498025
C   C73       1.0  0.15780  0.22090  0.75247  1.0000 -0.2192459463
C   C74       1.0  0.84220  0.22090  0.74753  1.0000 -0.2192459463
C   C75       1.0  0.84220  0.77910  0.24753  1.0000 -0.2192459463
C   C76       1.0  0.15780  0.77910  0.25247  1.0000 -0.2192459463
C   C77       1.0  0.15190  0.74650  0.84081  1.0000 0.2517659039
C   C78       1.0  0.84810  0.74650  0.65919  1.0000 0.2517659039
C   C79       1.0  0.84810  0.25350  0.15919  1.0000 0.2517659039
C   C80       1.0  0.15190  0.25350  0.34081  1.0000 0.2517659039
C   C81       1.0  0.18610  0.74930  0.90989  1.0000 -0.2192459463
C   C82       1.0  0.81390  0.74930  0.59011  1.0000 -0.2192459463
C   C83       1.0  0.81390  0.25070  0.09011  1.0000 -0.2192459463
C   C84       1.0  0.18610  0.25070  0.40989  1.0000 -0.2192459463
C   C85       1.0  0.26180  0.68760  0.92876  1.0000 -0.0713996395
C   C86       1.0  0.73820  0.68760  0.57124  1.0000 -0.0713996395
C   C87       1.0  0.73820  0.31240  0.07124  1.0000 -0.0713996395
C   C88       1.0  0.26180  0.31240  0.42876  1.0000 -0.0713996395
C   C89       1.0  0.30269  0.62450  0.87892  1.0000 -0.0479040268
C   C90       1.0  0.69731  0.62450  0.62108  1.0000 -0.0479040268
C   C91       1.0  0.69731  0.37550  0.12108  1.0000 -0.0479040268
C   C92       1.0  0.30269  0.37550  0.37892  1.0000 -0.0479040268
C   C93       1.0  0.38566  0.55990  0.89814  1.0000 0.6057007098
C   C94       1.0  0.61434  0.55990  0.60186  1.0000 0.6057007098
C   C95       1.0  0.61434  0.44010  0.10186  1.0000 0.6057007098
C   C96       1.0  0.38566  0.44010  0.39814  1.0000 0.6057007098
C   C97       1.0  0.26670  0.62210  0.81025  1.0000 -0.0779498025
C   C98       1.0  0.73330  0.62210  0.68975  1.0000 -0.0779498025
C   C99       1.0  0.73330  0.37790  0.18975  1.0000 -0.0779498025
C   C100      1.0  0.26670  0.37790  0.31025  1.0000 -0.0779498025
C   C101      1.0  0.19120  0.68330  0.79090  1.0000 -0.206049434
C   C102      1.0  0.80880  0.68330  0.70910  1.0000 -0.206049434
C   C103      1.0  0.80880  0.31670  0.20910  1.0000 -0.206049434
C   C104      1.0  0.19120  0.31670  0.29090  1.0000 -0.206049434
C   C105      1.0  0.35538  0.33420  0.67010  1.0000 0.5758970761
C   C106      1.0  0.64462  0.33420  0.82990  1.0000 0.5758970761
C   C107      1.0  0.64462  0.66580  0.32990  1.0000 0.5758970761
C   C108      1.0  0.35538  0.66580  0.17010  1.0000 0.5758970761
O   O1        1.0  0.60299  0.61360  0.91843  1.0000 -0.5574900276
O   O2        1.0  0.39701  0.61360  0.58157  1.0000 -0.5574900276
O   O3        1.0  0.39701  0.38640  0.08157  1.0000 -0.5574900276
O   O4        1.0  0.60299  0.38640  0.41843  1.0000 -0.5574900276
O   O5        1.0  0.58923  0.66060  0.80438  1.0000 -0.5742576785
O   O6        1.0  0.41077  0.66060  0.69562  1.0000 -0.5742576785
O   O7        1.0  0.41077  0.33940  0.19562  1.0000 -0.5742576785
O   O8        1.0  0.58923  0.33940  0.30438  1.0000 -0.5742576785
O   O9        1.0  0.42756  0.38070  0.69165  1.0000 -0.5979632428
O   O10       1.0  0.57244  0.38070  0.80835  1.0000 -0.5979632428
O   O11       1.0  0.57244  0.61930  0.30835  1.0000 -0.5979632428
O   O12       1.0  0.42756  0.61930  0.19165  1.0000 -0.5979632428
O   O13       1.0  0.33432  0.32530  0.60578  1.0000 -0.5340339607
O   O14       1.0  0.66568  0.32530  0.89422  1.0000 -0.5340339607
O   O15       1.0  0.66568  0.67470  0.39422  1.0000 -0.5340339607
O   O16       1.0  0.33432  0.67470  0.10578  1.0000 -0.5340339607
O   O17       1.0  0.86289  0.04060  0.91646  1.0000 -0.2192459463
O   O18       1.0  0.13711  0.04060  0.58354  1.0000 -0.2192459463
O   O19       1.0  0.13711  0.95940  0.08354  1.0000 -0.2192459463
O   O20       1.0  0.86289  0.95940  0.41646  1.0000 -0.2192459463
O   O21       1.0  0.13306  0.20260  0.87601  1.0000 -0.2192459463
O   O22       1.0  0.86694  0.20260  0.62399  1.0000 -0.2192459463
O   O23       1.0  0.86694  0.79740  0.12399  1.0000 -0.2192459463
O   O24       1.0  0.13306  0.79740  0.37601  1.0000 -0.2192459463
O   O25       1.0  0.07395  0.79860  0.81736  1.0000 -0.2192459463
O   O26       1.0  0.92605  0.79860  0.68264  1.0000 -0.2192459463
O   O27       1.0  0.92605  0.20140  0.18264  1.0000 -0.2192459463
O   O28       1.0  0.07395  0.20140  0.31736  1.0000 -0.2192459463
O   O29       1.0  0.41373  0.54830  0.96096  1.0000 -0.5574900276
O   O30       1.0  0.58627  0.54830  0.53904  1.0000 -0.5574900276
O   O31       1.0  0.58627  0.45170  0.03904  1.0000 -0.5574900276
O   O32       1.0  0.41373  0.45170  0.46096  1.0000 -0.5574900276
O   O33       1.0  0.42575  0.51540  0.84978  1.0000 -0.5979632428
O   O34       1.0  0.57425  0.51540  0.65022  1.0000 -0.5979632428
O   O35       1.0  0.57425  0.48460  0.15022  1.0000 -0.5979632428
O   O36       1.0  0.42575  0.48460  0.34978  1.0000 -0.5979632428
