# DDEC6 charges by PACMAN v1.1 (https://github.com/mtap-research/PACMAN-charge/)
data_2013[Cu][nan]3[ASR]9
_chemical_formula_sum              "Cu12 H72 C156 O48"
_cell_length_a       24.67
_cell_length_b       24.67
_cell_length_c       24.67
_cell_angle_alpha    136.176
_cell_angle_beta     112.122
_cell_angle_gamma    84.3734

_symmetry_space_group_name_H-M    "P 1"
_symmetry_Int_Tables_number       1

loop_
  _symmetry_equiv_pos_as_xyz
  'x, y, z'

loop_
  _atom_site_type_symbol
  _atom_site_label
  _atom_site_symmetry_multiplicity
  _atom_site_fract_x
  _atom_site_fract_y
  _atom_site_fract_z
  _atom_site_occupancy
  _atom_site_charge
Cu  Cu1       1.0  0.10074  0.29330  0.19256  1.0000 0.8522302274
Cu  Cu2       1.0  0.89926  0.09182  0.19256  1.0000 0.8522302274
Cu  Cu3       1.0  0.17329  0.36492  0.19163  1.0000 0.8583774432
Cu  Cu4       1.0  0.82671  0.01834  0.19163  1.0000 0.8583774432
Cu  Cu5       1.0  0.50279  0.65031  0.60648  1.0000 0.8583774432
Cu  Cu6       1.0  0.49721  0.10369  0.14752  1.0000 0.8583774432
Cu  Cu7       1.0  0.04383  0.65031  0.14752  1.0000 0.8583774432
Cu  Cu8       1.0  0.95617  0.10369  0.60648  1.0000 0.8583774432
Cu  Cu9       1.0  0.52221  0.68450  0.74383  1.0000 0.8707144921
Cu  Cu10      1.0  0.47779  0.22162  0.16229  1.0000 0.8707144921
Cu  Cu11      1.0  0.94067  0.68450  0.16229  1.0000 0.8707144921
Cu  Cu12      1.0  0.05933  0.22162  0.74383  1.0000 0.8707144921
H   H1        1.0  0.16040  0.08170  0.07630  1.0000 0.1266007137
H   H2        1.0  0.83960  0.91590  0.92130  1.0000 0.1266007137
H   H3        1.0  0.00540  0.08170  0.92130  1.0000 0.1266007137
H   H4        1.0  0.99460  0.91590  0.07630  1.0000 0.1266007137
H   H5        1.0  0.30390  0.99200  0.03370  1.0000 0.1215527292
H   H6        1.0  0.69610  0.72980  0.68810  1.0000 0.1266007137
H   H7        1.0  0.95830  0.99200  0.68810  1.0000 0.1266007137
H   H8        1.0  0.04170  0.72980  0.03370  1.0000 0.1215527292
H   H9        1.0  0.30160  0.21330  0.13790  1.0000 0.1409082924
H   H10       1.0  0.69840  0.83630  0.91170  1.0000 0.1409082924
H   H11       1.0  0.07540  0.21330  0.91170  1.0000 0.1409082924
H   H12       1.0  0.92460  0.83630  0.13790  1.0000 0.1409082924
H   H13       1.0  0.15740  0.00070  0.09130  1.0000 0.1215527292
H   H14       1.0  0.84260  0.93390  0.84330  1.0000 0.1215527292
H   H15       1.0  0.90940  0.00070  0.84330  1.0000 0.1215527292
H   H16       1.0  0.09060  0.93390  0.09130  1.0000 0.1215527292
H   H17       1.0  0.17570  0.75130  0.85660  1.0000 0.1132535868
H   H18       1.0  0.82430  0.68090  0.57560  1.0000 0.1132535868
H   H19       1.0  0.89470  0.75130  0.57560  1.0000 0.1132535868
H   H20       1.0  0.10530  0.68090  0.85660  1.0000 0.1132535868
H   H21       1.0  0.22160  0.86850  0.91270  1.0000 0.1132535868
H   H22       1.0  0.77840  0.69110  0.64690  1.0000 0.1132535868
H   H23       1.0  0.95580  0.86850  0.64690  1.0000 0.1132535868
H   H24       1.0  0.04420  0.69110  0.91270  1.0000 0.1132535868
H   H25       1.0  0.18110  0.45060  0.46770  1.0000 0.1215527292
H   H26       1.0  0.81890  0.28660  0.26950  1.0000 0.1215527292
H   H27       1.0  0.98290  0.45060  0.26950  1.0000 0.1215527292
H   H28       1.0  0.01710  0.28660  0.46770  1.0000 0.1215527292
H   H29       1.0  0.34040  0.60540  0.68040  1.0000 0.1266007137
H   H30       1.0  0.65960  0.34000  0.26500  1.0000 0.1215527292
H   H31       1.0  0.92500  0.60540  0.26500  1.0000 0.1215527292
H   H32       1.0  0.07500  0.34000  0.68040  1.0000 0.1266007137
H   H33       1.0  0.31330  0.52110  0.45620  1.0000 0.1409082924
H   H34       1.0  0.68670  0.14290  0.20780  1.0000 0.1409082924
H   H35       1.0  0.06490  0.52110  0.20780  1.0000 0.1409082924
H   H36       1.0  0.93510  0.14290  0.45620  1.0000 0.1409082924
H   H37       1.0  0.28110  0.64750  0.75300  1.0000 0.1132535868
H   H38       1.0  0.71890  0.47190  0.36640  1.0000 0.1132535868
H   H39       1.0  0.89450  0.64750  0.36640  1.0000 0.1132535868
H   H40       1.0  0.10550  0.47190  0.75300  1.0000 0.1132535868
H   H41       1.0  0.24410  0.65260  0.82870  1.0000 0.1132535868
H   H42       1.0  0.75590  0.58460  0.40850  1.0000 0.1132535868
H   H43       1.0  0.82390  0.65260  0.40850  1.0000 0.1132535868
H   H44       1.0  0.17610  0.58460  0.82870  1.0000 0.1132535868
H   H45       1.0  0.18330  0.41680  0.53170  1.0000 0.1215527292
H   H46       1.0  0.81670  0.34840  0.23350  1.0000 0.1215527292
H   H47       1.0  0.88510  0.41680  0.23350  1.0000 0.1215527292
H   H48       1.0  0.11490  0.34840  0.53170  1.0000 0.1215527292
H   H49       1.0  0.47430  0.87140  0.69710  1.0000 0.1266007137
H   H50       1.0  0.52570  0.22280  0.39710  1.0000 0.1266007137
H   H51       1.0  0.17430  0.87140  0.39710  1.0000 0.1266007137
H   H52       1.0  0.82570  0.22280  0.69710  1.0000 0.1266007137
H   H53       1.0  0.44770  0.08040  0.89670  1.0000 0.1266007137
H   H54       1.0  0.55230  0.44900  0.63270  1.0000 0.1266007137
H   H55       1.0  0.18370  0.08040  0.63270  1.0000 0.1266007137
H   H56       1.0  0.81630  0.44900  0.89670  1.0000 0.1266007137
H   H57       1.0  0.50100  0.92570  0.90590  1.0000 0.1409082924
H   H58       1.0  0.49900  0.40490  0.42470  1.0000 0.1409082924
H   H59       1.0  0.01980  0.92570  0.42470  1.0000 0.1409082924
H   H60       1.0  0.98020  0.40490  0.90590  1.0000 0.1409082924
H   H61       1.0  0.35270  0.00010  0.73740  1.0000 0.1215527292
H   H62       1.0  0.64730  0.38470  0.64740  1.0000 0.1215527292
H   H63       1.0  0.26270  0.00010  0.64740  1.0000 0.1215527292
H   H64       1.0  0.73730  0.38470  0.73740  1.0000 0.1215527292
H   H65       1.0  0.46520  0.99700  0.62400  1.0000 0.1215527292
H   H66       1.0  0.53480  0.15880  0.53180  1.0000 0.1215527292
H   H67       1.0  0.37300  0.99700  0.53180  1.0000 0.1215527292
H   H68       1.0  0.62700  0.15880  0.62400  1.0000 0.1215527292
H   H69       1.0  0.50730  0.99090  0.71640  1.0000 0.1266007137
H   H70       1.0  0.49270  0.20910  0.48360  1.0000 0.1266007137
H   H71       1.0  0.27450  0.99090  0.48360  1.0000 0.1266007137
H   H72       1.0  0.72550  0.20910  0.71640  1.0000 0.1266007137
C   C1        1.0  0.19762  0.22548  0.14964  1.0000 0.5815666084
C   C2        1.0  0.80238  0.95202  0.02786  1.0000 0.5815666084
C   C3        1.0  0.07584  0.22548  0.02786  1.0000 0.5815666084
C   C4        1.0  0.92416  0.95202  0.14964  1.0000 0.5815666084
C   C5        1.0  0.22805  0.15915  0.11576  1.0000 -0.0278235498
C   C6        1.0  0.77195  0.88771  0.93110  1.0000 -0.0278235498
C   C7        1.0  0.04339  0.15915  0.93110  1.0000 -0.0278235498
C   C8        1.0  0.95661  0.88771  0.11576  1.0000 -0.0278235498
C   C9        1.0  0.19909  0.08749  0.07906  1.0000 -0.1418686817
C   C10       1.0  0.80091  0.87997  0.88840  1.0000 -0.1418686817
C   C11       1.0  0.00843  0.08749  0.88840  1.0000 -0.1418686817
C   C12       1.0  0.99157  0.87997  0.07906  1.0000 -0.1418686817
C   C13       1.0  0.22561  0.02454  0.04653  1.0000 0.0711278715
C   C14       1.0  0.77439  0.82092  0.79893  1.0000 0.0711278715
C   C15       1.0  0.97801  0.02454  0.79893  1.0000 0.0711278715
C   C16       1.0  0.02199  0.82092  0.04653  1.0000 0.0711278715
C   C17       1.0  0.28425  0.03415  0.05308  1.0000 -0.1418686817
C   C18       1.0  0.71575  0.76883  0.74990  1.0000 -0.1418686817
C   C19       1.0  0.98107  0.03415  0.74990  1.0000 -0.1418686817
C   C20       1.0  0.01893  0.76883  0.05308  1.0000 -0.1418686817
C   C21       1.0  0.31243  0.10411  0.08736  1.0000 -0.0184677402
C   C22       1.0  0.68757  0.77493  0.79168  1.0000 -0.0184677402
C   C23       1.0  0.01675  0.10411  0.79168  1.0000 -0.0184677402
C   C24       1.0  0.98325  0.77493  0.08736  1.0000 -0.0184677402
C   C25       1.0  0.28305  0.16563  0.11672  1.0000 -0.0992714633
C   C26       1.0  0.71695  0.83367  0.88258  1.0000 -0.0992714633
C   C27       1.0  0.04891  0.16563  0.88258  1.0000 -0.0992714633
C   C28       1.0  0.95109  0.83367  0.11672  1.0000 -0.0992714633
C   C29       1.0  0.37655  0.11848  0.10279  1.0000 0.5815666084
C   C30       1.0  0.62345  0.72624  0.74193  1.0000 0.5815666084
C   C31       1.0  0.01569  0.11848  0.74193  1.0000 0.5815666084
C   C32       1.0  0.98431  0.72624  0.10279  1.0000 0.5815666084
C   C33       1.0  0.19520  0.94596  0.00804  1.0000 0.0711278715
C   C34       1.0  0.80480  0.81284  0.75076  1.0000 0.0711278715
C   C35       1.0  0.93792  0.94596  0.75076  1.0000 0.0711278715
C   C36       1.0  0.06208  0.81284  0.00804  1.0000 0.0711278715
C   C37       1.0  0.16032  0.94916  0.04290  1.0000 -0.1926772058
C   C38       1.0  0.83968  0.88258  0.78884  1.0000 -0.1926772058
C   C39       1.0  0.90626  0.94916  0.78884  1.0000 -0.1926772058
C   C40       1.0  0.09374  0.88258  0.04290  1.0000 -0.1926772058
C   C41       1.0  0.12960  0.88020  0.00980  1.0000 0.0781497778
C   C42       1.0  0.87040  0.88020  0.75060  1.0000 0.0781497778
C   C43       1.0  0.13144  0.80230  0.93374  1.0000 0.0711278715
C   C44       1.0  0.86856  0.80230  0.67086  1.0000 0.0711278715
C   C45       1.0  0.16988  0.80149  0.90269  1.0000 -0.1606704578
C   C46       1.0  0.83012  0.73281  0.63161  1.0000 -0.1606704578
C   C47       1.0  0.89880  0.80149  0.63161  1.0000 -0.1606704578
C   C48       1.0  0.10120  0.73281  0.90269  1.0000 -0.1606704578
C   C49       1.0  0.19855  0.87146  0.93781  1.0000 -0.1418686817
C   C50       1.0  0.80145  0.73926  0.67291  1.0000 -0.1418686817
C   C51       1.0  0.93365  0.87146  0.67291  1.0000 -0.1418686817
C   C52       1.0  0.06635  0.73926  0.93781  1.0000 -0.1418686817
C   C53       1.0  0.20164  0.42207  0.35093  1.0000 0.5857631628
C   C54       1.0  0.79836  0.14929  0.22043  1.0000 0.5857631628
C   C55       1.0  0.07114  0.42207  0.22043  1.0000 0.5857631628
C   C56       1.0  0.92886  0.14929  0.35093  1.0000 0.5857631628
C   C57       1.0  0.24129  0.47801  0.44766  1.0000 -0.0100168382
C   C58       1.0  0.75871  0.20637  0.23672  1.0000 -0.0100168382
C   C59       1.0  0.03035  0.47801  0.23672  1.0000 -0.0100168382
C   C60       1.0  0.96965  0.20637  0.44766  1.0000 -0.0100168382
C   C61       1.0  0.22100  0.48157  0.49565  1.0000 -0.1501103166
C   C62       1.0  0.77900  0.27465  0.26057  1.0000 -0.1501103166
C   C63       1.0  0.98592  0.48157  0.26057  1.0000 -0.1501103166
C   C64       1.0  0.01408  0.27465  0.49565  1.0000 -0.1501103166
C   C65       1.0  0.25731  0.52905  0.58304  1.0000 0.0711278715
C   C66       1.0  0.74269  0.32573  0.27174  1.0000 0.0711278715
C   C67       1.0  0.94601  0.52905  0.27174  1.0000 0.0711278715
C   C68       1.0  0.05399  0.32573  0.58304  1.0000 0.0711278715
C   C69       1.0  0.31469  0.57250  0.62071  1.0000 -0.1418686817
C   C70       1.0  0.68531  0.30602  0.25781  1.0000 -0.1418686817
C   C71       1.0  0.95179  0.57250  0.25781  1.0000 -0.1418686817
C   C72       1.0  0.04821  0.30602  0.62071  1.0000 -0.1418686817
C   C73       1.0  0.33645  0.57032  0.57557  1.0000 -0.0100168382
C   C74       1.0  0.66355  0.23912  0.23387  1.0000 -0.0100168382
C   C75       1.0  0.99475  0.57032  0.23387  1.0000 -0.0100168382
C   C76       1.0  0.00525  0.23912  0.57557  1.0000 -0.0100168382
C   C77       1.0  0.29895  0.52263  0.48790  1.0000 -0.106778511
C   C78       1.0  0.70105  0.18895  0.22368  1.0000 -0.106778511
C   C79       1.0  0.03473  0.52263  0.22368  1.0000 -0.106778511
C   C80       1.0  0.96527  0.18895  0.48790  1.0000 -0.106778511
C   C81       1.0  0.40187  0.61206  0.61579  1.0000 0.5815666084
C   C82       1.0  0.59813  0.21392  0.21019  1.0000 0.5815666084
C   C83       1.0  0.99627  0.61206  0.21019  1.0000 0.5815666084
C   C84       1.0  0.00373  0.21392  0.61579  1.0000 0.5815666084
C   C85       1.0  0.23444  0.53096  0.63286  1.0000 0.0781497778
C   C86       1.0  0.76556  0.39842  0.29652  1.0000 0.0781497778
C   C87       1.0  0.89810  0.53096  0.29652  1.0000 0.0781497778
C   C88       1.0  0.10190  0.39842  0.63286  1.0000 0.0781497778
C   C89       1.0  0.25249  0.60090  0.72269  1.0000 -0.1606704578
C   C90       1.0  0.74751  0.47020  0.34841  1.0000 -0.1606704578
C   C91       1.0  0.87821  0.60090  0.34841  1.0000 -0.1606704578
C   C92       1.0  0.12179  0.47020  0.72269  1.0000 -0.1606704578
C   C93       1.0  0.23039  0.60433  0.76792  1.0000 -0.1606704578
C   C94       1.0  0.76961  0.53753  0.37394  1.0000 -0.1606704578
C   C95       1.0  0.83641  0.60433  0.37394  1.0000 -0.1606704578
C   C96       1.0  0.16359  0.53753  0.76792  1.0000 -0.1606704578
C   C97       1.0  0.18797  0.53750  0.72547  1.0000 0.0711278715
C   C98       1.0  0.81203  0.53750  0.34953  1.0000 0.0711278715
C   C99       1.0  0.16859  0.46510  0.63369  1.0000 0.0905492519
C   C100      1.0  0.83141  0.46510  0.29651  1.0000 0.0905492519
C   C101      1.0  0.19450  0.46527  0.59175  1.0000 -0.1926772058
C   C102      1.0  0.80550  0.39725  0.27077  1.0000 -0.1926772058
C   C103      1.0  0.87352  0.46527  0.27077  1.0000 -0.1926772058
C   C104      1.0  0.12648  0.39725  0.59175  1.0000 -0.1926772058
C   C105      1.0  0.49908  0.80467  0.74887  1.0000 0.5857631628
C   C106      1.0  0.50092  0.24979  0.30559  1.0000 0.5857631628
C   C107      1.0  0.05580  0.80467  0.30559  1.0000 0.5857631628
C   C108      1.0  0.94420  0.24979  0.74887  1.0000 0.5857631628
C   C109      1.0  0.48723  0.88600  0.79325  1.0000 -0.0100168382
C   C110      1.0  0.51277  0.30602  0.39877  1.0000 -0.0100168382
C   C111      1.0  0.09275  0.88600  0.39877  1.0000 -0.0100168382
C   C112      1.0  0.90725  0.30602  0.79325  1.0000 -0.0100168382
C   C113      1.0  0.47300  0.90662  0.75154  1.0000 -0.1418686817
C   C114      1.0  0.52700  0.27854  0.43362  1.0000 -0.1418686817
C   C115      1.0  0.15508  0.90662  0.43362  1.0000 -0.1418686817
C   C116      1.0  0.84492  0.27854  0.75154  1.0000 -0.1418686817
C   C117      1.0  0.45680  0.97842  0.78784  1.0000 0.0615253811
C   C118      1.0  0.54320  0.33104  0.52162  1.0000 0.0615253811
C   C119      1.0  0.19058  0.97842  0.52162  1.0000 0.0615253811
C   C120      1.0  0.80942  0.33104  0.78784  1.0000 0.0615253811
C   C121      1.0  0.45823  0.03087  0.87062  1.0000 -0.1418686817
C   C122      1.0  0.54177  0.41239  0.57264  1.0000 -0.1418686817
C   C123      1.0  0.16025  0.03087  0.57264  1.0000 -0.1418686817
C   C124      1.0  0.83975  0.41239  0.87062  1.0000 -0.1418686817
C   C125      1.0  0.47467  0.01238  0.91611  1.0000 -0.0500109532
C   C126      1.0  0.52533  0.44144  0.53771  1.0000 -0.0500109532
C   C127      1.0  0.09627  0.01238  0.53771  1.0000 -0.0500109532
C   C128      1.0  0.90373  0.44144  0.91611  1.0000 -0.0500109532
C   C129      1.0  0.48937  0.93962  0.87665  1.0000 -0.0992714633
C   C130      1.0  0.51063  0.38728  0.45025  1.0000 -0.0992714633
C   C131      1.0  0.06297  0.93962  0.45025  1.0000 -0.0992714633
C   C132      1.0  0.93703  0.38728  0.87665  1.0000 -0.0992714633
C   C133      1.0  0.47774  0.06703  0.00239  1.0000 0.5815666084
C   C134      1.0  0.52226  0.52465  0.58929  1.0000 0.5815666084
C   C135      1.0  0.06464  0.06703  0.58929  1.0000 0.5815666084
C   C136      1.0  0.93536  0.52465  0.00239  1.0000 0.5815666084
C   C137      1.0  0.43303  0.99440  0.73751  1.0000 0.0711278715
C   C138      1.0  0.56697  0.30448  0.56137  1.0000 0.0711278715
C   C139      1.0  0.25689  0.99440  0.56137  1.0000 0.0711278715
C   C140      1.0  0.74311  0.30448  0.73751  1.0000 0.0711278715
C   C141      1.0  0.37592  0.99961  0.71397  1.0000 -0.1926772058
C   C142      1.0  0.62408  0.33805  0.62369  1.0000 -0.1926772058
C   C143      1.0  0.28564  0.99961  0.62369  1.0000 -0.1926772058
C   C144      1.0  0.71436  0.33805  0.71397  1.0000 -0.1926772058
C   C145      1.0  0.34821  0.00441  0.65620  1.0000 0.0781497778
C   C146      1.0  0.65179  0.30799  0.65620  1.0000 0.0781497778
C   C147      1.0  0.38122  0.00192  0.62070  1.0000 0.0504052461
C   C148      1.0  0.61878  0.23948  0.62070  1.0000 0.0504052461
C   C149      1.0  0.44140  0.99736  0.64684  1.0000 -0.1337520714
C   C150      1.0  0.55860  0.20544  0.55596  1.0000 -0.1337520714
C   C151      1.0  0.35052  0.99736  0.55596  1.0000 -0.1337520714
C   C152      1.0  0.64948  0.20544  0.64684  1.0000 -0.1337520714
C   C153      1.0  0.46650  0.99388  0.70122  1.0000 -0.1501103166
C   C154      1.0  0.53350  0.23472  0.52738  1.0000 -0.1501103166
C   C155      1.0  0.29266  0.99388  0.52738  1.0000 -0.1501103166
C   C156      1.0  0.70734  0.23472  0.70122  1.0000 -0.1501103166
O   O1        1.0  0.40814  0.07669  0.10319  1.0000 -0.5000938734
O   O2        1.0  0.59186  0.69505  0.66855  1.0000 -0.5000938734
O   O3        1.0  0.97350  0.07669  0.66855  1.0000 -0.5000938734
O   O4        1.0  0.02650  0.69505  0.10319  1.0000 -0.5000938734
O   O5        1.0  0.39333  0.17583  0.11666  1.0000 -0.5176939602
O   O6        1.0  0.60667  0.72333  0.78250  1.0000 -0.5176939602
O   O7        1.0  0.05917  0.17583  0.78250  1.0000 -0.5176939602
O   O8        1.0  0.94083  0.72333  0.11666  1.0000 -0.5176939602
O   O9        1.0  0.15703  0.22306  0.16559  1.0000 -0.5000938734
O   O10       1.0  0.84297  0.00856  0.06603  1.0000 -0.5000938734
O   O11       1.0  0.05747  0.22306  0.06603  1.0000 -0.5000938734
O   O12       1.0  0.94253  0.00856  0.16559  1.0000 -0.5000938734
O   O13       1.0  0.21718  0.28076  0.16210  1.0000 -0.5176939602
O   O14       1.0  0.78282  0.94492  0.06358  1.0000 -0.5176939602
O   O15       1.0  0.11866  0.28076  0.06358  1.0000 -0.5176939602
O   O16       1.0  0.88134  0.94492  0.16210  1.0000 -0.5176939602
O   O17       1.0  0.15461  0.37128  0.31557  1.0000 -0.5282967722
O   O18       1.0  0.84539  0.16096  0.21667  1.0000 -0.5282967722
O   O19       1.0  0.05571  0.37128  0.21667  1.0000 -0.5282967722
O   O20       1.0  0.94429  0.16096  0.31557  1.0000 -0.5282967722
O   O21       1.0  0.21723  0.43119  0.31444  1.0000 -0.5176939602
O   O22       1.0  0.78277  0.09721  0.21396  1.0000 -0.5176939602
O   O23       1.0  0.11675  0.43119  0.21396  1.0000 -0.5176939602
O   O24       1.0  0.88325  0.09721  0.31444  1.0000 -0.5176939602
O   O25       1.0  0.43481  0.64358  0.68991  1.0000 -0.5136455233
O   O26       1.0  0.56519  0.25510  0.20877  1.0000 -0.5136455233
O   O27       1.0  0.95367  0.64358  0.20877  1.0000 -0.5136455233
O   O28       1.0  0.04633  0.25510  0.68991  1.0000 -0.5136455233
O   O29       1.0  0.41796  0.61032  0.57232  1.0000 -0.5176939602
O   O30       1.0  0.58204  0.15436  0.19236  1.0000 -0.5176939602
O   O31       1.0  0.03800  0.61032  0.19236  1.0000 -0.5176939602
O   O32       1.0  0.96200  0.15436  0.57232  1.0000 -0.5176939602
O   O33       1.0  0.49343  0.75917  0.67420  1.0000 -0.5000938734
O   O34       1.0  0.50657  0.18077  0.26574  1.0000 -0.5000938734
O   O35       1.0  0.08497  0.75917  0.26574  1.0000 -0.5000938734
O   O36       1.0  0.91503  0.18077  0.67420  1.0000 -0.5000938734
O   O37       1.0  0.51088  0.78816  0.78964  1.0000 -0.5282967722
O   O38       1.0  0.48912  0.27876  0.27728  1.0000 -0.5282967722
O   O39       1.0  0.99852  0.78816  0.27728  1.0000 -0.5282967722
O   O40       1.0  0.00148  0.27876  0.78964  1.0000 -0.5282967722
O   O41       1.0  0.47130  0.13738  0.04178  1.0000 -0.5282967722
O   O42       1.0  0.52870  0.57048  0.66608  1.0000 -0.5282967722
O   O43       1.0  0.09560  0.13738  0.66608  1.0000 -0.5282967722
O   O44       1.0  0.90440  0.57048  0.04178  1.0000 -0.5282967722
O   O45       1.0  0.48631  0.03882  0.03117  1.0000 -0.5176939602
O   O46       1.0  0.51369  0.54486  0.55251  1.0000 -0.5176939602
O   O47       1.0  0.00765  0.03882  0.55251  1.0000 -0.5176939602
O   O48       1.0  0.99235  0.54486  0.03117  1.0000 -0.5176939602
