# DDEC6 charges by PACMAN v1.1 (https://github.com/mtap-research/PACMAN-charge/)
data_2013[La][nan]3[ASR]4
_chemical_formula_sum              "La3 H45 C81 O18"
_cell_length_a       17.1268
_cell_length_b       17.1268
_cell_length_c       17.1268
_cell_angle_alpha    114.225
_cell_angle_beta     114.225
_cell_angle_gamma    114.225

_symmetry_space_group_name_H-M    "P 1"
_symmetry_Int_Tables_number       1

loop_
  _symmetry_equiv_pos_as_xyz
  'x, y, z'

loop_
  _atom_site_type_symbol
  _atom_site_label
  _atom_site_symmetry_multiplicity
  _atom_site_fract_x
  _atom_site_fract_y
  _atom_site_fract_z
  _atom_site_occupancy
  _atom_site_charge
La  La1       1.0  0.67778  0.32222  0.00000  1.0000 1.8670183045
La  La2       1.0  0.32222  0.00000  0.67778  1.0000 1.8670183045
La  La3       1.0  0.00000  0.67778  0.32222  1.0000 1.8670183045
H   H1        1.0  0.52860  0.47650  0.87220  1.0000 0.1259249397
H   H2        1.0  0.47650  0.87220  0.52860  1.0000 0.1259249397
H   H3        1.0  0.87220  0.52860  0.47650  1.0000 0.1259249397
H   H4        1.0  0.47140  0.12780  0.52350  1.0000 0.1259249397
H   H5        1.0  0.52350  0.47140  0.12780  1.0000 0.1259249397
H   H6        1.0  0.12780  0.52350  0.47140  1.0000 0.1259249397
H   H7        1.0  0.42950  0.53850  0.85770  1.0000 0.1135142327
H   H8        1.0  0.53850  0.85770  0.42950  1.0000 0.1135142327
H   H9        1.0  0.85770  0.42950  0.53850  1.0000 0.1135142327
H   H10       1.0  0.57050  0.14230  0.46150  1.0000 0.1135142327
H   H11       1.0  0.46150  0.57050  0.14230  1.0000 0.1135142327
H   H12       1.0  0.14230  0.46150  0.57050  1.0000 0.1135142327
H   H13       1.0  0.18520  0.27790  0.80160  1.0000 0.1185659751
H   H14       1.0  0.27790  0.80160  0.18520  1.0000 0.1185659751
H   H15       1.0  0.80160  0.18520  0.27790  1.0000 0.1185659751
H   H16       1.0  0.81480  0.19840  0.72210  1.0000 0.1185659751
H   H17       1.0  0.72210  0.81480  0.19840  1.0000 0.1185659751
H   H18       1.0  0.19840  0.72210  0.81480  1.0000 0.1185659751
H   H19       1.0  0.28980  0.22020  0.82520  1.0000 0.1259249397
H   H20       1.0  0.22020  0.82520  0.28980  1.0000 0.1259249397
H   H21       1.0  0.82520  0.28980  0.22020  1.0000 0.1259249397
H   H22       1.0  0.71020  0.17480  0.77980  1.0000 0.1259249397
H   H23       1.0  0.77980  0.71020  0.17480  1.0000 0.1259249397
H   H24       1.0  0.17480  0.77980  0.71020  1.0000 0.1259249397
H   H25       1.0  0.26285  0.50000  0.73715  1.0000 0.1135142327
H   H26       1.0  0.50000  0.73715  0.26285  1.0000 0.1135142327
H   H27       1.0  0.73715  0.26285  0.50000  1.0000 0.1135142327
H   H28       1.0  0.19750  0.43330  0.91170  1.0000 0.1185659751
H   H29       1.0  0.43330  0.91170  0.19750  1.0000 0.1185659751
H   H30       1.0  0.91170  0.19750  0.43330  1.0000 0.1185659751
H   H31       1.0  0.80250  0.08830  0.56670  1.0000 0.1185659751
H   H32       1.0  0.56670  0.80250  0.08830  1.0000 0.1185659751
H   H33       1.0  0.08830  0.56670  0.80250  1.0000 0.1185659751
H   H34       1.0  0.93730  0.45540  0.79040  1.0000 0.1185659751
H   H35       1.0  0.45540  0.79040  0.93730  1.0000 0.1185659751
H   H36       1.0  0.79040  0.93730  0.45540  1.0000 0.1185659751
H   H37       1.0  0.06270  0.20960  0.54460  1.0000 0.1185659751
H   H38       1.0  0.54460  0.06270  0.20960  1.0000 0.1185659751
H   H39       1.0  0.20960  0.54460  0.06270  1.0000 0.1185659751
H   H40       1.0  0.85350  0.44880  0.86730  1.0000 0.1185659751
H   H41       1.0  0.44880  0.86730  0.85350  1.0000 0.1185659751
H   H42       1.0  0.86730  0.85350  0.44880  1.0000 0.1185659751
H   H43       1.0  0.14650  0.13270  0.55120  1.0000 0.1185659751
H   H44       1.0  0.55120  0.14650  0.13270  1.0000 0.1185659751
H   H45       1.0  0.13270  0.55120  0.14650  1.0000 0.1185659751
C   C1        1.0  0.48080  0.30170  0.85810  1.0000 0.5876702689
C   C2        1.0  0.30170  0.85810  0.48080  1.0000 0.5876702689
C   C3        1.0  0.85810  0.48080  0.30170  1.0000 0.5876702689
C   C4        1.0  0.51920  0.14190  0.69830  1.0000 0.5876702689
C   C5        1.0  0.69830  0.51920  0.14190  1.0000 0.5876702689
C   C6        1.0  0.14190  0.69830  0.51920  1.0000 0.5876702689
C   C7        1.0  0.41480  0.33850  0.84410  1.0000 -0.0316412543
C   C8        1.0  0.33850  0.84410  0.41480  1.0000 -0.0316412543
C   C9        1.0  0.84410  0.41480  0.33850  1.0000 -0.0316412543
C   C10       1.0  0.58520  0.15590  0.66150  1.0000 -0.0316412543
C   C11       1.0  0.66150  0.58520  0.15590  1.0000 -0.0316412543
C   C12       1.0  0.15590  0.66150  0.58520  1.0000 -0.0316412543
C   C13       1.0  0.45980  0.43640  0.85810  1.0000 -0.0909744851
C   C14       1.0  0.43640  0.85810  0.45980  1.0000 -0.0909744851
C   C15       1.0  0.85810  0.45980  0.43640  1.0000 -0.0909744851
C   C16       1.0  0.54020  0.14190  0.56360  1.0000 -0.0909744851
C   C17       1.0  0.56360  0.54020  0.14190  1.0000 -0.0909744851
C   C18       1.0  0.14190  0.56360  0.54020  1.0000 -0.0909744851
C   C19       1.0  0.40120  0.47390  0.85100  1.0000 -0.1573868595
C   C20       1.0  0.47390  0.85100  0.40120  1.0000 -0.1573868595
C   C21       1.0  0.85100  0.40120  0.47390  1.0000 -0.1573868595
C   C22       1.0  0.59880  0.14900  0.52610  1.0000 -0.1573868595
C   C23       1.0  0.52610  0.59880  0.14900  1.0000 -0.1573868595
C   C24       1.0  0.14900  0.52610  0.59880  1.0000 -0.1573868595
C   C25       1.0  0.30120  0.41770  0.83380  1.0000 0.0704659808
C   C26       1.0  0.41770  0.83380  0.30120  1.0000 0.0704659808
C   C27       1.0  0.83380  0.30120  0.41770  1.0000 0.0704659808
C   C28       1.0  0.69880  0.16620  0.58230  1.0000 0.0704659808
C   C29       1.0  0.58230  0.69880  0.16620  1.0000 0.0704659808
C   C30       1.0  0.16620  0.58230  0.69880  1.0000 0.0704659808
C   C31       1.0  0.25550  0.31960  0.81860  1.0000 -0.1573868595
C   C32       1.0  0.31960  0.81860  0.25550  1.0000 -0.1573868595
C   C33       1.0  0.81860  0.25550  0.31960  1.0000 -0.1573868595
C   C34       1.0  0.74450  0.18140  0.68040  1.0000 -0.1573868595
C   C35       1.0  0.68040  0.74450  0.18140  1.0000 -0.1573868595
C   C36       1.0  0.18140  0.68040  0.74450  1.0000 -0.1573868595
C   C37       1.0  0.31620  0.28270  0.82870  1.0000 -0.0836161874
C   C38       1.0  0.28270  0.82870  0.31620  1.0000 -0.0836161874
C   C39       1.0  0.82870  0.31620  0.28270  1.0000 -0.0836161874
C   C40       1.0  0.68380  0.17130  0.71730  1.0000 -0.0836161874
C   C41       1.0  0.71730  0.68380  0.17130  1.0000 -0.0836161874
C   C42       1.0  0.17130  0.71730  0.68380  1.0000 -0.0836161874
C   C43       1.0  0.23810  0.45890  0.82480  1.0000 0.0803105531
C   C44       1.0  0.45890  0.82480  0.23810  1.0000 0.0803105531
C   C45       1.0  0.82480  0.23810  0.45890  1.0000 0.0803105531
C   C46       1.0  0.76190  0.17520  0.54110  1.0000 0.0803105531
C   C47       1.0  0.54110  0.76190  0.17520  1.0000 0.0803105531
C   C48       1.0  0.17520  0.54110  0.76190  1.0000 0.0803105531
C   C49       1.0  0.23015  0.50000  0.76985  1.0000 -0.2023050912
C   C50       1.0  0.50000  0.76985  0.23015  1.0000 -0.2023050912
C   C51       1.0  0.76985  0.23015  0.50000  1.0000 -0.2023050912
C   C52       1.0  0.19110  0.46000  0.87310  1.0000 -0.1914365965
C   C53       1.0  0.46000  0.87310  0.19110  1.0000 -0.1914365965
C   C54       1.0  0.87310  0.19110  0.46000  1.0000 -0.1914365965
C   C55       1.0  0.80890  0.12690  0.54000  1.0000 -0.1914365965
C   C56       1.0  0.54000  0.80890  0.12690  1.0000 -0.1914365965
C   C57       1.0  0.12690  0.54000  0.80890  1.0000 -0.1914365965
C   C58       1.0  0.13355  0.50000  0.86645  1.0000 0.0803105531
C   C59       1.0  0.50000  0.86645  0.13355  1.0000 0.0803105531
C   C60       1.0  0.86645  0.13355  0.50000  1.0000 0.0803105531
C   C61       1.0  0.08245  0.50000  0.91755  1.0000 0.0704659808
C   C62       1.0  0.50000  0.91755  0.08245  1.0000 0.0704659808
C   C63       1.0  0.91755  0.08245  0.50000  1.0000 0.0704659808
C   C64       1.0  0.97580  0.47260  0.86130  1.0000 -0.1573868595
C   C65       1.0  0.47260  0.86130  0.97580  1.0000 -0.1573868595
C   C66       1.0  0.86130  0.97580  0.47260  1.0000 -0.1573868595
C   C67       1.0  0.02420  0.13870  0.52740  1.0000 -0.1573868595
C   C68       1.0  0.52740  0.02420  0.13870  1.0000 -0.1573868595
C   C69       1.0  0.13870  0.52740  0.02420  1.0000 -0.1573868595
C   C70       1.0  0.92650  0.47020  0.90730  1.0000 -0.0909744851
C   C71       1.0  0.47020  0.90730  0.92650  1.0000 -0.0909744851
C   C72       1.0  0.90730  0.92650  0.47020  1.0000 -0.0909744851
C   C73       1.0  0.07350  0.09270  0.52980  1.0000 -0.0909744851
C   C74       1.0  0.52980  0.07350  0.09270  1.0000 -0.0909744851
C   C75       1.0  0.09270  0.52980  0.07350  1.0000 -0.0909744851
C   C76       1.0  0.98645  0.50000  0.01355  1.0000 -0.0316412543
C   C77       1.0  0.50000  0.01355  0.98645  1.0000 -0.0316412543
C   C78       1.0  0.01355  0.98645  0.50000  1.0000 -0.0316412543
C   C79       1.0  0.93295  0.50000  0.06705  1.0000 0.6082739057
C   C80       1.0  0.50000  0.06705  0.93295  1.0000 0.6082739057
C   C81       1.0  0.06705  0.93295  0.50000  1.0000 0.6082739057
O   O1        1.0  0.58058  0.36723  0.89109  1.0000 -0.5626470623
O   O2        1.0  0.36723  0.89109  0.58058  1.0000 -0.5626470623
O   O3        1.0  0.89109  0.58058  0.36723  1.0000 -0.5626470623
O   O4        1.0  0.41942  0.10891  0.63277  1.0000 -0.5626470623
O   O5        1.0  0.63277  0.41942  0.10891  1.0000 -0.5626470623
O   O6        1.0  0.10891  0.63277  0.41942  1.0000 -0.5626470623
O   O7        1.0  0.44107  0.21171  0.84622  1.0000 -0.6782126404
O   O8        1.0  0.21171  0.84622  0.44107  1.0000 -0.6782126404
O   O9        1.0  0.84622  0.44107  0.21171  1.0000 -0.6782126404
O   O10       1.0  0.55893  0.15378  0.78829  1.0000 -0.6782126404
O   O11       1.0  0.78829  0.55893  0.15378  1.0000 -0.6782126404
O   O12       1.0  0.15378  0.78829  0.55893  1.0000 -0.6782126404
O   O13       1.0  0.82116  0.43320  0.99624  1.0000 -0.6292298414
O   O14       1.0  0.43320  0.99624  0.82116  1.0000 -0.6292298414
O   O15       1.0  0.99624  0.82116  0.43320  1.0000 -0.6292298414
O   O16       1.0  0.17884  0.00376  0.56680  1.0000 -0.6292298414
O   O17       1.0  0.56680  0.17884  0.00376  1.0000 -0.6292298414
O   O18       1.0  0.00376  0.56680  0.17884  1.0000 -0.6292298414
