# DDEC6 charges by PACMAN v1.1 (https://github.com/mtap-research/PACMAN-charge/)
data_2013[Cd][nan]3[ASR]5
_chemical_formula_sum              "Cd4 H104 C132 O48"
_cell_length_a       16.2845
_cell_length_b       16.2845
_cell_length_c       27.639
_cell_angle_alpha    85.5636
_cell_angle_beta     94.4364
_cell_angle_gamma    108.247

_symmetry_space_group_name_H-M    "P 1"
_symmetry_Int_Tables_number       1

loop_
  _symmetry_equiv_pos_as_xyz
  'x, y, z'

loop_
  _atom_site_type_symbol
  _atom_site_label
  _atom_site_symmetry_multiplicity
  _atom_site_fract_x
  _atom_site_fract_y
  _atom_site_fract_z
  _atom_site_occupancy
  _atom_site_charge
Cd  Cd1       1.0  0.91127  0.66215  0.81096  1.0000 0.9499086339
Cd  Cd2       1.0  0.66215  0.91127  0.68904  1.0000 0.9499086339
Cd  Cd3       1.0  0.08873  0.33785  0.18904  1.0000 0.9499086339
Cd  Cd4       1.0  0.33785  0.08873  0.31096  1.0000 0.9499086339
H   H1        1.0  0.70270  0.71210  0.92110  1.0000 0.1202899665
H   H2        1.0  0.71210  0.70270  0.57890  1.0000 0.1202899665
H   H3        1.0  0.29730  0.28790  0.07890  1.0000 0.1202899665
H   H4        1.0  0.28790  0.29730  0.42110  1.0000 0.1202899665
H   H5        1.0  0.64700  0.71500  0.99480  1.0000 0.1202899665
H   H6        1.0  0.71500  0.64700  0.50520  1.0000 0.1202899665
H   H7        1.0  0.35300  0.28500  0.00520  1.0000 0.1202899665
H   H8        1.0  0.28500  0.35300  0.49480  1.0000 0.1202899665
H   H9        1.0  0.81260  0.59260  0.05730  1.0000 0.1311028127
H   H10       1.0  0.59260  0.81260  0.44270  1.0000 0.1311028127
H   H11       1.0  0.18740  0.40740  0.94270  1.0000 0.1311028127
H   H12       1.0  0.40740  0.18740  0.55730  1.0000 0.1311028127
H   H13       1.0  0.86710  0.59510  0.98200  1.0000 0.1202899665
H   H14       1.0  0.59510  0.86710  0.51800  1.0000 0.1202899665
H   H15       1.0  0.13290  0.40490  0.01800  1.0000 0.1202899665
H   H16       1.0  0.40490  0.13290  0.48200  1.0000 0.1202899665
H   H17       1.0  0.65000  0.75120  0.07140  1.0000 0.1004702926
H   H18       1.0  0.75120  0.65000  0.42860  1.0000 0.1004702926
H   H19       1.0  0.35000  0.24880  0.92860  1.0000 0.1004702926
H   H20       1.0  0.24880  0.35000  0.57140  1.0000 0.1004702926
H   H21       1.0  0.58170  0.65870  0.07810  1.0000 0.1004702926
H   H22       1.0  0.65870  0.58170  0.42190  1.0000 0.1004702926
H   H23       1.0  0.41830  0.34130  0.92190  1.0000 0.1004702926
H   H24       1.0  0.34130  0.41830  0.57810  1.0000 0.1004702926
H   H25       1.0  0.63430  0.62770  0.20570  1.0000 0.1004702926
H   H26       1.0  0.62770  0.63430  0.29430  1.0000 0.1004702926
H   H27       1.0  0.36570  0.37230  0.79430  1.0000 0.1004702926
H   H28       1.0  0.37230  0.36570  0.70570  1.0000 0.1004702926
H   H29       1.0  0.68030  0.59910  0.16490  1.0000 0.1004702926
H   H30       1.0  0.59910  0.68030  0.33510  1.0000 0.1004702926
H   H31       1.0  0.31970  0.40090  0.83510  1.0000 0.1004702926
H   H32       1.0  0.40090  0.31970  0.66490  1.0000 0.1004702926
H   H33       1.0  0.63120  0.48280  0.22410  1.0000 0.1311028127
H   H34       1.0  0.48280  0.63120  0.27590  1.0000 0.1311028127
H   H35       1.0  0.36880  0.51720  0.77590  1.0000 0.1311028127
H   H36       1.0  0.51720  0.36880  0.72410  1.0000 0.1311028127
H   H37       1.0  0.57080  0.35420  0.26520  1.0000 0.1131499496
H   H38       1.0  0.35420  0.57080  0.23480  1.0000 0.1131499496
H   H39       1.0  0.42920  0.64580  0.73480  1.0000 0.1131499496
H   H40       1.0  0.64580  0.42920  0.76520  1.0000 0.1131499496
H   H41       1.0  0.35120  0.31740  0.18190  1.0000 0.1311028127
H   H42       1.0  0.31740  0.35120  0.31810  1.0000 0.1311028127
H   H43       1.0  0.64880  0.68260  0.81810  1.0000 0.1311028127
H   H44       1.0  0.68260  0.64880  0.68190  1.0000 0.1311028127
H   H45       1.0  0.41020  0.45000  0.14260  1.0000 0.1398332131
H   H46       1.0  0.45000  0.41020  0.35740  1.0000 0.1398332131
H   H47       1.0  0.58980  0.55000  0.85740  1.0000 0.1398332131
H   H48       1.0  0.55000  0.58980  0.64260  1.0000 0.1398332131
H   H49       1.0  0.77610  0.74630  0.15180  1.0000 0.1004702926
H   H50       1.0  0.74630  0.77610  0.34820  1.0000 0.1004702926
H   H51       1.0  0.22390  0.25370  0.84820  1.0000 0.1004702926
H   H52       1.0  0.25370  0.22390  0.65180  1.0000 0.1004702926
H   H53       1.0  0.73270  0.77450  0.19390  1.0000 0.1004702926
H   H54       1.0  0.77450  0.73270  0.30610  1.0000 0.1004702926
H   H55       1.0  0.26730  0.22550  0.80610  1.0000 0.1004702926
H   H56       1.0  0.22550  0.26730  0.69390  1.0000 0.1004702926
H   H57       1.0  0.87300  0.87540  0.19660  1.0000 0.1202899665
H   H58       1.0  0.87540  0.87300  0.30340  1.0000 0.1202899665
H   H59       1.0  0.12700  0.12460  0.80340  1.0000 0.1202899665
H   H60       1.0  0.12460  0.12700  0.69660  1.0000 0.1202899665
H   H61       1.0  0.97110  0.01150  0.21190  1.0000 0.1202899665
H   H62       1.0  0.01150  0.97110  0.28810  1.0000 0.1202899665
H   H63       1.0  0.02890  0.98850  0.78810  1.0000 0.1202899665
H   H64       1.0  0.98850  0.02890  0.71190  1.0000 0.1202899665
H   H65       1.0  0.84680  0.12900  0.11740  1.0000 0.1131499496
H   H66       1.0  0.12900  0.84680  0.38260  1.0000 0.1131499496
H   H67       1.0  0.15320  0.87100  0.88260  1.0000 0.1131499496
H   H68       1.0  0.87100  0.15320  0.61740  1.0000 0.1131499496
H   H69       1.0  0.74720  0.99180  0.09990  1.0000 0.1398332131
H   H70       1.0  0.99180  0.74720  0.40010  1.0000 0.1398332131
H   H71       1.0  0.25280  0.00820  0.90010  1.0000 0.1398332131
H   H72       1.0  0.00820  0.25280  0.59990  1.0000 0.1398332131
H   H73       1.0  0.51290  0.69790  0.14570  1.0000 0.1004702926
H   H74       1.0  0.69790  0.51290  0.35430  1.0000 0.1004702926
H   H75       1.0  0.48710  0.30210  0.85430  1.0000 0.1004702926
H   H76       1.0  0.30210  0.48710  0.64570  1.0000 0.1004702926
H   H77       1.0  0.57210  0.79290  0.13260  1.0000 0.088610004
H   H78       1.0  0.79290  0.57210  0.36740  1.0000 0.088610004
H   H79       1.0  0.42790  0.20710  0.86740  1.0000 0.088610004
H   H80       1.0  0.20710  0.42790  0.63260  1.0000 0.088610004
H   H81       1.0  0.61020  0.82800  0.28230  1.0000 0.1131499496
H   H82       1.0  0.82800  0.61020  0.21770  1.0000 0.1131499496
H   H83       1.0  0.38980  0.17200  0.71770  1.0000 0.1131499496
H   H84       1.0  0.17200  0.38980  0.78230  1.0000 0.1131499496
H   H85       1.0  0.54190  0.91410  0.31610  1.0000 0.1202899665
H   H86       1.0  0.91410  0.54190  0.18390  1.0000 0.1202899665
H   H87       1.0  0.45810  0.08590  0.68390  1.0000 0.1202899665
H   H88       1.0  0.08590  0.45810  0.81610  1.0000 0.1202899665
H   H89       1.0  0.38350  0.89990  0.19330  1.0000 0.1202899665
H   H90       1.0  0.89990  0.38350  0.30670  1.0000 0.1202899665
H   H91       1.0  0.61650  0.10010  0.80670  1.0000 0.1202899665
H   H92       1.0  0.10010  0.61650  0.69330  1.0000 0.1202899665
H   H93       1.0  0.45330  0.80730  0.16240  1.0000 0.1202899665
H   H94       1.0  0.80730  0.45330  0.33760  1.0000 0.1202899665
H   H95       1.0  0.54670  0.19270  0.83760  1.0000 0.1202899665
H   H96       1.0  0.19270  0.54670  0.66240  1.0000 0.1202899665
H   H97       1.0  0.49890  0.19150  0.27580  1.0000 0.3736479555
H   H98       1.0  0.19150  0.49890  0.22420  1.0000 0.3736479555
H   H99       1.0  0.50110  0.80850  0.72420  1.0000 0.3736479555
H   H100      1.0  0.80850  0.50110  0.77580  1.0000 0.3736479555
H   H101      1.0  0.93370  0.25170  0.16440  1.0000 0.3806585271
H   H102      1.0  0.25170  0.93370  0.33560  1.0000 0.3806585271
H   H103      1.0  0.06630  0.74830  0.83560  1.0000 0.3806585271
H   H104      1.0  0.74830  0.06630  0.66440  1.0000 0.3806585271
C   C1        1.0  0.82690  0.65750  0.89620  1.0000 0.5497188021
C   C2        1.0  0.65750  0.82690  0.60380  1.0000 0.5497188021
C   C3        1.0  0.17310  0.34250  0.10380  1.0000 0.5497188021
C   C4        1.0  0.34250  0.17310  0.39620  1.0000 0.5497188021
C   C5        1.0  0.79070  0.65610  0.94350  1.0000 -0.0610255582
C   C6        1.0  0.65610  0.79070  0.55650  1.0000 -0.0610255582
C   C7        1.0  0.20930  0.34390  0.05650  1.0000 -0.0610255582
C   C8        1.0  0.34390  0.20930  0.44350  1.0000 -0.0610255582
C   C9        1.0  0.72590  0.68930  0.94880  1.0000 -0.0684826452
C   C10       1.0  0.68930  0.72590  0.55120  1.0000 -0.0684826452
C   C11       1.0  0.27410  0.31070  0.05120  1.0000 -0.0684826452
C   C12       1.0  0.31070  0.27410  0.44880  1.0000 -0.0684826452
C   C13       1.0  0.69160  0.69140  0.99290  1.0000 -0.2490626546
C   C14       1.0  0.69140  0.69160  0.50710  1.0000 -0.2490626546
C   C15       1.0  0.30840  0.30860  0.00710  1.0000 -0.2490626546
C   C16       1.0  0.30860  0.30840  0.49290  1.0000 -0.2490626546
C   C17       1.0  0.72630  0.65690  0.03400  1.0000 0.2589949418
C   C18       1.0  0.65690  0.72630  0.46600  1.0000 0.2589949418
C   C19       1.0  0.27370  0.34310  0.96600  1.0000 0.2589949418
C   C20       1.0  0.34310  0.27370  0.53400  1.0000 0.2589949418
C   C21       1.0  0.79120  0.61840  0.03000  1.0000 -0.2299707582
C   C22       1.0  0.61840  0.79120  0.47000  1.0000 -0.2299707582
C   C23       1.0  0.20880  0.38160  0.97000  1.0000 -0.2299707582
C   C24       1.0  0.38160  0.20880  0.53000  1.0000 -0.2299707582
C   C25       1.0  0.82310  0.61950  0.98480  1.0000 -0.0610255582
C   C26       1.0  0.61950  0.82310  0.51520  1.0000 -0.0610255582
C   C27       1.0  0.17690  0.38050  0.01520  1.0000 -0.0610255582
C   C28       1.0  0.38050  0.17690  0.48480  1.0000 -0.0610255582
C   C29       1.0  0.63836  0.69524  0.08905  1.0000 -0.087739032
C   C30       1.0  0.69524  0.63836  0.41095  1.0000 -0.087739032
C   C31       1.0  0.36164  0.30476  0.91095  1.0000 -0.087739032
C   C32       1.0  0.30476  0.36164  0.58905  1.0000 -0.087739032
C   C33       1.0  0.64200  0.70560  0.14297  1.0000 0.088610004
C   C34       1.0  0.70560  0.64200  0.35703  1.0000 0.088610004
C   C35       1.0  0.35800  0.29440  0.85703  1.0000 0.088610004
C   C36       1.0  0.29440  0.35800  0.64297  1.0000 0.088610004
C   C37       1.0  0.63300  0.62040  0.17111  1.0000 -0.087739032
C   C38       1.0  0.62040  0.63300  0.32889  1.0000 -0.087739032
C   C39       1.0  0.36700  0.37960  0.82889  1.0000 -0.087739032
C   C40       1.0  0.37960  0.36700  0.67111  1.0000 -0.087739032
C   C41       1.0  0.52430  0.48090  0.18000  1.0000 0.2480574001
C   C42       1.0  0.48090  0.52430  0.32000  1.0000 0.2480574001
C   C43       1.0  0.47570  0.51910  0.82000  1.0000 0.2480574001
C   C44       1.0  0.51910  0.47570  0.68000  1.0000 0.2480574001
C   C45       1.0  0.57430  0.45010  0.21640  1.0000 -0.2016362759
C   C46       1.0  0.45010  0.57430  0.28360  1.0000 -0.2016362759
C   C47       1.0  0.42570  0.54990  0.78360  1.0000 -0.2016362759
C   C48       1.0  0.54990  0.42570  0.71640  1.0000 -0.2016362759
C   C49       1.0  0.53900  0.37300  0.23990  1.0000 -0.1064675028
C   C50       1.0  0.37300  0.53900  0.26010  1.0000 -0.1064675028
C   C51       1.0  0.46100  0.62700  0.76010  1.0000 -0.1064675028
C   C52       1.0  0.62700  0.46100  0.73990  1.0000 -0.1064675028
C   C53       1.0  0.45500  0.32040  0.22690  1.0000 -0.0531632106
C   C54       1.0  0.32040  0.45500  0.27310  1.0000 -0.0531632106
C   C55       1.0  0.54500  0.67960  0.77310  1.0000 -0.0531632106
C   C56       1.0  0.67960  0.54500  0.72690  1.0000 -0.0531632106
C   C57       1.0  0.40740  0.35080  0.19060  1.0000 -0.0610255582
C   C58       1.0  0.35080  0.40740  0.30940  1.0000 -0.0610255582
C   C59       1.0  0.59260  0.64920  0.80940  1.0000 -0.0684826452
C   C60       1.0  0.64920  0.59260  0.69060  1.0000 -0.0684826452
C   C61       1.0  0.44250  0.43030  0.16740  1.0000 -0.2016362759
C   C62       1.0  0.43030  0.44250  0.33260  1.0000 -0.2016362759
C   C63       1.0  0.55750  0.56970  0.83260  1.0000 -0.2016362759
C   C64       1.0  0.56970  0.55750  0.66740  1.0000 -0.2016362759
C   C65       1.0  0.41520  0.23600  0.25580  1.0000 0.5497188021
C   C66       1.0  0.23600  0.41520  0.24420  1.0000 0.5497188021
C   C67       1.0  0.58480  0.76400  0.74420  1.0000 0.5497188021
C   C68       1.0  0.76400  0.58480  0.75580  1.0000 0.5497188021
C   C69       1.0  0.72970  0.76810  0.15920  1.0000 -0.0769186837
C   C70       1.0  0.76810  0.72970  0.34080  1.0000 -0.0769186837
C   C71       1.0  0.27030  0.23190  0.84080  1.0000 -0.0769186837
C   C72       1.0  0.23190  0.27030  0.65920  1.0000 -0.0769186837
C   C73       1.0  0.80150  0.92110  0.14700  1.0000 0.2414051101
C   C74       1.0  0.92110  0.80150  0.35300  1.0000 0.2414051101
C   C75       1.0  0.19850  0.07890  0.85300  1.0000 0.2414051101
C   C76       1.0  0.07890  0.19850  0.64700  1.0000 0.2414051101
C   C77       1.0  0.86650  0.92510  0.18010  1.0000 -0.2411395179
C   C78       1.0  0.92510  0.86650  0.31990  1.0000 -0.2411395179
C   C79       1.0  0.13350  0.07490  0.81990  1.0000 -0.2411395179
C   C80       1.0  0.07490  0.13350  0.68010  1.0000 -0.2411395179
C   C81       1.0  0.92500  0.00780  0.18920  1.0000 -0.0684826452
C   C82       1.0  0.00780  0.92500  0.31080  1.0000 -0.0684826452
C   C83       1.0  0.07500  0.99220  0.81080  1.0000 -0.0684826452
C   C84       1.0  0.99220  0.07500  0.68920  1.0000 -0.0684826452
C   C85       1.0  0.91730  0.08170  0.16660  1.0000 -0.0610255582
C   C86       1.0  0.08170  0.91730  0.33340  1.0000 -0.0610255582
C   C87       1.0  0.08270  0.91830  0.83340  1.0000 -0.0610255582
C   C88       1.0  0.91830  0.08270  0.66667  1.0000 -0.0610255582
C   C89       1.0  0.85280  0.07860  0.13350  1.0000 -0.0769186837
C   C90       1.0  0.07860  0.85280  0.36650  1.0000 -0.0769186837
C   C91       1.0  0.14720  0.92140  0.86650  1.0000 -0.0769186837
C   C92       1.0  0.92140  0.14720  0.63350  1.0000 -0.0769186837
C   C93       1.0  0.79260  0.99540  0.12300  1.0000 -0.2299707582
C   C94       1.0  0.99540  0.79260  0.37700  1.0000 -0.2299707582
C   C95       1.0  0.20740  0.00460  0.87700  1.0000 -0.2299707582
C   C96       1.0  0.00460  0.20740  0.62300  1.0000 -0.2299707582
C   C97       1.0  0.98210  0.16410  0.18050  1.0000 0.5378145028
C   C98       1.0  0.16410  0.98210  0.31950  1.0000 0.5378145028
C   C99       1.0  0.01790  0.83590  0.81950  1.0000 0.5378145028
C   C100      1.0  0.83590  0.01790  0.68050  1.0000 0.5378145028
C   C101      1.0  0.56860  0.74040  0.15265  1.0000 -0.097717107
C   C102      1.0  0.74040  0.56860  0.34735  1.0000 -0.097717107
C   C103      1.0  0.43140  0.25960  0.84735  1.0000 -0.097717107
C   C104      1.0  0.25960  0.43140  0.65265  1.0000 -0.097717107
C   C105      1.0  0.53410  0.81070  0.21880  1.0000 0.2414051101
C   C106      1.0  0.81070  0.53410  0.28120  1.0000 0.2414051101
C   C107      1.0  0.46590  0.18930  0.78120  1.0000 0.2414051101
C   C108      1.0  0.18930  0.46590  0.71880  1.0000 0.2414051101
C   C109      1.0  0.56420  0.84200  0.26550  1.0000 -0.2490626546
C   C110      1.0  0.84200  0.56420  0.23450  1.0000 -0.2411395179
C   C111      1.0  0.43580  0.15800  0.73450  1.0000 -0.2490626546
C   C112      1.0  0.15800  0.43580  0.76550  1.0000 -0.2490626546
C   C113      1.0  0.52400  0.89320  0.28540  1.0000 -0.087739032
C   C114      1.0  0.89320  0.52400  0.21460  1.0000 -0.087739032
C   C115      1.0  0.47600  0.10680  0.71460  1.0000 -0.087739032
C   C116      1.0  0.10680  0.47600  0.78540  1.0000 -0.087739032
C   C117      1.0  0.45660  0.91340  0.25880  1.0000 -0.0181932656
C   C118      1.0  0.91340  0.45660  0.24120  1.0000 -0.0181932656
C   C119      1.0  0.54340  0.08660  0.74120  1.0000 -0.0181932656
C   C120      1.0  0.08660  0.54340  0.75880  1.0000 -0.0181932656
C   C121      1.0  0.42750  0.88430  0.21130  1.0000 -0.087739032
C   C122      1.0  0.88430  0.42750  0.28870  1.0000 -0.087739032
C   C123      1.0  0.57250  0.11570  0.78870  1.0000 -0.087739032
C   C124      1.0  0.11570  0.57250  0.71130  1.0000 -0.087739032
C   C125      1.0  0.47050  0.82950  0.19280  1.0000 -0.2299707582
C   C126      1.0  0.82950  0.47050  0.30720  1.0000 -0.2299707582
C   C127      1.0  0.52950  0.17050  0.80720  1.0000 -0.2299707582
C   C128      1.0  0.17050  0.52950  0.69280  1.0000 -0.2299707582
C   C129      1.0  0.41250  0.97610  0.27790  1.0000 0.5378145028
C   C130      1.0  0.97610  0.41250  0.22210  1.0000 0.5378145028
C   C131      1.0  0.58750  0.02390  0.72210  1.0000 0.5378145028
C   C132      1.0  0.02390  0.58750  0.77790  1.0000 0.5378145028
O   O1        1.0  0.87856  0.61464  0.89219  1.0000 -0.5426262866
O   O2        1.0  0.61464  0.87856  0.60781  1.0000 -0.5426262866
O   O3        1.0  0.12144  0.38536  0.10781  1.0000 -0.5426262866
O   O4        1.0  0.38536  0.12144  0.39219  1.0000 -0.5426262866
O   O5        1.0  0.80774  0.70386  0.86131  1.0000 -0.5487677108
O   O6        1.0  0.70386  0.80774  0.63869  1.0000 -0.5487677108
O   O7        1.0  0.19226  0.29614  0.13869  1.0000 -0.5487677108
O   O8        1.0  0.29614  0.19226  0.36131  1.0000 -0.5487677108
O   O9        1.0  0.70327  0.65633  0.08101  1.0000 -0.1901197906
O   O10       1.0  0.65633  0.70327  0.41899  1.0000 -0.1901197906
O   O11       1.0  0.29673  0.34367  0.91899  1.0000 -0.1901197906
O   O12       1.0  0.34367  0.29673  0.58101  1.0000 -0.1901197906
O   O13       1.0  0.55261  0.56099  0.15566  1.0000 -0.17738781
O   O14       1.0  0.56099  0.55261  0.34434  1.0000 -0.17738781
O   O15       1.0  0.44739  0.43901  0.84434  1.0000 -0.17738781
O   O16       1.0  0.43901  0.44739  0.65566  1.0000 -0.17738781
O   O17       1.0  0.33792  0.19488  0.24643  1.0000 -0.4634462993
O   O18       1.0  0.19488  0.33792  0.25357  1.0000 -0.4634462993
O   O19       1.0  0.66208  0.80512  0.75357  1.0000 -0.4634462993
O   O20       1.0  0.80512  0.66208  0.74643  1.0000 -0.4634462993
O   O21       1.0  0.46112  0.21136  0.28962  1.0000 -0.4268473338
O   O22       1.0  0.21136  0.46112  0.21038  1.0000 -0.4268473338
O   O23       1.0  0.53888  0.78864  0.71038  1.0000 -0.4268473338
O   O24       1.0  0.78864  0.53888  0.78962  1.0000 -0.4268473338
O   O25       1.0  0.73740  0.84800  0.13367  1.0000 -0.17738781
O   O26       1.0  0.84800  0.73740  0.36633  1.0000 -0.17738781
O   O27       1.0  0.26260  0.15200  0.86633  1.0000 -0.17738781
O   O28       1.0  0.15200  0.26260  0.63367  1.0000 -0.17738781
O   O29       1.0  0.97221  0.23099  0.15390  1.0000 -0.4386041116
O   O30       1.0  0.23099  0.97221  0.34610  1.0000 -0.4386041116
O   O31       1.0  0.02779  0.76901  0.84610  1.0000 -0.4386041116
O   O32       1.0  0.76901  0.02779  0.65390  1.0000 -0.4386041116
O   O33       1.0  0.03828  0.17332  0.21046  1.0000 -0.3955399643
O   O34       1.0  0.17332  0.03828  0.28954  1.0000 -0.3940572988
O   O35       1.0  0.96172  0.82668  0.78954  1.0000 -0.3940572988
O   O36       1.0  0.82668  0.96172  0.71046  1.0000 -0.3940572988
O   O37       1.0  0.58010  0.75850  0.20434  1.0000 -0.2411395179
O   O38       1.0  0.75850  0.58010  0.29566  1.0000 -0.2411395179
O   O39       1.0  0.41990  0.24150  0.79566  1.0000 -0.2411395179
O   O40       1.0  0.24150  0.41990  0.70434  1.0000 -0.2411395179
O   O41       1.0  0.35860  0.99800  0.25100  1.0000 -0.5682283293
O   O42       1.0  0.99800  0.35860  0.24900  1.0000 -0.5682283293
O   O43       1.0  0.64140  0.00200  0.74900  1.0000 -0.5682283293
O   O44       1.0  0.00200  0.64140  0.75100  1.0000 -0.5682283293
O   O45       1.0  0.43591  0.00109  0.31960  1.0000 -0.5598183076
O   O46       1.0  0.00109  0.43591  0.18040  1.0000 -0.5598183076
O   O47       1.0  0.56409  0.99891  0.68040  1.0000 -0.5598183076
O   O48       1.0  0.99891  0.56409  0.81960  1.0000 -0.5598183076
