# DDEC6 charges by PACMAN v1.1 (https://github.com/mtap-research/PACMAN-charge/)
data_2014[Zn][nan]3[ASR]26
_chemical_formula_sum              "Zn8 H64 C84 O40"
_cell_length_a       7.808
_cell_length_b       17.456
_cell_length_c       18.918
_cell_angle_alpha    90
_cell_angle_beta     106.42
_cell_angle_gamma    90

_symmetry_space_group_name_H-M    "P 1"
_symmetry_Int_Tables_number       1

loop_
  _symmetry_equiv_pos_as_xyz
  'x, y, z'

loop_
  _atom_site_type_symbol
  _atom_site_label
  _atom_site_symmetry_multiplicity
  _atom_site_fract_x
  _atom_site_fract_y
  _atom_site_fract_z
  _atom_site_occupancy
  _atom_site_charge
Zn  Zn1       1.0  0.20916  0.20199  0.21983  1.0000 0.9218652442
Zn  Zn2       1.0  0.79084  0.70199  0.28017  1.0000 0.9218652442
Zn  Zn3       1.0  0.79084  0.79801  0.78017  1.0000 0.9218652442
Zn  Zn4       1.0  0.20916  0.29801  0.71983  1.0000 0.9218652442
Zn  Zn5       1.0  0.45925  0.12004  0.11353  1.0000 0.9856537476
Zn  Zn6       1.0  0.54075  0.62004  0.38647  1.0000 0.9856537476
Zn  Zn7       1.0  0.54075  0.87996  0.88647  1.0000 0.9856537476
Zn  Zn8       1.0  0.45925  0.37996  0.61353  1.0000 0.9856537476
H   H1        1.0  0.54170  0.39860  0.27570  1.0000 0.1293191768
H   H2        1.0  0.45830  0.89860  0.22430  1.0000 0.1293191768
H   H3        1.0  0.45830  0.60140  0.72430  1.0000 0.1293191768
H   H4        1.0  0.54170  0.10140  0.77570  1.0000 0.1293191768
H   H5        1.0  0.83020  0.29310  0.15950  1.0000 0.1383203163
H   H6        1.0  0.16980  0.79310  0.34050  1.0000 0.1383203163
H   H7        1.0  0.16980  0.70690  0.84050  1.0000 0.1383203163
H   H8        1.0  0.83020  0.20690  0.65950  1.0000 0.1383203163
H   H9        1.0  0.92850  0.51290  0.21750  1.0000 0.1383203163
H   H10       1.0  0.07150  0.01290  0.28250  1.0000 0.1383203163
H   H11       1.0  0.07150  0.48710  0.78250  1.0000 0.1383203163
H   H12       1.0  0.92850  0.98710  0.71750  1.0000 0.1383203163
H   H13       1.0  0.03280  0.50740  0.12980  1.0000 0.0904711405
H   H14       1.0  0.96720  0.00740  0.37020  1.0000 0.0904711405
H   H15       1.0  0.96720  0.49260  0.87020  1.0000 0.0904711405
H   H16       1.0  0.03280  0.99260  0.62980  1.0000 0.0904711405
H   H17       1.0  0.21670  0.47550  0.17730  1.0000 0.1091407551
H   H18       1.0  0.78330  0.97550  0.32270  1.0000 0.1091407551
H   H19       1.0  0.78330  0.52450  0.82270  1.0000 0.1091407551
H   H20       1.0  0.21670  0.02450  0.67730  1.0000 0.1091407551
H   H21       1.0  0.24360  0.51000  0.07050  1.0000 0.1091407551
H   H22       1.0  0.75640  0.01000  0.42950  1.0000 0.1091407551
H   H23       1.0  0.75640  0.49000  0.92950  1.0000 0.1091407551
H   H24       1.0  0.24360  0.99000  0.57050  1.0000 0.1091407551
H   H25       1.0  0.07340  0.46490  0.02860  1.0000 0.1005990277
H   H26       1.0  0.92660  0.96490  0.47140  1.0000 0.1005990277
H   H27       1.0  0.92660  0.53510  0.97140  1.0000 0.1005990277
H   H28       1.0  0.07340  0.03510  0.52860  1.0000 0.1005990277
H   H29       1.0  0.38630  0.40450  0.10030  1.0000 0.0904711405
H   H30       1.0  0.61370  0.90450  0.39970  1.0000 0.0904711405
H   H31       1.0  0.61370  0.59550  0.89970  1.0000 0.0904711405
H   H32       1.0  0.38630  0.09550  0.60030  1.0000 0.0904711405
H   H33       1.0  0.21540  0.35860  0.05930  1.0000 0.1005990277
H   H34       1.0  0.78460  0.85860  0.44070  1.0000 0.1005990277
H   H35       1.0  0.78460  0.64140  0.94070  1.0000 0.1005990277
H   H36       1.0  0.21540  0.14140  0.55930  1.0000 0.1005990277
H   H37       1.0  0.37890  0.46000  0.97250  1.0000 0.1091407551
H   H38       1.0  0.62110  0.96000  0.52750  1.0000 0.1091407551
H   H39       1.0  0.62110  0.54000  0.02750  1.0000 0.1091407551
H   H40       1.0  0.37890  0.04000  0.47250  1.0000 0.1091407551
H   H41       1.0  0.24560  0.39240  0.93980  1.0000 0.1164445996
H   H42       1.0  0.75440  0.89240  0.56020  1.0000 0.1164445996
H   H43       1.0  0.75440  0.60760  0.06020  1.0000 0.1164445996
H   H44       1.0  0.24560  0.10760  0.43980  1.0000 0.1164445996
H   H45       1.0  0.46180  0.30520  0.01350  1.0000 0.1005990277
H   H46       1.0  0.53820  0.80520  0.48650  1.0000 0.1005990277
H   H47       1.0  0.53820  0.69480  0.98650  1.0000 0.1005990277
H   H48       1.0  0.46180  0.19480  0.51350  1.0000 0.1005990277
H   H49       1.0  0.59640  0.37420  0.03460  1.0000 0.0904711405
H   H50       1.0  0.40360  0.87420  0.46540  1.0000 0.0904711405
H   H51       1.0  0.40360  0.62580  0.96540  1.0000 0.0904711405
H   H52       1.0  0.59640  0.12580  0.53460  1.0000 0.0904711405
H   H53       1.0  0.69730  0.34350  0.83200  1.0000 0.1383203163
H   H54       1.0  0.30270  0.84350  0.66800  1.0000 0.1383203163
H   H55       1.0  0.30270  0.65650  0.16800  1.0000 0.1383203163
H   H56       1.0  0.69730  0.15650  0.33200  1.0000 0.1383203163
H   H57       1.0  0.13440  0.22260  0.93060  1.0000 0.1293191768
H   H58       1.0  0.86560  0.72260  0.56940  1.0000 0.1293191768
H   H59       1.0  0.86560  0.77740  0.06940  1.0000 0.1293191768
H   H60       1.0  0.13440  0.27740  0.43060  1.0000 0.1293191768
H   H61       1.0  0.75950  0.26060  0.03550  1.0000 0.1293191768
H   H62       1.0  0.24050  0.76060  0.46450  1.0000 0.1293191768
H   H63       1.0  0.24050  0.73940  0.96450  1.0000 0.1293191768
H   H64       1.0  0.75950  0.23940  0.53550  1.0000 0.1293191768
C   C1        1.0  0.68610  0.53730  0.28720  1.0000 0.605785419
C   C2        1.0  0.31390  0.03730  0.21280  1.0000 0.605785419
C   C3        1.0  0.31390  0.46270  0.71280  1.0000 0.605785419
C   C4        1.0  0.68610  0.96270  0.78720  1.0000 0.605785419
C   C5        1.0  0.73010  0.46520  0.25310  1.0000 -0.0017308717
C   C6        1.0  0.26990  0.96520  0.24690  1.0000 -0.0017308717
C   C7        1.0  0.26990  0.53480  0.74690  1.0000 -0.0017308717
C   C8        1.0  0.73010  0.03480  0.75310  1.0000 -0.0017308717
C   C9        1.0  0.63020  0.39990  0.25150  1.0000 -0.1399416966
C   C10       1.0  0.36980  0.89990  0.24850  1.0000 -0.1399416966
C   C11       1.0  0.36980  0.60010  0.74850  1.0000 -0.1399416966
C   C12       1.0  0.63020  0.10010  0.75150  1.0000 -0.1399416966
C   C13       1.0  0.66300  0.33570  0.21360  1.0000 -0.0155002517
C   C14       1.0  0.33700  0.83570  0.28640  1.0000 -0.0155002517
C   C15       1.0  0.33700  0.66430  0.78640  1.0000 -0.0155002517
C   C16       1.0  0.66300  0.16430  0.71360  1.0000 -0.0155002517
C   C17       1.0  0.80250  0.33700  0.18200  1.0000 -0.2091869879
C   C18       1.0  0.19750  0.83700  0.31800  1.0000 -0.2091869879
C   C19       1.0  0.19750  0.66300  0.81800  1.0000 -0.2091869879
C   C20       1.0  0.80250  0.16300  0.68200  1.0000 -0.2091869879
C   C21       1.0  0.90100  0.40310  0.18350  1.0000 0.2468068048
C   C22       1.0  0.09900  0.90310  0.31650  1.0000 0.2468068048
C   C23       1.0  0.09900  0.59690  0.81650  1.0000 0.2468068048
C   C24       1.0  0.90100  0.09690  0.68350  1.0000 0.2468068048
C   C25       1.0  0.86460  0.46790  0.21780  1.0000 -0.2394923002
C   C26       1.0  0.13540  0.96790  0.28220  1.0000 -0.2394923002
C   C27       1.0  0.13540  0.53210  0.78220  1.0000 -0.2394923002
C   C28       1.0  0.86460  0.03210  0.71780  1.0000 -0.2394923002
C   C29       1.0  0.53880  0.26830  0.20140  1.0000 0.592120935
C   C30       1.0  0.46120  0.76830  0.29860  1.0000 0.592120935
C   C31       1.0  0.46120  0.73170  0.79860  1.0000 0.592120935
C   C32       1.0  0.53880  0.23170  0.70140  1.0000 0.592120935
C   C33       1.0  0.11600  0.46520  0.13480  1.0000 -0.0332286043
C   C34       1.0  0.88400  0.96520  0.36520  1.0000 -0.0332286043
C   C35       1.0  0.88400  0.53480  0.86520  1.0000 -0.0332286043
C   C36       1.0  0.11600  0.03480  0.63480  1.0000 -0.0332286043
C   C37       1.0  0.17800  0.46290  0.07090  1.0000 -0.2091869879
C   C38       1.0  0.82200  0.96290  0.42910  1.0000 -0.2091869879
C   C39       1.0  0.82200  0.53710  0.92910  1.0000 -0.2091869879
C   C40       1.0  0.17800  0.03710  0.57090  1.0000 -0.2091869879
C   C41       1.0  0.27900  0.40620  0.05900  1.0000 -0.1399416966
C   C42       1.0  0.72100  0.90620  0.44100  1.0000 -0.1399416966
C   C43       1.0  0.72100  0.59380  0.94100  1.0000 -0.1399416966
C   C44       1.0  0.27900  0.09380  0.55900  1.0000 -0.1399416966
C   C45       1.0  0.34190  0.40880  0.98180  1.0000 -0.227880574
C   C46       1.0  0.65810  0.90880  0.51820  1.0000 -0.227880574
C   C47       1.0  0.65810  0.59120  0.01820  1.0000 -0.227880574
C   C48       1.0  0.34190  0.09120  0.48180  1.0000 -0.227880574
C   C49       1.0  0.49570  0.35390  0.99660  1.0000 -0.0155002517
C   C50       1.0  0.50430  0.85390  0.50340  1.0000 -0.0155002517
C   C51       1.0  0.50430  0.64610  0.00340  1.0000 -0.0155002517
C   C52       1.0  0.49570  0.14610  0.49660  1.0000 -0.0155002517
C   C53       1.0  0.70320  0.30790  0.93390  1.0000 0.2468068048
C   C54       1.0  0.29680  0.80790  0.56610  1.0000 0.2468068048
C   C55       1.0  0.29680  0.69210  0.06610  1.0000 0.2468068048
C   C56       1.0  0.70320  0.19210  0.43390  1.0000 0.2468068048
C   C57       1.0  0.76530  0.31630  0.87260  1.0000 -0.2091869879
C   C58       1.0  0.23470  0.81630  0.62740  1.0000 -0.2091869879
C   C59       1.0  0.23470  0.68370  0.12740  1.0000 -0.2091869879
C   C60       1.0  0.76530  0.18370  0.37260  1.0000 -0.2091869879
C   C61       1.0  0.92580  0.28520  0.87070  1.0000 -0.0017308717
C   C62       1.0  0.07420  0.78520  0.62930  1.0000 -0.0017308717
C   C63       1.0  0.07420  0.71480  0.12930  1.0000 -0.0017308717
C   C64       1.0  0.92580  0.21480  0.37070  1.0000 -0.0017308717
C   C65       1.0  0.02650  0.24440  0.93160  1.0000 -0.1399416966
C   C66       1.0  0.97350  0.74440  0.56840  1.0000 -0.1399416966
C   C67       1.0  0.97350  0.75560  0.06840  1.0000 -0.1399416966
C   C68       1.0  0.02650  0.25560  0.43160  1.0000 -0.1399416966
C   C69       1.0  0.96660  0.23610  0.99380  1.0000 -0.0017308717
C   C70       1.0  0.03340  0.73610  0.50620  1.0000 -0.0017308717
C   C71       1.0  0.03340  0.76390  0.00620  1.0000 -0.0017308717
C   C72       1.0  0.96660  0.26390  0.49380  1.0000 -0.0017308717
C   C73       1.0  0.80200  0.26720  0.99470  1.0000 -0.2394923002
C   C74       1.0  0.19800  0.76720  0.50530  1.0000 -0.2394923002
C   C75       1.0  0.19800  0.73280  0.00530  1.0000 -0.2394923002
C   C76       1.0  0.80200  0.23280  0.49470  1.0000 -0.2394923002
C   C77       1.0  0.00040  0.29900  0.80690  1.0000 0.5422364369
C   C78       1.0  0.99960  0.79900  0.69310  1.0000 0.5422364369
C   C79       1.0  0.99960  0.70100  0.19310  1.0000 0.5422364369
C   C80       1.0  0.00040  0.20100  0.30690  1.0000 0.5422364369
C   C81       1.0  0.08900  0.19960  0.06140  1.0000 0.5951838985
C   C82       1.0  0.91100  0.69960  0.43860  1.0000 0.5951838985
C   C83       1.0  0.91100  0.80040  0.93860  1.0000 0.5951838985
C   C84       1.0  0.08900  0.30040  0.56140  1.0000 0.5951838985
O   O1        1.0  0.56660  0.21530  0.16000  1.0000 -0.5865329311
O   O2        1.0  0.43340  0.71530  0.34000  1.0000 -0.5865329311
O   O3        1.0  0.43340  0.78470  0.84000  1.0000 -0.5865329311
O   O4        1.0  0.56660  0.28470  0.66000  1.0000 -0.5865329311
O   O5        1.0  0.41260  0.27060  0.23100  1.0000 -0.5372555758
O   O6        1.0  0.58740  0.77060  0.26900  1.0000 -0.5372555758
O   O7        1.0  0.58740  0.72940  0.76900  1.0000 -0.5372555758
O   O8        1.0  0.41260  0.22940  0.73100  1.0000 -0.5372555758
O   O9        1.0  0.63780  0.53060  0.34610  1.0000 -0.5489305958
O   O10       1.0  0.36220  0.03060  0.15390  1.0000 -0.5489305958
O   O11       1.0  0.36220  0.46940  0.65390  1.0000 -0.5489305958
O   O12       1.0  0.63780  0.96940  0.84610  1.0000 -0.5489305958
O   O13       1.0  0.69570  0.59880  0.25700  1.0000 -0.5372555758
O   O14       1.0  0.30430  0.09880  0.24300  1.0000 -0.5372555758
O   O15       1.0  0.30430  0.40120  0.74300  1.0000 -0.5372555758
O   O16       1.0  0.69570  0.90120  0.75700  1.0000 -0.5372555758
O   O17       1.0  0.03170  0.39780  0.14810  1.0000 -0.1776983787
O   O18       1.0  0.96830  0.89780  0.35190  1.0000 -0.1776983787
O   O19       1.0  0.96830  0.60220  0.85190  1.0000 -0.1776983787
O   O20       1.0  0.03170  0.10220  0.64810  1.0000 -0.1776983787
O   O21       1.0  0.54330  0.34340  0.93030  1.0000 -0.1776983787
O   O22       1.0  0.45670  0.84340  0.56970  1.0000 -0.1776983787
O   O23       1.0  0.45670  0.65660  0.06970  1.0000 -0.1776983787
O   O24       1.0  0.54330  0.15660  0.43030  1.0000 -0.1776983787
O   O25       1.0  0.93970  0.35150  0.76300  1.0000 -0.5319245264
O   O26       1.0  0.06030  0.85150  0.73700  1.0000 -0.5319245264
O   O27       1.0  0.06030  0.64850  0.23700  1.0000 -0.5319245264
O   O28       1.0  0.93970  0.14850  0.26300  1.0000 -0.5319245264
O   O29       1.0  0.12810  0.25590  0.80090  1.0000 -0.5319245264
O   O30       1.0  0.87190  0.75590  0.69910  1.0000 -0.5319245264
O   O31       1.0  0.87190  0.74410  0.19910  1.0000 -0.5319245264
O   O32       1.0  0.12810  0.24410  0.30090  1.0000 -0.5319245264
O   O33       1.0  0.22370  0.16680  0.05430  1.0000 -0.5663061247
O   O34       1.0  0.77630  0.66680  0.44570  1.0000 -0.5663061247
O   O35       1.0  0.77630  0.83320  0.94570  1.0000 -0.5663061247
O   O36       1.0  0.22370  0.33320  0.55430  1.0000 -0.5663061247
O   O37       1.0  0.04560  0.20600  0.12070  1.0000 -0.5372555758
O   O38       1.0  0.95440  0.70600  0.37930  1.0000 -0.5372555758
O   O39       1.0  0.95440  0.79400  0.87930  1.0000 -0.5372555758
O   O40       1.0  0.04560  0.29400  0.62070  1.0000 -0.5372555758
