# DDEC6 charges by PACMAN v1.1 (https://github.com/mtap-research/PACMAN-charge/)
data_2014[Zn][pts]3[ASR]1
_chemical_formula_sum              "Zn8 H56 C84 N24 O32"
_cell_length_a       15.2173
_cell_length_b       15.2173
_cell_length_c       35.757
_cell_angle_alpha    81.4979
_cell_angle_beta     98.5021
_cell_angle_gamma    152.177

_symmetry_space_group_name_H-M    "P 1"
_symmetry_Int_Tables_number       1

loop_
  _symmetry_equiv_pos_as_xyz
  'x, y, z'

loop_
  _atom_site_type_symbol
  _atom_site_label
  _atom_site_symmetry_multiplicity
  _atom_site_fract_x
  _atom_site_fract_y
  _atom_site_fract_z
  _atom_site_occupancy
  _atom_site_charge
Zn  Zn1       1.0  0.17181  0.75245  0.81534  1.0000 0.9212819776
Zn  Zn2       1.0  0.75245  0.17181  0.68466  1.0000 0.9212819776
Zn  Zn3       1.0  0.82819  0.24755  0.18466  1.0000 0.9212819776
Zn  Zn4       1.0  0.24755  0.82819  0.31534  1.0000 0.9212819776
Zn  Zn5       1.0  0.99273  0.89743  0.78154  1.0000 0.9719426474
Zn  Zn6       1.0  0.89743  0.99273  0.71846  1.0000 0.9719426474
Zn  Zn7       1.0  0.00727  0.10257  0.21846  1.0000 0.9719426474
Zn  Zn8       1.0  0.10257  0.00727  0.28154  1.0000 0.9719426474
H   H1        1.0  0.24740  0.84740  0.97620  1.0000 0.297507464
H   H2        1.0  0.84740  0.24740  0.52380  1.0000 0.297507464
H   H3        1.0  0.75260  0.15260  0.02380  1.0000 0.297507464
H   H4        1.0  0.15260  0.75260  0.47620  1.0000 0.297507464
H   H5        1.0  0.58900  0.86060  0.93920  1.0000 0.2852460435
H   H6        1.0  0.86060  0.58900  0.56080  1.0000 0.2852460435
H   H7        1.0  0.41100  0.13940  0.06080  1.0000 0.2852460435
H   H8        1.0  0.13940  0.41100  0.43920  1.0000 0.2852460435
H   H9        1.0  0.10980  0.73000  0.02960  1.0000 0.127745322
H   H10       1.0  0.73000  0.10980  0.47040  1.0000 0.127745322
H   H11       1.0  0.89020  0.27000  0.97040  1.0000 0.127745322
H   H12       1.0  0.27000  0.89020  0.52960  1.0000 0.127745322
H   H13       1.0  0.00860  0.57220  0.08700  1.0000 0.127745322
H   H14       1.0  0.57220  0.00860  0.41300  1.0000 0.127745322
H   H15       1.0  0.99140  0.42780  0.91300  1.0000 0.127745322
H   H16       1.0  0.42780  0.99140  0.58700  1.0000 0.127745322
H   H17       1.0  0.23100  0.53900  0.06750  1.0000 0.1200048532
H   H18       1.0  0.53900  0.23100  0.43250  1.0000 0.1200048532
H   H19       1.0  0.76900  0.46100  0.93250  1.0000 0.1200048532
H   H20       1.0  0.46100  0.76900  0.56750  1.0000 0.1200048532
H   H21       1.0  0.32960  0.69320  0.00920  1.0000 0.127745322
H   H22       1.0  0.69320  0.32960  0.49080  1.0000 0.127745322
H   H23       1.0  0.67040  0.30680  0.99080  1.0000 0.127745322
H   H24       1.0  0.30680  0.67040  0.50920  1.0000 0.127745322
H   H25       1.0  0.73960  0.87400  0.92260  1.0000 0.1200048532
H   H26       1.0  0.87400  0.73960  0.57740  1.0000 0.1200048532
H   H27       1.0  0.26040  0.12600  0.07740  1.0000 0.1200048532
H   H28       1.0  0.12600  0.26040  0.42260  1.0000 0.1200048532
H   H29       1.0  0.84620  0.89200  0.87650  1.0000 0.127745322
H   H30       1.0  0.89200  0.84620  0.62350  1.0000 0.127745322
H   H31       1.0  0.15380  0.10800  0.12350  1.0000 0.127745322
H   H32       1.0  0.10800  0.15380  0.37650  1.0000 0.127745322
H   H33       1.0  0.73020  0.99960  0.79800  1.0000 0.1429407662
H   H34       1.0  0.99960  0.73020  0.70200  1.0000 0.1429407662
H   H35       1.0  0.26980  0.00040  0.20200  1.0000 0.1429407662
H   H36       1.0  0.00040  0.26980  0.29800  1.0000 0.1429407662
H   H37       1.0  0.61370  0.97210  0.84350  1.0000 0.127745322
H   H38       1.0  0.97210  0.61370  0.65650  1.0000 0.127745322
H   H39       1.0  0.38630  0.02790  0.15650  1.0000 0.127745322
H   H40       1.0  0.02790  0.38630  0.34350  1.0000 0.127745322
H   H41       1.0  0.31460  0.02620  0.87970  1.0000 0.1474257289
H   H42       1.0  0.02620  0.31460  0.62030  1.0000 0.1474257289
H   H43       1.0  0.68540  0.97380  0.12030  1.0000 0.1474257289
H   H44       1.0  0.97380  0.68540  0.37970  1.0000 0.1474257289
H   H45       1.0  0.49160  0.22060  0.85790  1.0000 0.1474257289
H   H46       1.0  0.22060  0.49160  0.64210  1.0000 0.1474257289
H   H47       1.0  0.50840  0.77940  0.14210  1.0000 0.1474257289
H   H48       1.0  0.77940  0.50840  0.35790  1.0000 0.1474257289
H   H49       1.0  0.62770  0.25950  0.81620  1.0000 0.1429407662
H   H50       1.0  0.25950  0.62770  0.68380  1.0000 0.1429407662
H   H51       1.0  0.37230  0.74050  0.18380  1.0000 0.1429407662
H   H52       1.0  0.74050  0.37230  0.31620  1.0000 0.1429407662
H   H53       1.0  0.71480  0.25940  0.84540  1.0000 0.127745322
H   H54       1.0  0.25940  0.71480  0.65460  1.0000 0.127745322
H   H55       1.0  0.28520  0.74060  0.15460  1.0000 0.127745322
H   H56       1.0  0.74060  0.28520  0.34540  1.0000 0.127745322
C   C1        1.0  0.44640  0.98940  0.88857  1.0000 0.4716235614
C   C2        1.0  0.98940  0.44640  0.61143  1.0000 0.4716235614
C   C3        1.0  0.55360  0.01060  0.11143  1.0000 0.4716235614
C   C4        1.0  0.01060  0.55360  0.38857  1.0000 0.4716235614
C   C5        1.0  0.35850  0.86610  0.94791  1.0000 0.5227181008
C   C6        1.0  0.86610  0.35850  0.55209  1.0000 0.5227181008
C   C7        1.0  0.64150  0.13390  0.05209  1.0000 0.5227181008
C   C8        1.0  0.13390  0.64150  0.44791  1.0000 0.5227181008
C   C9        1.0  0.51089  0.90731  0.91643  1.0000 0.5327329179
C   C10       1.0  0.90731  0.51089  0.58357  1.0000 0.5327329179
C   C11       1.0  0.48911  0.09269  0.08357  1.0000 0.5327329179
C   C12       1.0  0.09269  0.48911  0.41643  1.0000 0.5327329179
C   C13       1.0  0.22759  0.72561  0.01316  1.0000 0.2349600634
C   C14       1.0  0.72561  0.22759  0.48684  1.0000 0.2349600634
C   C15       1.0  0.77241  0.27439  0.98684  1.0000 0.2349600634
C   C16       1.0  0.27439  0.77241  0.51316  1.0000 0.2349600634
C   C17       1.0  0.13266  0.68994  0.03707  1.0000 -0.2102190293
C   C18       1.0  0.68994  0.13266  0.46293  1.0000 -0.2102190293
C   C19       1.0  0.86734  0.31006  0.96293  1.0000 -0.2102190293
C   C20       1.0  0.31006  0.86734  0.53707  1.0000 -0.2102190293
C   C21       1.0  0.07273  0.59607  0.07151  1.0000 -0.0756134028
C   C22       1.0  0.59607  0.07273  0.42849  1.0000 -0.0756134028
C   C23       1.0  0.92727  0.40393  0.92849  1.0000 -0.0756134028
C   C24       1.0  0.40393  0.92727  0.57151  1.0000 -0.0756134028
C   C25       1.0  0.10751  0.53669  0.08321  1.0000 -0.0395432357
C   C26       1.0  0.53669  0.10751  0.41679  1.0000 -0.0395432357
C   C27       1.0  0.89249  0.46331  0.91679  1.0000 -0.0395432357
C   C28       1.0  0.46331  0.89249  0.58321  1.0000 -0.0395432357
C   C29       1.0  0.20506  0.57594  0.05969  1.0000 -0.08962904
C   C30       1.0  0.57594  0.20506  0.44031  1.0000 -0.08962904
C   C31       1.0  0.79494  0.42406  0.94031  1.0000 -0.08962904
C   C32       1.0  0.42406  0.79494  0.55969  1.0000 -0.08962904
C   C33       1.0  0.26518  0.66902  0.02469  1.0000 -0.2102190293
C   C34       1.0  0.66902  0.26518  0.47531  1.0000 -0.2102190293
C   C35       1.0  0.73482  0.33098  0.97531  1.0000 -0.2102190293
C   C36       1.0  0.33098  0.73482  0.52469  1.0000 -0.2102190293
C   C37       1.0  0.03941  0.43259  0.12045  1.0000 0.5424845359
C   C38       1.0  0.43259  0.03941  0.37955  1.0000 0.5424845359
C   C39       1.0  0.96059  0.56741  0.87955  1.0000 0.5424845359
C   C40       1.0  0.56741  0.96059  0.62045  1.0000 0.5424845359
C   C41       1.0  0.66265  0.91895  0.88808  1.0000 0.236057668
C   C42       1.0  0.91895  0.66265  0.61192  1.0000 0.236057668
C   C43       1.0  0.33735  0.08105  0.11192  1.0000 0.2349600634
C   C44       1.0  0.08105  0.33735  0.38808  1.0000 0.2349600634
C   C45       1.0  0.73530  0.89710  0.89751  1.0000 -0.2102190293
C   C46       1.0  0.89710  0.73530  0.60249  1.0000 -0.2102190293
C   C47       1.0  0.26470  0.10290  0.10249  1.0000 -0.2102190293
C   C48       1.0  0.10290  0.26470  0.39751  1.0000 -0.2049613455
C   C49       1.0  0.80070  0.90950  0.86979  1.0000 -0.0676232455
C   C50       1.0  0.90950  0.80070  0.63021  1.0000 -0.0676232455
C   C51       1.0  0.19930  0.09050  0.13021  1.0000 -0.0676232455
C   C52       1.0  0.09050  0.19930  0.36979  1.0000 -0.0676232455
C   C53       1.0  0.79970  0.94770  0.83214  1.0000 -0.0605929619
C   C54       1.0  0.94770  0.79970  0.66786  1.0000 -0.0605929619
C   C55       1.0  0.20030  0.05230  0.16786  1.0000 -0.0605929619
C   C56       1.0  0.05230  0.20030  0.33214  1.0000 -0.0605929619
C   C57       1.0  0.73036  0.97224  0.82303  1.0000 -0.0605929619
C   C58       1.0  0.97224  0.73036  0.67697  1.0000 -0.0605929619
C   C59       1.0  0.26964  0.02776  0.17697  1.0000 -0.0605929619
C   C60       1.0  0.02776  0.26964  0.32303  1.0000 -0.0605929619
C   C61       1.0  0.66129  0.95691  0.85038  1.0000 -0.16385384
C   C62       1.0  0.95691  0.66129  0.64962  1.0000 -0.1651217649
C   C63       1.0  0.33871  0.04309  0.14962  1.0000 -0.16385384
C   C64       1.0  0.04309  0.33871  0.35038  1.0000 -0.16385384
C   C65       1.0  0.86780  0.95940  0.80173  1.0000 0.5899185827
C   C66       1.0  0.95940  0.86780  0.69827  1.0000 0.5899185827
C   C67       1.0  0.13220  0.04060  0.19827  1.0000 0.5899185827
C   C68       1.0  0.04060  0.13220  0.30173  1.0000 0.5899185827
C   C69       1.0  0.38414  0.08646  0.85696  1.0000 -0.2609975645
C   C70       1.0  0.08646  0.38414  0.64304  1.0000 -0.2609975645
C   C71       1.0  0.61586  0.91354  0.14304  1.0000 -0.2609975645
C   C72       1.0  0.91354  0.61586  0.35696  1.0000 -0.2609975645
C   C73       1.0  0.25801  0.00939  0.82258  1.0000 0.6487519881
C   C74       1.0  0.00939  0.25801  0.67742  1.0000 0.6487519881
C   C75       1.0  0.74199  0.99061  0.17742  1.0000 0.6487519881
C   C76       1.0  0.99061  0.74199  0.32258  1.0000 0.6487519881
C   C77       1.0  0.60181  0.17879  0.83035  1.0000 -0.2609975645
C   C78       1.0  0.17879  0.60181  0.66965  1.0000 -0.2609975645
C   C79       1.0  0.39819  0.82121  0.16965  1.0000 -0.2609975645
C   C80       1.0  0.82121  0.39819  0.33035  1.0000 -0.2609975645
C   C81       1.0  0.56467  0.08153  0.80244  1.0000 0.6062650672
C   C82       1.0  0.08153  0.56467  0.69756  1.0000 0.6062650672
C   C83       1.0  0.43533  0.91847  0.19756  1.0000 0.6062650672
C   C84       1.0  0.91847  0.43533  0.30244  1.0000 0.6062650672
N   N1        1.0  0.36268  0.93672  0.91845  1.0000 -0.5116068581
N   N2        1.0  0.93672  0.36268  0.58155  1.0000 -0.5116068581
N   N3        1.0  0.63732  0.06328  0.08155  1.0000 -0.5116068581
N   N4        1.0  0.06328  0.63732  0.41845  1.0000 -0.5116068581
N   N5        1.0  0.42741  0.84519  0.94858  1.0000 -0.5461867823
N   N6        1.0  0.84519  0.42741  0.55142  1.0000 -0.5461867823
N   N7        1.0  0.57259  0.15481  0.05142  1.0000 -0.5461867823
N   N8        1.0  0.15481  0.57259  0.44858  1.0000 -0.5461867823
N   N9        1.0  0.52643  0.98117  0.88567  1.0000 -0.4868132183
N   N10       1.0  0.98117  0.52643  0.61433  1.0000 -0.4868132183
N   N11       1.0  0.47357  0.01883  0.11433  1.0000 -0.4868132183
N   N12       1.0  0.01883  0.47357  0.38567  1.0000 -0.4868132183
N   N13       1.0  0.27559  0.81681  0.97855  1.0000 -0.3500752793
N   N14       1.0  0.81681  0.27559  0.52145  1.0000 -0.3500752793
N   N15       1.0  0.72441  0.18319  0.02145  1.0000 -0.3500752793
N   N16       1.0  0.18319  0.72441  0.47855  1.0000 -0.3500752793
N   N17       1.0  0.58708  0.89172  0.91741  1.0000 -0.3500752793
N   N18       1.0  0.89172  0.58708  0.58259  1.0000 -0.3500752793
N   N19       1.0  0.41292  0.10828  0.08259  1.0000 -0.3500752793
N   N20       1.0  0.10828  0.41292  0.41741  1.0000 -0.3500752793
N   N21       1.0  0.45069  0.05551  0.85619  1.0000 -0.1304437005
N   N22       1.0  0.05551  0.45069  0.64381  1.0000 -0.1304437005
N   N23       1.0  0.54931  0.94449  0.14381  1.0000 -0.1304437005
N   N24       1.0  0.94449  0.54931  0.35619  1.0000 -0.1304437005
O   O1        1.0  0.94539  0.39981  0.13884  1.0000 -0.5682605246
O   O2        1.0  0.39981  0.94539  0.36116  1.0000 -0.5682605246
O   O3        1.0  0.05461  0.60019  0.86116  1.0000 -0.5682605246
O   O4        1.0  0.60019  0.05461  0.63884  1.0000 -0.5682605246
O   O5        1.0  0.07614  0.38606  0.13208  1.0000 -0.5312065789
O   O6        1.0  0.38606  0.07614  0.36792  1.0000 -0.5312065789
O   O7        1.0  0.92386  0.61394  0.86792  1.0000 -0.5312065789
O   O8        1.0  0.61394  0.92386  0.63208  1.0000 -0.5312065789
O   O9        1.0  0.92380  0.92960  0.81177  1.0000 -0.5638438323
O   O10       1.0  0.92960  0.92380  0.68823  1.0000 -0.5638438323
O   O11       1.0  0.07620  0.07040  0.18823  1.0000 -0.5682605246
O   O12       1.0  0.07040  0.07620  0.31177  1.0000 -0.5682605246
O   O13       1.0  0.86434  0.99786  0.76851  1.0000 -0.5682605246
O   O14       1.0  0.99786  0.86434  0.73149  1.0000 -0.5682605246
O   O15       1.0  0.13566  0.00214  0.23149  1.0000 -0.5682605246
O   O16       1.0  0.00214  0.13566  0.26851  1.0000 -0.5682605246
O   O17       1.0  0.19285  0.90095  0.80103  1.0000 -0.5461867823
O   O18       1.0  0.90095  0.19285  0.69897  1.0000 -0.5461867823
O   O19       1.0  0.80715  0.09905  0.19897  1.0000 -0.5420948246
O   O20       1.0  0.09905  0.80715  0.30103  1.0000 -0.5461867823
O   O21       1.0  0.21992  0.05808  0.81762  1.0000 -0.5312065789
O   O22       1.0  0.05808  0.21992  0.68238  1.0000 -0.5312065789
O   O23       1.0  0.78008  0.94192  0.18238  1.0000 -0.5312065789
O   O24       1.0  0.94192  0.78008  0.31762  1.0000 -0.5312065789
O   O25       1.0  0.70353  0.18487  0.78486  1.0000 -0.5116068581
O   O26       1.0  0.18487  0.70353  0.71514  1.0000 -0.5116068581
O   O27       1.0  0.29647  0.81513  0.21514  1.0000 -0.5116068581
O   O28       1.0  0.81513  0.29647  0.28486  1.0000 -0.5116068581
O   O29       1.0  0.40140  0.90660  0.79749  1.0000 -0.5420948246
O   O30       1.0  0.90660  0.40140  0.70251  1.0000 -0.5420948246
O   O31       1.0  0.59860  0.09340  0.20251  1.0000 -0.5420948246
O   O32       1.0  0.09340  0.59860  0.29749  1.0000 -0.5420948246
