# DDEC6 charges by PACMAN v1.1 (https://github.com/mtap-research/PACMAN-charge/)
data_2014[Eu][tfz]3[ASR]1
_chemical_formula_sum              "Eu2 H24 C18 S6 O12"
_cell_length_a       9.1686
_cell_length_b       11.1145
_cell_length_c       11.1899
_cell_angle_alpha    77.156
_cell_angle_beta     68.195
_cell_angle_gamma    78.35

_symmetry_space_group_name_H-M    "P 1"
_symmetry_Int_Tables_number       1

loop_
  _symmetry_equiv_pos_as_xyz
  'x, y, z'

loop_
  _atom_site_type_symbol
  _atom_site_label
  _atom_site_symmetry_multiplicity
  _atom_site_fract_x
  _atom_site_fract_y
  _atom_site_fract_z
  _atom_site_occupancy
  _atom_site_charge
Eu  Eu1       1.0  0.72641  0.51635  0.52012  1.0000 2.0498931074
Eu  Eu2       1.0  0.27359  0.48365  0.47988  1.0000 2.0498931074
H   H1        1.0  0.21440  0.73180  0.20650  1.0000 0.1600948014
H   H2        1.0  0.78560  0.26820  0.79350  1.0000 0.1600948014
H   H3        1.0  0.07720  0.84210  0.23760  1.0000 0.148398279
H   H4        1.0  0.92280  0.15790  0.76240  1.0000 0.148398279
H   H5        1.0  0.05200  0.55540  0.13300  1.0000 0.1296889932
H   H6        1.0  0.94800  0.44460  0.86700  1.0000 0.1296889932
H   H7        1.0  0.07740  0.59070  0.98410  1.0000 0.1103187037
H   H8        1.0  0.92260  0.40930  0.01590  1.0000 0.1103187037
H   H9        1.0  0.32430  0.54680  0.08790  1.0000 0.1296889932
H   H10       1.0  0.67570  0.45320  0.91210  1.0000 0.1296889932
H   H11       1.0  0.35080  0.58460  0.93830  1.0000 0.1234413275
H   H12       1.0  0.64920  0.41540  0.06170  1.0000 0.1234413275
H   H13       1.0  0.26490  0.32180  0.83890  1.0000 0.1600948014
H   H14       1.0  0.73510  0.67820  0.16110  1.0000 0.1600948014
H   H15       1.0  0.20810  0.46380  0.84140  1.0000 0.1406704748
H   H16       1.0  0.79190  0.53620  0.15860  1.0000 0.1406704748
H   H17       1.0  0.03000  0.18850  0.28130  1.0000 0.148398279
H   H18       1.0  0.97000  0.81150  0.71870  1.0000 0.148398279
H   H19       1.0  0.89510  0.22560  0.22120  1.0000 0.148398279
H   H20       1.0  0.10490  0.77440  0.77880  1.0000 0.148398279
H   H21       1.0  0.87680  0.08320  0.56650  1.0000 0.1234413275
H   H22       1.0  0.12320  0.91680  0.43350  1.0000 0.1234413275
H   H23       1.0  0.86500  0.94280  0.57420  1.0000 0.1103187037
H   H24       1.0  0.13500  0.05720  0.42580  1.0000 0.1103187037
C   C1        1.0  0.00550  0.67360  0.33190  1.0000 0.6988332534
C   C2        1.0  0.99450  0.32640  0.66810  1.0000 0.6988332534
C   C3        1.0  0.10340  0.75830  0.21720  1.0000 -0.3782136253
C   C4        1.0  0.89660  0.24170  0.78280  1.0000 -0.3782136253
C   C5        1.0  0.11480  0.60060  0.05140  1.0000 -0.232109662
C   C6        1.0  0.88520  0.39940  0.94860  1.0000 -0.232109662
C   C7        1.0  0.28610  0.54040  0.01980  1.0000 -0.2169777638
C   C8        1.0  0.71390  0.45960  0.98020  1.0000 -0.2169777638
C   C9        1.0  0.29390  0.39800  0.84710  1.0000 -0.3893052972
C   C10       1.0  0.70610  0.60200  0.15290  1.0000 -0.3893052972
C   C11       1.0  0.43890  0.42790  0.73270  1.0000 0.6827466154
C   C12       1.0  0.56110  0.57210  0.26730  1.0000 0.6827466154
C   C13       1.0  0.84550  0.30760  0.38200  1.0000 0.6384513342
C   C14       1.0  0.15450  0.69240  0.61800  1.0000 0.6384513342
C   C15       1.0  0.91590  0.20010  0.30270  1.0000 -0.3782136253
C   C16       1.0  0.08410  0.79990  0.69730  1.0000 -0.3782136253
C   C17       1.0  0.91350  0.01440  0.51770  1.0000 -0.2390130645
C   C18       1.0  0.08650  0.98560  0.48230  1.0000 -0.2390130645
S   S1        1.0  0.07780  0.76299  0.06503  1.0000 0.01416857
S   S2        1.0  0.92220  0.23701  0.93497  1.0000 0.0153058601
S   S3        1.0  0.30590  0.37920  0.00618  1.0000 0.0012269444
S   S4        1.0  0.69410  0.62080  0.99382  1.0000 0.0012269444
S   S5        1.0  0.84850  0.05550  0.37540  1.0000 0.0481214431
S   S6        1.0  0.15150  0.94450  0.62460  1.0000 0.0481214431
O   O1        1.0  0.86190  0.67440  0.34890  1.0000 -0.657459203
O   O2        1.0  0.13810  0.32560  0.65110  1.0000 -0.657459203
O   O3        1.0  0.07210  0.60500  0.40570  1.0000 -0.6874806619
O   O4        1.0  0.92790  0.39500  0.59430  1.0000 -0.6874806619
O   O5        1.0  0.42590  0.45320  0.62150  1.0000 -0.708999697
O   O6        1.0  0.57410  0.54680  0.37850  1.0000 -0.708999697
O   O7        1.0  0.56790  0.43150  0.74490  1.0000 -0.6311284936
O   O8        1.0  0.43210  0.56850  0.25510  1.0000 -0.6311284936
O   O9        1.0  0.72920  0.29860  0.48520  1.0000 -0.6057945824
O   O10       1.0  0.27080  0.70140  0.51480  1.0000 -0.6057945824
O   O11       1.0  0.91310  0.40550  0.33670  1.0000 -0.642267201
O   O12       1.0  0.08690  0.59450  0.66330  1.0000 -0.642267201
