# DDEC6 charges by PACMAN v1.1 (https://github.com/mtap-research/PACMAN-charge/)
data_2014[Cu][nan]3[ASR]20
_chemical_formula_sum              "Cu12 H120 C216 O48"
_cell_length_a       23.3723
_cell_length_b       23.3723
_cell_length_c       23.3723
_cell_angle_alpha    109.471
_cell_angle_beta     109.471
_cell_angle_gamma    109.471

_symmetry_space_group_name_H-M    "P 1"
_symmetry_Int_Tables_number       1

loop_
  _symmetry_equiv_pos_as_xyz
  'x, y, z'

loop_
  _atom_site_type_symbol
  _atom_site_label
  _atom_site_symmetry_multiplicity
  _atom_site_fract_x
  _atom_site_fract_y
  _atom_site_fract_z
  _atom_site_occupancy
  _atom_site_charge
Cu  Cu1       1.0  0.14441  0.64441  0.50000  1.0000 0.8428805462
Cu  Cu2       1.0  0.50000  0.14441  0.64441  1.0000 0.8428805462
Cu  Cu3       1.0  0.64441  0.50000  0.14441  1.0000 0.8428805462
Cu  Cu4       1.0  0.35559  0.50000  0.85559  1.0000 0.8428805462
Cu  Cu5       1.0  0.50000  0.85559  0.35559  1.0000 0.8428805462
Cu  Cu6       1.0  0.85559  0.35559  0.50000  1.0000 0.8428805462
Cu  Cu7       1.0  0.24028  0.74028  0.50000  1.0000 0.8602800659
Cu  Cu8       1.0  0.50000  0.24028  0.74028  1.0000 0.8602800659
Cu  Cu9       1.0  0.74028  0.50000  0.24028  1.0000 0.8602800659
Cu  Cu10      1.0  0.25972  0.50000  0.75972  1.0000 0.8602800659
Cu  Cu11      1.0  0.50000  0.75972  0.25972  1.0000 0.8602800659
Cu  Cu12      1.0  0.75972  0.25972  0.50000  1.0000 0.8602800659
H   H1        1.0  0.21690  0.49190  0.47280  1.0000 0.1258275503
H   H2        1.0  0.47280  0.21690  0.49190  1.0000 0.1258275503
H   H3        1.0  0.49190  0.47280  0.21690  1.0000 0.1258275503
H   H4        1.0  0.25590  0.27500  0.78310  1.0000 0.1258275503
H   H5        1.0  0.52720  0.01910  0.74410  1.0000 0.1258275503
H   H6        1.0  0.74410  0.52720  0.01910  1.0000 0.1258275503
H   H7        1.0  0.72500  0.98090  0.50810  1.0000 0.1181643287
H   H8        1.0  0.27500  0.78310  0.25590  1.0000 0.1258275503
H   H9        1.0  0.50810  0.72500  0.98090  1.0000 0.1258275503
H   H10       1.0  0.01910  0.74410  0.52720  1.0000 0.1258275503
H   H11       1.0  0.78310  0.25590  0.27500  1.0000 0.1258275503
H   H12       1.0  0.98090  0.50810  0.72500  1.0000 0.1181643287
H   H13       1.0  0.78310  0.50810  0.52720  1.0000 0.1258275503
H   H14       1.0  0.52720  0.78310  0.50810  1.0000 0.1258275503
H   H15       1.0  0.50810  0.52720  0.78310  1.0000 0.1258275503
H   H16       1.0  0.74410  0.72500  0.21690  1.0000 0.1258275503
H   H17       1.0  0.47280  0.98090  0.25590  1.0000 0.1258275503
H   H18       1.0  0.25590  0.47280  0.98090  1.0000 0.1258275503
H   H19       1.0  0.27500  0.01910  0.49190  1.0000 0.1258275503
H   H20       1.0  0.72500  0.21690  0.74410  1.0000 0.1258275503
H   H21       1.0  0.49190  0.27500  0.01910  1.0000 0.1258275503
H   H22       1.0  0.98090  0.25590  0.47280  1.0000 0.1181643287
H   H23       1.0  0.21690  0.74410  0.72500  1.0000 0.1258275503
H   H24       1.0  0.01910  0.49190  0.27500  1.0000 0.1258275503
H   H25       1.0  0.41010  0.57850  0.44300  1.0000 0.1124053635
H   H26       1.0  0.44300  0.41010  0.57850  1.0000 0.1124053635
H   H27       1.0  0.57850  0.44300  0.41010  1.0000 0.1124053635
H   H28       1.0  0.03290  0.16840  0.58990  1.0000 0.1124053635
H   H29       1.0  0.55700  0.13550  0.96710  1.0000 0.1124053635
H   H30       1.0  0.96710  0.55700  0.13550  1.0000 0.1124053635
H   H31       1.0  0.83160  0.86450  0.42150  1.0000 0.1124053635
H   H32       1.0  0.16840  0.58990  0.03290  1.0000 0.1124053635
H   H33       1.0  0.42150  0.83160  0.86450  1.0000 0.1124053635
H   H34       1.0  0.13550  0.96710  0.55700  1.0000 0.1124053635
H   H35       1.0  0.58990  0.03290  0.16840  1.0000 0.1124053635
H   H36       1.0  0.86450  0.42150  0.83160  1.0000 0.1124053635
H   H37       1.0  0.58990  0.42150  0.55700  1.0000 0.1124053635
H   H38       1.0  0.55700  0.58990  0.42150  1.0000 0.1124053635
H   H39       1.0  0.42150  0.55700  0.58990  1.0000 0.1124053635
H   H40       1.0  0.96710  0.83160  0.41010  1.0000 0.1124053635
H   H41       1.0  0.44300  0.86450  0.03290  1.0000 0.1124053635
H   H42       1.0  0.03290  0.44300  0.86450  1.0000 0.1124053635
H   H43       1.0  0.16840  0.13550  0.57850  1.0000 0.1124053635
H   H44       1.0  0.83160  0.41010  0.96710  1.0000 0.1124053635
H   H45       1.0  0.57850  0.16840  0.13550  1.0000 0.1124053635
H   H46       1.0  0.86450  0.03290  0.44300  1.0000 0.1124053635
H   H47       1.0  0.41010  0.96710  0.83160  1.0000 0.1124053635
H   H48       1.0  0.13550  0.57850  0.16840  1.0000 0.1124053635
H   H49       1.0  0.26720  0.42220  0.44440  1.0000 0.1181643287
H   H50       1.0  0.44440  0.26720  0.42220  1.0000 0.1181643287
H   H51       1.0  0.42220  0.44440  0.26720  1.0000 0.1181643287
H   H52       1.0  0.17720  0.15500  0.73280  1.0000 0.1181643287
H   H53       1.0  0.55560  0.97780  0.82280  1.0000 0.1181643287
H   H54       1.0  0.82280  0.55560  0.97780  1.0000 0.1181643287
H   H55       1.0  0.84500  0.02220  0.57780  1.0000 0.1181643287
H   H56       1.0  0.15500  0.73280  0.17720  1.0000 0.1181643287
H   H57       1.0  0.57780  0.84500  0.02220  1.0000 0.1181643287
H   H58       1.0  0.97780  0.82280  0.55560  1.0000 0.1181643287
H   H59       1.0  0.73280  0.17720  0.15500  1.0000 0.1181643287
H   H60       1.0  0.02220  0.57780  0.84500  1.0000 0.1181643287
H   H61       1.0  0.73280  0.57780  0.55560  1.0000 0.1181643287
H   H62       1.0  0.55560  0.73280  0.57780  1.0000 0.1181643287
H   H63       1.0  0.57780  0.55560  0.73280  1.0000 0.1181643287
H   H64       1.0  0.82280  0.84500  0.26720  1.0000 0.1181643287
H   H65       1.0  0.44440  0.02220  0.17720  1.0000 0.1181643287
H   H66       1.0  0.17720  0.44440  0.02220  1.0000 0.1181643287
H   H67       1.0  0.15500  0.97780  0.42220  1.0000 0.1181643287
H   H68       1.0  0.84500  0.26720  0.82280  1.0000 0.1181643287
H   H69       1.0  0.42220  0.15500  0.97780  1.0000 0.1181643287
H   H70       1.0  0.02220  0.17720  0.44440  1.0000 0.1181643287
H   H71       1.0  0.26720  0.82280  0.84500  1.0000 0.1181643287
H   H72       1.0  0.97780  0.42220  0.15500  1.0000 0.1181643287
H   H73       1.0  0.36230  0.64820  0.47490  1.0000 0.1258275503
H   H74       1.0  0.47490  0.36230  0.64820  1.0000 0.1258275503
H   H75       1.0  0.64820  0.47490  0.36230  1.0000 0.1258275503
H   H76       1.0  0.11260  0.28590  0.63770  1.0000 0.1258275503
H   H77       1.0  0.52510  0.17330  0.88740  1.0000 0.1258275503
H   H78       1.0  0.88740  0.52510  0.17330  1.0000 0.1258275503
H   H79       1.0  0.71410  0.82670  0.35180  1.0000 0.1258275503
H   H80       1.0  0.28590  0.63770  0.11260  1.0000 0.1258275503
H   H81       1.0  0.35180  0.71410  0.82670  1.0000 0.1258275503
H   H82       1.0  0.17330  0.88740  0.52510  1.0000 0.1258275503
H   H83       1.0  0.63770  0.11260  0.28590  1.0000 0.1258275503
H   H84       1.0  0.82670  0.35180  0.71410  1.0000 0.1258275503
H   H85       1.0  0.63770  0.35180  0.52510  1.0000 0.1258275503
H   H86       1.0  0.52510  0.63770  0.35180  1.0000 0.1258275503
H   H87       1.0  0.35180  0.52510  0.63770  1.0000 0.1258275503
H   H88       1.0  0.88740  0.71410  0.36230  1.0000 0.1258275503
H   H89       1.0  0.47490  0.82670  0.11260  1.0000 0.1258275503
H   H90       1.0  0.11260  0.47490  0.82670  1.0000 0.1258275503
H   H91       1.0  0.28590  0.17330  0.64820  1.0000 0.1258275503
H   H92       1.0  0.71410  0.36230  0.88740  1.0000 0.1258275503
H   H93       1.0  0.64820  0.28590  0.17330  1.0000 0.1258275503
H   H94       1.0  0.82670  0.11260  0.47490  1.0000 0.1258275503
H   H95       1.0  0.36230  0.88740  0.71410  1.0000 0.1258275503
H   H96       1.0  0.17330  0.64820  0.28590  1.0000 0.1258275503
H   H97       1.0  0.40700  0.48540  0.36460  1.0000 0.1124053635
H   H98       1.0  0.36460  0.40700  0.48540  1.0000 0.1124053635
H   H99       1.0  0.48540  0.36460  0.40700  1.0000 0.1124053635
H   H100      1.0  0.95760  0.07840  0.59300  1.0000 0.1124053635
H   H101      1.0  0.63540  0.12080  0.04240  1.0000 0.1124053635
H   H102      1.0  0.04240  0.63540  0.12080  1.0000 0.1124053635
H   H103      1.0  0.92160  0.87920  0.51460  1.0000 0.1124053635
H   H104      1.0  0.07840  0.59300  0.95760  1.0000 0.1124053635
H   H105      1.0  0.51460  0.92160  0.87920  1.0000 0.1124053635
H   H106      1.0  0.12080  0.04240  0.63540  1.0000 0.1124053635
H   H107      1.0  0.59300  0.95760  0.07840  1.0000 0.1124053635
H   H108      1.0  0.87920  0.51460  0.92160  1.0000 0.1124053635
H   H109      1.0  0.59300  0.51460  0.63540  1.0000 0.1124053635
H   H110      1.0  0.63540  0.59300  0.51460  1.0000 0.1124053635
H   H111      1.0  0.51460  0.63540  0.59300  1.0000 0.1124053635
H   H112      1.0  0.04240  0.92160  0.40700  1.0000 0.1124053635
H   H113      1.0  0.36460  0.87920  0.95760  1.0000 0.1124053635
H   H114      1.0  0.95760  0.36460  0.87920  1.0000 0.1124053635
H   H115      1.0  0.07840  0.12080  0.48540  1.0000 0.1124053635
H   H116      1.0  0.92160  0.40700  0.04240  1.0000 0.1124053635
H   H117      1.0  0.48540  0.07840  0.12080  1.0000 0.1124053635
H   H118      1.0  0.87920  0.95760  0.36460  1.0000 0.1124053635
H   H119      1.0  0.40700  0.04240  0.92160  1.0000 0.1124053635
H   H120      1.0  0.12080  0.48540  0.07840  1.0000 0.1124053635
C   C1        1.0  0.34389  0.49281  0.44068  1.0000 0.079629967
C   C2        1.0  0.44068  0.34389  0.49281  1.0000 0.079629967
C   C3        1.0  0.49281  0.44068  0.34389  1.0000 0.079629967
C   C4        1.0  0.09679  0.14892  0.65611  1.0000 0.079629967
C   C5        1.0  0.55932  0.05213  0.90321  1.0000 0.079629967
C   C6        1.0  0.90321  0.55932  0.05213  1.0000 0.079629967
C   C7        1.0  0.85108  0.94787  0.50719  1.0000 0.079629967
C   C8        1.0  0.14892  0.65611  0.09679  1.0000 0.079629967
C   C9        1.0  0.50719  0.85108  0.94787  1.0000 0.079629967
C   C10       1.0  0.05213  0.90321  0.55932  1.0000 0.079629967
C   C11       1.0  0.65611  0.09679  0.14892  1.0000 0.079629967
C   C12       1.0  0.94787  0.50719  0.85108  1.0000 0.079629967
C   C13       1.0  0.65611  0.50719  0.55932  1.0000 0.079629967
C   C14       1.0  0.55932  0.65611  0.50719  1.0000 0.079629967
C   C15       1.0  0.50719  0.55932  0.65611  1.0000 0.079629967
C   C16       1.0  0.90321  0.85108  0.34389  1.0000 0.079629967
C   C17       1.0  0.44068  0.94787  0.09679  1.0000 0.079629967
C   C18       1.0  0.09679  0.44068  0.94787  1.0000 0.079629967
C   C19       1.0  0.14892  0.05213  0.49281  1.0000 0.079629967
C   C20       1.0  0.85108  0.34389  0.90321  1.0000 0.079629967
C   C21       1.0  0.49281  0.14892  0.05213  1.0000 0.079629967
C   C22       1.0  0.94787  0.09679  0.44068  1.0000 0.079629967
C   C23       1.0  0.34389  0.90321  0.85108  1.0000 0.079629967
C   C24       1.0  0.05213  0.49281  0.14892  1.0000 0.079629967
C   C25       1.0  0.25297  0.62141  0.49282  1.0000 0.5858646552
C   C26       1.0  0.49282  0.25297  0.62141  1.0000 0.5858646552
C   C27       1.0  0.62141  0.49282  0.25297  1.0000 0.5858646552
C   C28       1.0  0.23985  0.36844  0.74703  1.0000 0.5858646552
C   C29       1.0  0.50718  0.12859  0.76015  1.0000 0.5858646552
C   C30       1.0  0.76015  0.50718  0.12859  1.0000 0.5858646552
C   C31       1.0  0.63156  0.87141  0.37859  1.0000 0.5858646552
C   C32       1.0  0.36844  0.74703  0.23985  1.0000 0.5858646552
C   C33       1.0  0.37859  0.63156  0.87141  1.0000 0.5858646552
C   C34       1.0  0.12859  0.76015  0.50718  1.0000 0.5858646552
C   C35       1.0  0.74703  0.23985  0.36844  1.0000 0.5858646552
C   C36       1.0  0.87141  0.37859  0.63156  1.0000 0.5845494857
C   C37       1.0  0.74703  0.37859  0.50718  1.0000 0.5858646552
C   C38       1.0  0.50718  0.74703  0.37859  1.0000 0.5845494857
C   C39       1.0  0.37859  0.50718  0.74703  1.0000 0.5845494857
C   C40       1.0  0.76015  0.63156  0.25297  1.0000 0.5845494857
C   C41       1.0  0.49282  0.87141  0.23985  1.0000 0.5858646552
C   C42       1.0  0.23985  0.49282  0.87141  1.0000 0.5858646552
C   C43       1.0  0.36844  0.12859  0.62141  1.0000 0.5845494857
C   C44       1.0  0.63156  0.25297  0.76015  1.0000 0.5845494857
C   C45       1.0  0.62141  0.36844  0.12859  1.0000 0.5845494857
C   C46       1.0  0.87141  0.23985  0.49282  1.0000 0.5858646552
C   C47       1.0  0.25297  0.76015  0.63156  1.0000 0.5858646552
C   C48       1.0  0.12859  0.62141  0.36844  1.0000 0.5858646552
C   C49       1.0  0.25665  0.50965  0.46748  1.0000 -0.0903151707
C   C50       1.0  0.46748  0.25665  0.50965  1.0000 -0.0903151707
C   C51       1.0  0.50965  0.46748  0.25665  1.0000 -0.0903151707
C   C52       1.0  0.21083  0.25300  0.74335  1.0000 -0.0903151707
C   C53       1.0  0.53252  0.04217  0.78917  1.0000 -0.0903151707
C   C54       1.0  0.78917  0.53252  0.04217  1.0000 -0.0903151707
C   C55       1.0  0.74700  0.95783  0.49035  1.0000 -0.0903151707
C   C56       1.0  0.25300  0.74335  0.21083  1.0000 -0.0903151707
C   C57       1.0  0.49035  0.74700  0.95783  1.0000 -0.0903151707
C   C58       1.0  0.04217  0.78917  0.53252  1.0000 -0.0903151707
C   C59       1.0  0.74335  0.21083  0.25300  1.0000 -0.0903151707
C   C60       1.0  0.95783  0.49035  0.74700  1.0000 -0.0903151707
C   C61       1.0  0.74335  0.49035  0.53252  1.0000 -0.0903151707
C   C62       1.0  0.53252  0.74335  0.49035  1.0000 -0.0903151707
C   C63       1.0  0.49035  0.53252  0.74335  1.0000 -0.0903151707
C   C64       1.0  0.78917  0.74700  0.25665  1.0000 -0.0903151707
C   C65       1.0  0.46748  0.95783  0.21083  1.0000 -0.0903151707
C   C66       1.0  0.21083  0.46748  0.95783  1.0000 -0.0903151707
C   C67       1.0  0.25300  0.04217  0.50965  1.0000 -0.0903151707
C   C68       1.0  0.74700  0.25665  0.78917  1.0000 -0.0903151707
C   C69       1.0  0.50965  0.25300  0.04217  1.0000 -0.0903151707
C   C70       1.0  0.95783  0.21083  0.46748  1.0000 -0.0903151707
C   C71       1.0  0.25665  0.78917  0.74700  1.0000 -0.0903151707
C   C72       1.0  0.04217  0.50965  0.25300  1.0000 -0.0903151707
C   C73       1.0  0.37140  0.56089  0.44971  1.0000 -0.160266486
C   C74       1.0  0.44971  0.37140  0.56089  1.0000 -0.160266486
C   C75       1.0  0.56089  0.44971  0.37140  1.0000 -0.160266486
C   C76       1.0  0.07831  0.18949  0.62860  1.0000 -0.160266486
C   C77       1.0  0.55029  0.11118  0.92169  1.0000 -0.160266486
C   C78       1.0  0.92169  0.55029  0.11118  1.0000 -0.160266486
C   C79       1.0  0.81051  0.88882  0.43911  1.0000 -0.160266486
C   C80       1.0  0.18949  0.62860  0.07831  1.0000 -0.160266486
C   C81       1.0  0.43911  0.81051  0.88882  1.0000 -0.160266486
C   C82       1.0  0.11118  0.92169  0.55029  1.0000 -0.160266486
C   C83       1.0  0.62860  0.07831  0.18949  1.0000 -0.160266486
C   C84       1.0  0.88882  0.43911  0.81051  1.0000 -0.160266486
C   C85       1.0  0.62860  0.43911  0.55029  1.0000 -0.160266486
C   C86       1.0  0.55029  0.62860  0.43911  1.0000 -0.160266486
C   C87       1.0  0.43911  0.55029  0.62860  1.0000 -0.160266486
C   C88       1.0  0.92169  0.81051  0.37140  1.0000 -0.160266486
C   C89       1.0  0.44971  0.88882  0.07831  1.0000 -0.160266486
C   C90       1.0  0.07831  0.44971  0.88882  1.0000 -0.160266486
C   C91       1.0  0.18949  0.11118  0.56089  1.0000 -0.160266486
C   C92       1.0  0.81051  0.37140  0.92169  1.0000 -0.160266486
C   C93       1.0  0.56089  0.18949  0.11118  1.0000 -0.160266486
C   C94       1.0  0.88882  0.07831  0.44971  1.0000 -0.160266486
C   C95       1.0  0.37140  0.92169  0.81051  1.0000 -0.160266486
C   C96       1.0  0.11118  0.56089  0.18949  1.0000 -0.160266486
C   C97       1.0  0.28636  0.46774  0.44998  1.0000 -0.160266486
C   C98       1.0  0.44998  0.28636  0.46774  1.0000 -0.160266486
C   C99       1.0  0.46774  0.44998  0.28636  1.0000 -0.160266486
C   C100      1.0  0.16362  0.18138  0.71364  1.0000 -0.160266486
C   C101      1.0  0.55002  0.01776  0.83638  1.0000 -0.160266486
C   C102      1.0  0.83638  0.55002  0.01776  1.0000 -0.160266486
C   C103      1.0  0.81862  0.98224  0.53226  1.0000 -0.160266486
C   C104      1.0  0.18138  0.71364  0.16362  1.0000 -0.160266486
C   C105      1.0  0.53226  0.81862  0.98224  1.0000 -0.160266486
C   C106      1.0  0.01776  0.83638  0.55002  1.0000 -0.160266486
C   C107      1.0  0.71364  0.16362  0.18138  1.0000 -0.160266486
C   C108      1.0  0.98224  0.53226  0.81862  1.0000 -0.160266486
C   C109      1.0  0.71364  0.53226  0.55002  1.0000 -0.160266486
C   C110      1.0  0.55002  0.71364  0.53226  1.0000 -0.160266486
C   C111      1.0  0.53226  0.55002  0.71364  1.0000 -0.160266486
C   C112      1.0  0.83638  0.81862  0.28636  1.0000 -0.160266486
C   C113      1.0  0.44998  0.98224  0.16362  1.0000 -0.160266486
C   C114      1.0  0.16362  0.44998  0.98224  1.0000 -0.160266486
C   C115      1.0  0.18138  0.01776  0.46774  1.0000 -0.160266486
C   C116      1.0  0.81862  0.28636  0.83638  1.0000 -0.160266486
C   C117      1.0  0.46774  0.18138  0.01776  1.0000 -0.160266486
C   C118      1.0  0.98224  0.16362  0.44998  1.0000 -0.160266486
C   C119      1.0  0.28636  0.83638  0.81862  1.0000 -0.160266486
C   C120      1.0  0.01776  0.46774  0.18138  1.0000 -0.160266486
C   C121      1.0  0.34263  0.60228  0.46819  1.0000 -0.0903151707
C   C122      1.0  0.46819  0.34263  0.60228  1.0000 -0.0903151707
C   C123      1.0  0.60228  0.46819  0.34263  1.0000 -0.0903151707
C   C124      1.0  0.12556  0.25965  0.65737  1.0000 -0.0903151707
C   C125      1.0  0.53181  0.13409  0.87444  1.0000 -0.0903151707
C   C126      1.0  0.87444  0.53181  0.13409  1.0000 -0.0903151707
C   C127      1.0  0.74035  0.86591  0.39772  1.0000 -0.0903151707
C   C128      1.0  0.25965  0.65737  0.12556  1.0000 -0.0903151707
C   C129      1.0  0.39772  0.74035  0.86591  1.0000 -0.0903151707
C   C130      1.0  0.13409  0.87444  0.53181  1.0000 -0.0903151707
C   C131      1.0  0.65737  0.12556  0.25965  1.0000 -0.0903151707
C   C132      1.0  0.86591  0.39772  0.74035  1.0000 -0.0903151707
C   C133      1.0  0.65737  0.39772  0.53181  1.0000 -0.0903151707
C   C134      1.0  0.53181  0.65737  0.39772  1.0000 -0.0903151707
C   C135      1.0  0.39772  0.53181  0.65737  1.0000 -0.0903151707
C   C136      1.0  0.87444  0.74035  0.34263  1.0000 -0.0903151707
C   C137      1.0  0.46819  0.86591  0.12556  1.0000 -0.0903151707
C   C138      1.0  0.12556  0.46819  0.86591  1.0000 -0.0903151707
C   C139      1.0  0.25965  0.13409  0.60228  1.0000 -0.0903151707
C   C140      1.0  0.74035  0.34263  0.87444  1.0000 -0.0903151707
C   C141      1.0  0.60228  0.25965  0.13409  1.0000 -0.0903151707
C   C142      1.0  0.86591  0.12556  0.46819  1.0000 -0.0903151707
C   C143      1.0  0.34263  0.87444  0.74035  1.0000 -0.0903151707
C   C144      1.0  0.13409  0.60228  0.25965  1.0000 -0.0903151707
C   C145      1.0  0.41233  0.45879  0.38708  1.0000 -0.1954547474
C   C146      1.0  0.38708  0.41233  0.45879  1.0000 -0.1954547474
C   C147      1.0  0.45879  0.38708  0.41233  1.0000 -0.1954547474
C   C148      1.0  0.97475  0.04646  0.58767  1.0000 -0.1948121646
C   C149      1.0  0.61292  0.07171  0.02525  1.0000 -0.1954547474
C   C150      1.0  0.02525  0.61292  0.07171  1.0000 -0.1954547474
C   C151      1.0  0.95354  0.92829  0.54121  1.0000 -0.1954547474
C   C152      1.0  0.04646  0.58767  0.97475  1.0000 -0.1954547474
C   C153      1.0  0.54121  0.95354  0.92829  1.0000 -0.1954547474
C   C154      1.0  0.07171  0.02525  0.61292  1.0000 -0.1954547474
C   C155      1.0  0.58767  0.97475  0.04646  1.0000 -0.1954547474
C   C156      1.0  0.92829  0.54121  0.95354  1.0000 -0.1948121646
C   C157      1.0  0.58767  0.54121  0.61292  1.0000 -0.1948121646
C   C158      1.0  0.61292  0.58767  0.54121  1.0000 -0.1954547474
C   C159      1.0  0.54121  0.61292  0.58767  1.0000 -0.1954547474
C   C160      1.0  0.02525  0.95354  0.41233  1.0000 -0.1954547474
C   C161      1.0  0.38708  0.92829  0.97475  1.0000 -0.1954547474
C   C162      1.0  0.97475  0.38708  0.92829  1.0000 -0.1948121646
C   C163      1.0  0.04646  0.07171  0.45879  1.0000 -0.1954547474
C   C164      1.0  0.95354  0.41233  0.02525  1.0000 -0.1948121646
C   C165      1.0  0.45879  0.04646  0.07171  1.0000 -0.1954547474
C   C166      1.0  0.92829  0.97475  0.38708  1.0000 -0.1954547474
C   C167      1.0  0.41233  0.02525  0.95354  1.0000 -0.1954547474
C   C168      1.0  0.07171  0.45879  0.04646  1.0000 -0.1954547474
C   C169      1.0  0.28510  0.57674  0.47694  1.0000 -0.0330828504
C   C170      1.0  0.47694  0.28510  0.57674  1.0000 -0.0330828504
C   C171      1.0  0.57674  0.47694  0.28510  1.0000 -0.0330828504
C   C172      1.0  0.19184  0.29164  0.71490  1.0000 -0.0330828504
C   C173      1.0  0.52306  0.09980  0.80816  1.0000 -0.0330828504
C   C174      1.0  0.80816  0.52306  0.09980  1.0000 -0.0330828504
C   C175      1.0  0.70836  0.90020  0.42326  1.0000 -0.0330828504
C   C176      1.0  0.29164  0.71490  0.19184  1.0000 -0.0330828504
C   C177      1.0  0.42326  0.70836  0.90020  1.0000 -0.0330828504
C   C178      1.0  0.09980  0.80816  0.52306  1.0000 -0.0330828504
C   C179      1.0  0.71490  0.19184  0.29164  1.0000 -0.0330828504
C   C180      1.0  0.90020  0.42326  0.70836  1.0000 -0.0330828504
C   C181      1.0  0.71490  0.42326  0.52306  1.0000 -0.0330828504
C   C182      1.0  0.52306  0.71490  0.42326  1.0000 -0.0330828504
C   C183      1.0  0.42326  0.52306  0.71490  1.0000 -0.0330828504
C   C184      1.0  0.80816  0.70836  0.28510  1.0000 -0.0330828504
C   C185      1.0  0.47694  0.90020  0.19184  1.0000 -0.0330828504
C   C186      1.0  0.19184  0.47694  0.90020  1.0000 -0.0330828504
C   C187      1.0  0.29164  0.09980  0.57674  1.0000 -0.0330828504
C   C188      1.0  0.70836  0.28510  0.80816  1.0000 -0.0330828504
C   C189      1.0  0.57674  0.29164  0.09980  1.0000 -0.0330828504
C   C190      1.0  0.90020  0.19184  0.47694  1.0000 -0.0330828504
C   C191      1.0  0.28510  0.80816  0.70836  1.0000 -0.0330828504
C   C192      1.0  0.09980  0.57674  0.29164  1.0000 -0.0330828504
C   C193      1.0  0.37989  0.45220  0.42699  1.0000 0.079629967
C   C194      1.0  0.42699  0.37989  0.45220  1.0000 0.079629967
C   C195      1.0  0.45220  0.42699  0.37989  1.0000 0.079629967
C   C196      1.0  0.04710  0.07231  0.62011  1.0000 0.079629967
C   C197      1.0  0.57301  0.02521  0.95290  1.0000 0.079629967
C   C198      1.0  0.95290  0.57301  0.02521  1.0000 0.079629967
C   C199      1.0  0.92769  0.97479  0.54780  1.0000 0.079629967
C   C200      1.0  0.07231  0.62011  0.04710  1.0000 0.079629967
C   C201      1.0  0.54780  0.92769  0.97479  1.0000 0.079629967
C   C202      1.0  0.02521  0.95290  0.57301  1.0000 0.079629967
C   C203      1.0  0.62011  0.04710  0.07231  1.0000 0.079629967
C   C204      1.0  0.97479  0.54780  0.92769  1.0000 0.079629967
C   C205      1.0  0.62011  0.54780  0.57301  1.0000 0.079629967
C   C206      1.0  0.57301  0.62011  0.54780  1.0000 0.079629967
C   C207      1.0  0.54780  0.57301  0.62011  1.0000 0.079629967
C   C208      1.0  0.95290  0.92769  0.37989  1.0000 0.079629967
C   C209      1.0  0.42699  0.97479  0.04710  1.0000 0.079629967
C   C210      1.0  0.04710  0.42699  0.97479  1.0000 0.079629967
C   C211      1.0  0.07231  0.02521  0.45220  1.0000 0.079629967
C   C212      1.0  0.92769  0.37989  0.95290  1.0000 0.079629967
C   C213      1.0  0.45220  0.07231  0.02521  1.0000 0.079629967
C   C214      1.0  0.97479  0.04710  0.42699  1.0000 0.079629967
C   C215      1.0  0.37989  0.95290  0.92769  1.0000 0.079629967
C   C216      1.0  0.02521  0.45220  0.07231  1.0000 0.079629967
O   O1        1.0  0.19905  0.59656  0.49783  1.0000 -0.5134479362
O   O2        1.0  0.49783  0.19905  0.59656  1.0000 -0.5134479362
O   O3        1.0  0.59656  0.49783  0.19905  1.0000 -0.5134479362
O   O4        1.0  0.29878  0.39751  0.80095  1.0000 -0.5134479362
O   O5        1.0  0.50217  0.09873  0.70122  1.0000 -0.5134479362
O   O6        1.0  0.70122  0.50217  0.09873  1.0000 -0.5134479362
O   O7        1.0  0.60249  0.90127  0.40344  1.0000 -0.5134479362
O   O8        1.0  0.39751  0.80095  0.29878  1.0000 -0.5134479362
O   O9        1.0  0.40344  0.60249  0.90127  1.0000 -0.5134479362
O   O10       1.0  0.09873  0.70122  0.50217  1.0000 -0.5134479362
O   O11       1.0  0.80095  0.29878  0.39751  1.0000 -0.5134479362
O   O12       1.0  0.90127  0.40344  0.60249  1.0000 -0.5134479362
O   O13       1.0  0.80095  0.40344  0.50217  1.0000 -0.5134479362
O   O14       1.0  0.50217  0.80095  0.40344  1.0000 -0.5134479362
O   O15       1.0  0.40344  0.50217  0.80095  1.0000 -0.5134479362
O   O16       1.0  0.70122  0.60249  0.19905  1.0000 -0.5134479362
O   O17       1.0  0.49783  0.90127  0.29878  1.0000 -0.5134479362
O   O18       1.0  0.29878  0.49783  0.90127  1.0000 -0.5134479362
O   O19       1.0  0.39751  0.09873  0.59656  1.0000 -0.5134479362
O   O20       1.0  0.60249  0.19905  0.70122  1.0000 -0.5134479362
O   O21       1.0  0.59656  0.39751  0.09873  1.0000 -0.5134479362
O   O22       1.0  0.90127  0.29878  0.49783  1.0000 -0.5134479362
O   O23       1.0  0.19905  0.70122  0.60249  1.0000 -0.5134479362
O   O24       1.0  0.09873  0.59656  0.39751  1.0000 -0.5134479362
O   O25       1.0  0.28092  0.67998  0.49782  1.0000 -0.5211884289
O   O26       1.0  0.49782  0.28092  0.67998  1.0000 -0.5211884289
O   O27       1.0  0.67998  0.49782  0.28092  1.0000 -0.5211884289
O   O28       1.0  0.21690  0.39906  0.71908  1.0000 -0.5211884289
O   O29       1.0  0.50218  0.18216  0.78310  1.0000 -0.5211884289
O   O30       1.0  0.78310  0.50218  0.18216  1.0000 -0.5211884289
O   O31       1.0  0.60094  0.81784  0.32002  1.0000 -0.5211884289
O   O32       1.0  0.39906  0.71908  0.21690  1.0000 -0.5211884289
O   O33       1.0  0.32002  0.60094  0.81784  1.0000 -0.5211884289
O   O34       1.0  0.18216  0.78310  0.50218  1.0000 -0.5211884289
O   O35       1.0  0.71908  0.21690  0.39906  1.0000 -0.5211884289
O   O36       1.0  0.81784  0.32002  0.60094  1.0000 -0.5211884289
O   O37       1.0  0.71908  0.32002  0.50218  1.0000 -0.5211884289
O   O38       1.0  0.50218  0.71908  0.32002  1.0000 -0.5211884289
O   O39       1.0  0.32002  0.50218  0.71908  1.0000 -0.5211884289
O   O40       1.0  0.78310  0.60094  0.28092  1.0000 -0.5211884289
O   O41       1.0  0.49782  0.81784  0.21690  1.0000 -0.5211884289
O   O42       1.0  0.21690  0.49782  0.81784  1.0000 -0.5211884289
O   O43       1.0  0.39906  0.18216  0.67998  1.0000 -0.5211884289
O   O44       1.0  0.60094  0.28092  0.78310  1.0000 -0.5211884289
O   O45       1.0  0.67998  0.39906  0.18216  1.0000 -0.5211884289
O   O46       1.0  0.81784  0.21690  0.49782  1.0000 -0.5211884289
O   O47       1.0  0.28092  0.78310  0.60094  1.0000 -0.5211884289
O   O48       1.0  0.18216  0.67998  0.39906  1.0000 -0.5211884289
