# DDEC6 charges by PACMAN v1.1 (https://github.com/mtap-research/PACMAN-charge/)
data_2014[Cd][nan]3[ASR]17
_chemical_formula_sum              "Cd8 H80 C88 N8 O32"
_cell_length_a       9.374
_cell_length_b       21.316
_cell_length_c       17.13
_cell_angle_alpha    90
_cell_angle_beta     118.334
_cell_angle_gamma    90

_symmetry_space_group_name_H-M    "P 1"
_symmetry_Int_Tables_number       1

loop_
  _symmetry_equiv_pos_as_xyz
  'x, y, z'

loop_
  _atom_site_type_symbol
  _atom_site_label
  _atom_site_symmetry_multiplicity
  _atom_site_fract_x
  _atom_site_fract_y
  _atom_site_fract_z
  _atom_site_occupancy
  _atom_site_charge
Cd  Cd1       1.0  0.27763  0.81299  0.61119  1.0000 0.8025549742
Cd  Cd2       1.0  0.72237  0.31299  0.88881  1.0000 0.8025549742
Cd  Cd3       1.0  0.72237  0.18701  0.38881  1.0000 0.8025549742
Cd  Cd4       1.0  0.27763  0.68701  0.11119  1.0000 0.8025549742
Cd  Cd5       1.0  0.70692  0.00747  0.90971  1.0000 0.9715262296
Cd  Cd6       1.0  0.29308  0.50747  0.59029  1.0000 0.9715262296
Cd  Cd7       1.0  0.29308  0.99253  0.09029  1.0000 0.9715262296
Cd  Cd8       1.0  0.70692  0.49253  0.40971  1.0000 0.9715262296
H   H1        1.0  0.61550  0.22570  0.71740  1.0000 0.129681018
H   H2        1.0  0.38450  0.72570  0.78260  1.0000 0.129681018
H   H3        1.0  0.38450  0.77430  0.28260  1.0000 0.129681018
H   H4        1.0  0.61550  0.27430  0.21740  1.0000 0.129681018
H   H5        1.0  0.04580  0.25210  0.91000  1.0000 0.117757615
H   H6        1.0  0.95420  0.75210  0.59000  1.0000 0.117757615
H   H7        1.0  0.95420  0.74790  0.09000  1.0000 0.117757615
H   H8        1.0  0.04580  0.24790  0.41000  1.0000 0.117757615
H   H9        1.0  0.37280  0.94970  0.68920  1.0000 0.129681018
H   H10       1.0  0.62720  0.44970  0.81080  1.0000 0.129681018
H   H11       1.0  0.62720  0.05030  0.31080  1.0000 0.129681018
H   H12       1.0  0.37280  0.55030  0.18920  1.0000 0.129681018
H   H13       1.0  0.26780  0.04150  0.70610  1.0000 0.1483557912
H   H14       1.0  0.73220  0.54150  0.79390  1.0000 0.1483557912
H   H15       1.0  0.73220  0.95850  0.29390  1.0000 0.1483557912
H   H16       1.0  0.26780  0.45850  0.20610  1.0000 0.1483557912
H   H17       1.0  0.82420  0.97490  0.54980  1.0000 0.1435276212
H   H18       1.0  0.17580  0.47490  0.95020  1.0000 0.1435276212
H   H19       1.0  0.17580  0.02510  0.45020  1.0000 0.1435276212
H   H20       1.0  0.82420  0.52510  0.04980  1.0000 0.1435276212
H   H21       1.0  0.94480  0.87840  0.53880  1.0000 0.1108593585
H   H22       1.0  0.05520  0.37840  0.96120  1.0000 0.1108593585
H   H23       1.0  0.05520  0.12160  0.46120  1.0000 0.1108593585
H   H24       1.0  0.94480  0.62160  0.03880  1.0000 0.1108593585
H   H25       1.0  0.84320  0.08110  0.60620  1.0000 0.117757615
H   H26       1.0  0.15680  0.58110  0.89380  1.0000 0.117757615
H   H27       1.0  0.15680  0.91890  0.39380  1.0000 0.117757615
H   H28       1.0  0.84320  0.41890  0.10620  1.0000 0.117757615
H   H29       1.0  0.00170  0.11620  0.62250  1.0000 0.129681018
H   H30       1.0  0.99830  0.61620  0.87750  1.0000 0.129681018
H   H31       1.0  0.99830  0.88380  0.37750  1.0000 0.129681018
H   H32       1.0  0.00170  0.38380  0.12250  1.0000 0.129681018
H   H33       1.0  0.96540  0.05620  0.75350  1.0000 0.129681018
H   H34       1.0  0.03460  0.55620  0.74650  1.0000 0.129681018
H   H35       1.0  0.03460  0.94380  0.24650  1.0000 0.129681018
H   H36       1.0  0.96540  0.44380  0.25350  1.0000 0.129681018
H   H37       1.0  0.11440  0.09620  0.76730  1.0000 0.117757615
H   H38       1.0  0.88560  0.59620  0.73270  1.0000 0.117757615
H   H39       1.0  0.88560  0.90380  0.23270  1.0000 0.117757615
H   H40       1.0  0.11440  0.40380  0.26730  1.0000 0.117757615
H   H41       1.0  0.14590  0.17060  0.86140  1.0000 0.1483557912
H   H42       1.0  0.85410  0.67060  0.63860  1.0000 0.1483557912
H   H43       1.0  0.85410  0.82940  0.13860  1.0000 0.1483557912
H   H44       1.0  0.14590  0.32940  0.36140  1.0000 0.1483557912
H   H45       1.0  0.70050  0.14740  0.66120  1.0000 0.1483557912
H   H46       1.0  0.29950  0.64740  0.83880  1.0000 0.1483557912
H   H47       1.0  0.29950  0.85260  0.33880  1.0000 0.1483557912
H   H48       1.0  0.70050  0.35260  0.16120  1.0000 0.1483557912
H   H49       1.0  0.06780  0.76550  0.82740  1.0000 0.0886902863
H   H50       1.0  0.93220  0.26550  0.67260  1.0000 0.0886902863
H   H51       1.0  0.93220  0.23450  0.17260  1.0000 0.0886902863
H   H52       1.0  0.06780  0.73450  0.32740  1.0000 0.0886902863
H   H53       1.0  0.82380  0.75110  0.81820  1.0000 0.1007143364
H   H54       1.0  0.17620  0.25110  0.68180  1.0000 0.1007143364
H   H55       1.0  0.17620  0.24890  0.18180  1.0000 0.1007143364
H   H56       1.0  0.82380  0.74890  0.31820  1.0000 0.1007143364
H   H57       1.0  0.84010  0.81270  0.87200  1.0000 0.117757615
H   H58       1.0  0.15990  0.31270  0.62800  1.0000 0.117757615
H   H59       1.0  0.15990  0.18730  0.12800  1.0000 0.117757615
H   H60       1.0  0.84010  0.68730  0.37200  1.0000 0.117757615
H   H61       1.0  0.82660  0.81000  0.70390  1.0000 0.0886902863
H   H62       1.0  0.17340  0.31000  0.79610  1.0000 0.0886902863
H   H63       1.0  0.17340  0.19000  0.29610  1.0000 0.0886902863
H   H64       1.0  0.82660  0.69000  0.20390  1.0000 0.0886902863
H   H65       1.0  0.82330  0.91700  0.70080  1.0000 0.0886902863
H   H66       1.0  0.17670  0.41700  0.79920  1.0000 0.0886902863
H   H67       1.0  0.17670  0.08300  0.29920  1.0000 0.0886902863
H   H68       1.0  0.82330  0.58300  0.20080  1.0000 0.0886902863
H   H69       1.0  0.09730  0.93330  0.81000  1.0000 0.1007143364
H   H70       1.0  0.90270  0.43330  0.69000  1.0000 0.1007143364
H   H71       1.0  0.90270  0.06670  0.19000  1.0000 0.1007143364
H   H72       1.0  0.09730  0.56670  0.31000  1.0000 0.1007143364
H   H73       1.0  0.07360  0.87380  0.75170  1.0000 0.0727292329
H   H74       1.0  0.92640  0.37380  0.74830  1.0000 0.0727292329
H   H75       1.0  0.92640  0.12620  0.24830  1.0000 0.0727292329
H   H76       1.0  0.07360  0.62620  0.25170  1.0000 0.0727292329
H   H77       1.0  0.24430  0.84130  0.88700  1.0000 0.1007143364
H   H78       1.0  0.75570  0.34130  0.61300  1.0000 0.1007143364
H   H79       1.0  0.75570  0.15870  0.11300  1.0000 0.1007143364
H   H80       1.0  0.24430  0.65870  0.38700  1.0000 0.1007143364
C   C1        1.0  0.72430  0.21440  0.74750  1.0000 0.0794441046
C   C2        1.0  0.27570  0.71440  0.75250  1.0000 0.0794441046
C   C3        1.0  0.27570  0.78560  0.25250  1.0000 0.0794441046
C   C4        1.0  0.72430  0.28560  0.24750  1.0000 0.0794441046
C   C5        1.0  0.97480  0.22960  0.86000  1.0000 0.0727292329
C   C6        1.0  0.02520  0.72960  0.64000  1.0000 0.0727292329
C   C7        1.0  0.02520  0.77040  0.14000  1.0000 0.0727292329
C   C8        1.0  0.97480  0.27040  0.36000  1.0000 0.0727292329
C   C9        1.0  0.26080  0.95480  0.66050  1.0000 0.0727292329
C   C10       1.0  0.73920  0.45480  0.83950  1.0000 0.0727292329
C   C11       1.0  0.73920  0.04520  0.33950  1.0000 0.0727292329
C   C12       1.0  0.26080  0.54520  0.16050  1.0000 0.0727292329
C   C13       1.0  0.19820  0.01010  0.67080  1.0000 -0.2125446581
C   C14       1.0  0.80180  0.51010  0.82920  1.0000 -0.2125446581
C   C15       1.0  0.80180  0.98990  0.32920  1.0000 -0.2125446581
C   C16       1.0  0.19820  0.48990  0.17080  1.0000 -0.2125446581
C   C17       1.0  0.02950  0.02010  0.62870  1.0000 0.1739294099
C   C18       1.0  0.97050  0.52010  0.87130  1.0000 0.1739294099
C   C19       1.0  0.97050  0.97990  0.37130  1.0000 0.1739294099
C   C20       1.0  0.02950  0.47990  0.12870  1.0000 0.1739294099
C   C21       1.0  0.93640  0.97090  0.57910  1.0000 -0.2125446581
C   C22       1.0  0.06360  0.47090  0.92090  1.0000 -0.2125446581
C   C23       1.0  0.06360  0.02910  0.42090  1.0000 -0.2125446581
C   C24       1.0  0.93640  0.52910  0.07910  1.0000 -0.2125446581
C   C25       1.0  0.00940  0.91190  0.57120  1.0000 0.1007143364
C   C26       1.0  0.99060  0.41190  0.92880  1.0000 0.1007143364
C   C27       1.0  0.99060  0.08810  0.42880  1.0000 0.1007143364
C   C28       1.0  0.00940  0.58810  0.07120  1.0000 0.1007143364
C   C29       1.0  0.96000  0.08170  0.64270  1.0000 -0.2519523447
C   C30       1.0  0.04000  0.58170  0.85730  1.0000 -0.2519523447
C   C31       1.0  0.04000  0.91830  0.35730  1.0000 -0.2519523447
C   C32       1.0  0.96000  0.41830  0.14270  1.0000 -0.2519523447
C   C33       1.0  0.99730  0.09330  0.73300  1.0000 -0.2125446581
C   C34       1.0  0.00270  0.59330  0.76700  1.0000 -0.2125446581
C   C35       1.0  0.00270  0.90670  0.26700  1.0000 -0.2125446581
C   C36       1.0  0.99730  0.40670  0.23300  1.0000 -0.2125446581
C   C37       1.0  0.92980  0.14800  0.75790  1.0000 0.158761477
C   C38       1.0  0.07020  0.64800  0.74210  1.0000 0.158761477
C   C39       1.0  0.07020  0.85200  0.24210  1.0000 0.158761477
C   C40       1.0  0.92980  0.35200  0.25790  1.0000 0.158761477
C   C41       1.0  0.03630  0.18080  0.83160  1.0000 -0.1900103485
C   C42       1.0  0.96370  0.68080  0.66840  1.0000 -0.1900103485
C   C43       1.0  0.96370  0.81920  0.16840  1.0000 -0.1900103485
C   C44       1.0  0.03630  0.31920  0.33160  1.0000 -0.1900103485
C   C45       1.0  0.77310  0.16690  0.71380  1.0000 -0.1900103485
C   C46       1.0  0.22690  0.66690  0.78620  1.0000 -0.1900103485
C   C47       1.0  0.22690  0.83310  0.28620  1.0000 -0.1900103485
C   C48       1.0  0.77310  0.33310  0.21380  1.0000 -0.1900103485
C   C49       1.0  0.12710  0.75010  0.95530  1.0000 0.5699087622
C   C50       1.0  0.87290  0.25010  0.54470  1.0000 0.5699087622
C   C51       1.0  0.87290  0.24990  0.04470  1.0000 0.5699087622
C   C52       1.0  0.12710  0.74990  0.45530  1.0000 0.5699087622
C   C53       1.0  0.04850  0.78940  0.87040  1.0000 -0.1272435674
C   C54       1.0  0.95150  0.28940  0.62960  1.0000 -0.1272435674
C   C55       1.0  0.95150  0.21060  0.12960  1.0000 -0.1272435674
C   C56       1.0  0.04850  0.71060  0.37040  1.0000 -0.1272435674
C   C57       1.0  0.86860  0.79320  0.83010  1.0000 -0.2000073904
C   C58       1.0  0.13140  0.29320  0.66990  1.0000 -0.2000073904
C   C59       1.0  0.13140  0.20680  0.16990  1.0000 -0.2000073904
C   C60       1.0  0.86860  0.70680  0.33010  1.0000 -0.2000073904
C   C61       1.0  0.79320  0.83100  0.74350  1.0000 -0.1272435674
C   C62       1.0  0.20680  0.33100  0.75650  1.0000 -0.1272435674
C   C63       1.0  0.20680  0.16900  0.25650  1.0000 -0.1272435674
C   C64       1.0  0.79320  0.66900  0.24350  1.0000 -0.1272435674
C   C65       1.0  0.60680  0.83090  0.69470  1.0000 0.5791783722
C   C66       1.0  0.39320  0.33090  0.80530  1.0000 0.5791783722
C   C67       1.0  0.39320  0.16910  0.30530  1.0000 0.5791783722
C   C68       1.0  0.60680  0.66910  0.19470  1.0000 0.5791783722
C   C69       1.0  0.86580  0.89680  0.75900  1.0000 -0.1247125847
C   C70       1.0  0.13420  0.39680  0.74100  1.0000 -0.1247125847
C   C71       1.0  0.13420  0.10320  0.24100  1.0000 -0.1247125847
C   C72       1.0  0.86580  0.60320  0.25900  1.0000 -0.1247125847
C   C73       1.0  0.05140  0.89140  0.79700  1.0000 -0.2000073904
C   C74       1.0  0.94860  0.39140  0.70300  1.0000 -0.2000073904
C   C75       1.0  0.94860  0.10860  0.20300  1.0000 -0.2000073904
C   C76       1.0  0.05140  0.60860  0.29700  1.0000 -0.2000073904
C   C77       1.0  0.13740  0.85170  0.88060  1.0000 -0.1272435674
C   C78       1.0  0.86260  0.35170  0.61940  1.0000 -0.1272435674
C   C79       1.0  0.86260  0.14830  0.11940  1.0000 -0.1272435674
C   C80       1.0  0.13740  0.64830  0.38060  1.0000 -0.1272435674
C   C81       1.0  0.81280  0.93750  0.81580  1.0000 0.5699087622
C   C82       1.0  0.18720  0.43750  0.68420  1.0000 0.5699087622
C   C83       1.0  0.18720  0.06250  0.18420  1.0000 0.5699087622
C   C84       1.0  0.81280  0.56250  0.31580  1.0000 0.5699087622
C   C85       1.0  0.16640  0.88890  0.96240  1.0000 0.5791783722
C   C86       1.0  0.83360  0.38890  0.53760  1.0000 0.5791783722
C   C87       1.0  0.83360  0.11110  0.03760  1.0000 0.5791783722
C   C88       1.0  0.16640  0.61110  0.46240  1.0000 0.5791783722
N   N1        1.0  0.81870  0.24590  0.81930  1.0000 -0.241130842
N   N2        1.0  0.18130  0.74590  0.68070  1.0000 -0.241130842
N   N3        1.0  0.18130  0.75410  0.18070  1.0000 -0.241130842
N   N4        1.0  0.81870  0.25410  0.31930  1.0000 -0.241130842
N   N5        1.0  0.16820  0.90760  0.61090  1.0000 -0.241130842
N   N6        1.0  0.83180  0.40760  0.88910  1.0000 -0.241130842
N   N7        1.0  0.83180  0.09240  0.38910  1.0000 -0.241130842
N   N8        1.0  0.16820  0.59240  0.11090  1.0000 -0.241130842
O   O1        1.0  0.52980  0.86650  0.63230  1.0000 -0.550157441
O   O2        1.0  0.47020  0.36650  0.86770  1.0000 -0.550157441
O   O3        1.0  0.47020  0.13350  0.36770  1.0000 -0.550157441
O   O4        1.0  0.52980  0.63350  0.13230  1.0000 -0.550157441
O   O5        1.0  0.53560  0.78960  0.71580  1.0000 -0.5388312397
O   O6        1.0  0.46440  0.28960  0.78420  1.0000 -0.5388312397
O   O7        1.0  0.46440  0.21040  0.28420  1.0000 -0.5388312397
O   O8        1.0  0.53560  0.71040  0.21580  1.0000 -0.5388312397
O   O9        1.0  0.68790  0.92230  0.82040  1.0000 -0.550157441
O   O10       1.0  0.31210  0.42230  0.67960  1.0000 -0.550157441
O   O11       1.0  0.31210  0.07770  0.17960  1.0000 -0.550157441
O   O12       1.0  0.68790  0.57770  0.32040  1.0000 -0.550157441
O   O13       1.0  0.89130  0.98680  0.85220  1.0000 -0.5590653179
O   O14       1.0  0.10870  0.48680  0.64780  1.0000 -0.5590653179
O   O15       1.0  0.10870  0.01320  0.14780  1.0000 -0.5590653179
O   O16       1.0  0.89130  0.51320  0.35220  1.0000 -0.5590653179
O   O17       1.0  0.08990  0.88190  0.00280  1.0000 -0.5122423676
O   O18       1.0  0.91010  0.38190  0.49720  1.0000 -0.5122423676
O   O19       1.0  0.91010  0.11810  0.99720  1.0000 -0.5122423676
O   O20       1.0  0.08990  0.61810  0.50280  1.0000 -0.5153818635
O   O21       1.0  0.28320  0.92930  0.98680  1.0000 -0.5966748653
O   O22       1.0  0.71680  0.42930  0.51320  1.0000 -0.5966748653
O   O23       1.0  0.71680  0.07070  0.01320  1.0000 -0.5966748653
O   O24       1.0  0.28320  0.57070  0.48680  1.0000 -0.5966748653
O   O25       1.0  0.03860  0.71490  0.97240  1.0000 -0.5672207234
O   O26       1.0  0.96140  0.21490  0.52760  1.0000 -0.5672207234
O   O27       1.0  0.96140  0.28510  0.02760  1.0000 -0.5672207234
O   O28       1.0  0.03860  0.78510  0.47240  1.0000 -0.5672207234
O   O29       1.0  0.27880  0.75160  0.00350  1.0000 -0.5272542147
O   O30       1.0  0.72120  0.25160  0.49650  1.0000 -0.5272542147
O   O31       1.0  0.72120  0.24840  0.99650  1.0000 -0.5272542147
O   O32       1.0  0.27880  0.74840  0.50350  1.0000 -0.5272542147
