# DDEC6 charges by PACMAN v1.1 (https://github.com/mtap-research/PACMAN-charge/)
data_2014[La][nan]3[ASR]3
_chemical_formula_sum              "La2 H30 C48 N12 O12"
_cell_length_a       15.2828
_cell_length_b       15.2828
_cell_length_c       8.259
_cell_angle_alpha    80.6549
_cell_angle_beta     99.3451
_cell_angle_gamma    106.145

_symmetry_space_group_name_H-M    "P 1"
_symmetry_Int_Tables_number       1

loop_
  _symmetry_equiv_pos_as_xyz
  'x, y, z'

loop_
  _atom_site_type_symbol
  _atom_site_label
  _atom_site_symmetry_multiplicity
  _atom_site_fract_x
  _atom_site_fract_y
  _atom_site_fract_z
  _atom_site_occupancy
  _atom_site_charge
La  La1       1.0  0.76659  0.26133  0.19604  1.0000 1.8609016703
La  La2       1.0  0.73867  0.23341  0.69604  1.0000 1.8609016703
H   H1        1.0  0.30970  0.94830  0.95240  1.0000 0.1227614368
H   H2        1.0  0.05170  0.69030  0.45240  1.0000 0.1280294402
H   H3        1.0  0.35190  0.17970  0.15130  1.0000 0.1280294402
H   H4        1.0  0.82030  0.64810  0.65130  1.0000 0.1280294402
H   H5        1.0  0.01900  0.03860  0.29050  1.0000 0.1227614368
H   H6        1.0  0.96140  0.98100  0.79050  1.0000 0.1227614368
H   H7        1.0  0.96160  0.13320  0.41340  1.0000 0.1280294402
H   H8        1.0  0.86680  0.03840  0.91340  1.0000 0.1280294402
H   H9        1.0  0.73670  0.93050  0.48260  1.0000 0.1227614368
H   H10       1.0  0.06950  0.26330  0.98260  1.0000 0.1227614368
H   H11       1.0  0.79990  0.83390  0.38080  1.0000 0.1227614368
H   H12       1.0  0.16610  0.20010  0.88080  1.0000 0.1227614368
H   H13       1.0  0.45870  0.00270  0.86980  1.0000 0.1227614368
H   H14       1.0  0.99730  0.54130  0.36980  1.0000 0.1227614368
H   H15       1.0  0.49580  0.23020  0.07380  1.0000 0.1227614368
H   H16       1.0  0.76980  0.50420  0.57380  1.0000 0.1227614368
H   H17       1.0  0.85480  0.51180  0.00740  1.0000 0.1227614368
H   H18       1.0  0.48820  0.14520  0.50740  1.0000 0.1227614368
H   H19       1.0  0.94560  0.64900  0.07330  1.0000 0.1280294402
H   H20       1.0  0.35100  0.05440  0.57330  1.0000 0.1280294402
H   H21       1.0  0.05470  0.47250  0.79330  1.0000 0.1280294402
H   H22       1.0  0.52750  0.94530  0.29330  1.0000 0.1280294402
H   H23       1.0  0.14450  0.61050  0.85860  1.0000 0.1280294402
H   H24       1.0  0.38950  0.85550  0.35860  1.0000 0.1280294402
H   H25       1.0  0.22390  0.06750  0.18130  1.0000 0.2967451976
H   H26       1.0  0.93250  0.77610  0.68130  1.0000 0.2967451976
H   H27       1.0  0.16660  0.74220  0.96170  1.0000 0.2901708798
H   H28       1.0  0.25780  0.83340  0.46170  1.0000 0.2901708798
H   H29       1.0  0.89950  0.81590  0.22520  1.0000 0.2901708798
H   H30       1.0  0.18410  0.10050  0.72520  1.0000 0.2901708798
C   C1        1.0  0.10420  0.80540  0.06080  1.0000 0.533622043
C   C2        1.0  0.19460  0.89580  0.56080  1.0000 0.533622043
C   C3        1.0  0.16860  0.94780  0.12470  1.0000 0.5128039883
C   C4        1.0  0.05220  0.83140  0.62470  1.0000 0.5128039883
C   C5        1.0  0.02310  0.87570  0.17870  1.0000 0.5394282208
C   C6        1.0  0.12430  0.97690  0.67870  1.0000 0.5394282208
C   C7        1.0  0.05480  0.64700  0.97170  1.0000 0.228783624
C   C8        1.0  0.35300  0.94520  0.47170  1.0000 0.228783624
C   C9        1.0  0.31590  0.05670  0.06640  1.0000 0.2461003528
C   C10       1.0  0.94330  0.68410  0.56640  1.0000 0.2461003528
C   C11       1.0  0.34690  0.00490  0.97840  1.0000 -0.2291535272
C   C12       1.0  0.99510  0.65310  0.47840  1.0000 -0.2291535272
C   C13       1.0  0.37280  0.14240  0.09630  1.0000 -0.2291535272
C   C14       1.0  0.85760  0.62720  0.59630  1.0000 -0.2291535272
C   C15       1.0  0.91430  0.92670  0.31410  1.0000 0.2434327022
C   C16       1.0  0.07330  0.08570  0.81410  1.0000 0.2434327022
C   C17       1.0  0.96230  0.01570  0.32980  1.0000 -0.1992115809
C   C18       1.0  0.98430  0.03770  0.82980  1.0000 -0.1992115809
C   C19       1.0  0.92770  0.07310  0.40400  1.0000 -0.0786824173
C   C20       1.0  0.92690  0.07230  0.90400  1.0000 -0.0786824173
C   C21       1.0  0.84400  0.04160  0.46290  1.0000 -0.0605303341
C   C22       1.0  0.95840  0.15600  0.96290  1.0000 -0.0605303341
C   C23       1.0  0.79460  0.95240  0.44790  1.0000 -0.0715042955
C   C24       1.0  0.04760  0.20540  0.94790  1.0000 -0.0715042955
C   C25       1.0  0.83150  0.89550  0.38110  1.0000 -0.2364758088
C   C26       1.0  0.10450  0.16850  0.88110  1.0000 -0.2364758088
C   C27       1.0  0.80720  0.10380  0.53600  1.0000 0.5709584371
C   C28       1.0  0.89620  0.19280  0.03600  1.0000 0.5709584371
C   C29       1.0  0.58440  0.15240  0.91160  1.0000 0.588230537
C   C30       1.0  0.84760  0.41560  0.41160  1.0000 0.588230537
C   C31       1.0  0.49160  0.12280  0.95970  1.0000 -0.0715042955
C   C32       1.0  0.87720  0.50840  0.45970  1.0000 -0.0715042955
C   C33       1.0  0.43730  0.03870  0.92650  1.0000 -0.0715042955
C   C34       1.0  0.96130  0.56270  0.42650  1.0000 -0.0715042955
C   C35       1.0  0.45880  0.17360  0.04730  1.0000 -0.0605303341
C   C36       1.0  0.82640  0.54120  0.54730  1.0000 -0.0605303341
C   C37       1.0  0.88440  0.38520  0.85370  1.0000 0.5709584371
C   C38       1.0  0.61480  0.11560  0.35370  1.0000 0.5709584371
C   C39       1.0  0.94620  0.47320  0.90150  1.0000 -0.0457192494
C   C40       1.0  0.52680  0.05380  0.40150  1.0000 -0.0447087272
C   C41       1.0  0.91430  0.53090  0.97980  1.0000 -0.0715042955
C   C42       1.0  0.46910  0.08570  0.47980  1.0000 -0.0715042955
C   C43       1.0  0.96810  0.61390  0.01650  1.0000 -0.1992115809
C   C44       1.0  0.38610  0.03190  0.51650  1.0000 -0.1992115809
C   C45       1.0  0.03260  0.50700  0.85210  1.0000 -0.0715042955
C   C46       1.0  0.49300  0.96740  0.35210  1.0000 -0.0715042955
C   C47       1.0  0.08550  0.59030  0.88920  1.0000 -0.205980277
C   C48       1.0  0.40970  0.91450  0.38920  1.0000 -0.205980277
N   N1        1.0  0.09190  0.94970  0.19260  1.0000 -0.5395817144
N   N2        1.0  0.05030  0.90810  0.69260  1.0000 -0.5395817144
N   N3        1.0  0.02400  0.80080  0.10940  1.0000 -0.5395817144
N   N4        1.0  0.19920  0.97600  0.60940  1.0000 -0.5395817144
N   N5        1.0  0.17760  0.87760  0.06320  1.0000 -0.519742979
N   N6        1.0  0.12240  0.82240  0.56320  1.0000 -0.519742979
N   N7        1.0  0.23530  0.02830  0.12940  1.0000 -0.3287121638
N   N8        1.0  0.97170  0.76470  0.62940  1.0000 -0.3287121638
N   N9        1.0  0.11400  0.73320  0.99520  1.0000 -0.3562335207
N   N10       1.0  0.26680  0.88600  0.49520  1.0000 -0.3496160739
N   N11       1.0  0.94030  0.86670  0.23830  1.0000 -0.3496160739
N   N12       1.0  0.13330  0.05970  0.73830  1.0000 -0.3496160739
O   O1        1.0  0.83310  0.19170  0.48670  1.0000 -0.6777580812
O   O2        1.0  0.80830  0.16690  0.98670  1.0000 -0.6777580812
O   O3        1.0  0.63910  0.22670  0.95920  1.0000 -0.6777580812
O   O4        1.0  0.77330  0.36090  0.45920  1.0000 -0.6777580812
O   O5        1.0  0.60780  0.11060  0.81010  1.0000 -0.5753574802
O   O6        1.0  0.88940  0.39220  0.31010  1.0000 -0.5742820932
O   O7        1.0  0.90510  0.33910  0.76010  1.0000 -0.5506284966
O   O8        1.0  0.66090  0.09490  0.26010  1.0000 -0.5506284966
O   O9        1.0  0.80360  0.35840  0.90640  1.0000 -0.6970333888
O   O10       1.0  0.64160  0.19640  0.40640  1.0000 -0.6970333888
O   O11       1.0  0.75040  0.07400  0.64140  1.0000 -0.5645961
O   O12       1.0  0.92600  0.24960  0.14140  1.0000 -0.5645961
