# DDEC6 charges by PACMAN v1.1 (https://github.com/mtap-research/PACMAN-charge/)
data_2014[Cu][tbo]3[ASR]10
_chemical_formula_sum              "Cu12 H24 C72 O48"
_cell_length_a       18.6003
_cell_length_b       18.6003
_cell_length_c       18.6003
_cell_angle_alpha    60
_cell_angle_beta     60
_cell_angle_gamma    60

_symmetry_space_group_name_H-M    "P 1"
_symmetry_Int_Tables_number       1

loop_
  _symmetry_equiv_pos_as_xyz
  'x, y, z'

loop_
  _atom_site_type_symbol
  _atom_site_label
  _atom_site_symmetry_multiplicity
  _atom_site_fract_x
  _atom_site_fract_y
  _atom_site_fract_z
  _atom_site_occupancy
  _atom_site_charge
Cu  Cu1       1.0  0.00000  0.00000  0.56780  1.0000 0.844652172
Cu  Cu2       1.0  0.56780  0.43220  0.00000  1.0000 0.844652172
Cu  Cu3       1.0  0.00000  0.00000  0.43220  1.0000 0.844652172
Cu  Cu4       1.0  0.43220  0.56780  0.00000  1.0000 0.844652172
Cu  Cu5       1.0  0.00000  0.56780  0.00000  1.0000 0.844652172
Cu  Cu6       1.0  0.43220  0.00000  0.56780  1.0000 0.844652172
Cu  Cu7       1.0  0.00000  0.43220  0.56780  1.0000 0.844652172
Cu  Cu8       1.0  0.56780  0.00000  0.00000  1.0000 0.844652172
Cu  Cu9       1.0  0.56780  0.00000  0.43220  1.0000 0.844652172
Cu  Cu10      1.0  0.43220  0.00000  0.00000  1.0000 0.844652172
Cu  Cu11      1.0  0.00000  0.43220  0.00000  1.0000 0.844652172
Cu  Cu12      1.0  0.00000  0.56780  0.43220  1.0000 0.844652172
H   H1        1.0  0.27130  0.97030  0.27130  1.0000 0.1368178438
H   H2        1.0  0.51290  0.72870  0.72870  1.0000 0.1368178438
H   H3        1.0  0.97030  0.27130  0.48710  1.0000 0.1368178438
H   H4        1.0  0.72870  0.51290  0.02970  1.0000 0.1368178438
H   H5        1.0  0.02970  0.51290  0.72870  1.0000 0.1368178438
H   H6        1.0  0.48710  0.27130  0.97030  1.0000 0.1368178438
H   H7        1.0  0.72870  0.72870  0.51290  1.0000 0.1368178438
H   H8        1.0  0.02970  0.72870  0.51290  1.0000 0.1368178438
H   H9        1.0  0.27130  0.48710  0.27130  1.0000 0.1368178438
H   H10       1.0  0.51290  0.72870  0.02970  1.0000 0.1368178438
H   H11       1.0  0.27130  0.27130  0.97030  1.0000 0.1368178438
H   H12       1.0  0.97030  0.27130  0.27130  1.0000 0.1368178438
H   H13       1.0  0.27130  0.97030  0.48710  1.0000 0.1368178438
H   H14       1.0  0.48710  0.97030  0.27130  1.0000 0.1368178438
H   H15       1.0  0.27130  0.48710  0.97030  1.0000 0.1368178438
H   H16       1.0  0.27130  0.27130  0.48710  1.0000 0.1368178438
H   H17       1.0  0.97030  0.48710  0.27130  1.0000 0.1368178438
H   H18       1.0  0.48710  0.27130  0.27130  1.0000 0.1368178438
H   H19       1.0  0.72870  0.02970  0.51290  1.0000 0.1368178438
H   H20       1.0  0.02970  0.72870  0.72870  1.0000 0.1368178438
H   H21       1.0  0.51290  0.02970  0.72870  1.0000 0.1368178438
H   H22       1.0  0.72870  0.72870  0.02970  1.0000 0.1368178438
H   H23       1.0  0.72870  0.51290  0.72870  1.0000 0.1368178438
H   H24       1.0  0.72870  0.02970  0.72870  1.0000 0.1368178438
C   C1        1.0  0.25666  0.97070  0.38632  1.0000 -0.030149503
C   C2        1.0  0.61368  0.61368  0.74334  1.0000 -0.030149503
C   C3        1.0  0.97070  0.25666  0.38632  1.0000 -0.030149503
C   C4        1.0  0.61368  0.61368  0.02930  1.0000 -0.030149503
C   C5        1.0  0.02930  0.61368  0.74334  1.0000 -0.030149503
C   C6        1.0  0.38632  0.38632  0.97070  1.0000 -0.030149503
C   C7        1.0  0.61368  0.74334  0.61368  1.0000 -0.030149503
C   C8        1.0  0.02930  0.61368  0.61368  1.0000 -0.030149503
C   C9        1.0  0.38632  0.38632  0.25666  1.0000 -0.030149503
C   C10       1.0  0.61368  0.74334  0.02930  1.0000 -0.030149503
C   C11       1.0  0.38632  0.25666  0.97070  1.0000 -0.030149503
C   C12       1.0  0.97070  0.38632  0.25666  1.0000 -0.030149503
C   C13       1.0  0.38632  0.97070  0.38632  1.0000 -0.030149503
C   C14       1.0  0.38632  0.97070  0.25666  1.0000 -0.030149503
C   C15       1.0  0.25666  0.38632  0.97070  1.0000 -0.030149503
C   C16       1.0  0.25666  0.38632  0.38632  1.0000 -0.030149503
C   C17       1.0  0.97070  0.38632  0.38632  1.0000 -0.030149503
C   C18       1.0  0.38632  0.25666  0.38632  1.0000 -0.030149503
C   C19       1.0  0.74334  0.02930  0.61368  1.0000 -0.030149503
C   C20       1.0  0.02930  0.74334  0.61368  1.0000 -0.030149503
C   C21       1.0  0.61368  0.02930  0.61368  1.0000 -0.030149503
C   C22       1.0  0.74334  0.61368  0.02930  1.0000 -0.030149503
C   C23       1.0  0.74334  0.61368  0.61368  1.0000 -0.030149503
C   C24       1.0  0.61368  0.02930  0.74334  1.0000 -0.030149503
C   C25       1.0  0.16200  0.97624  0.43088  1.0000 0.5795395906
C   C26       1.0  0.56912  0.56912  0.83800  1.0000 0.5795395906
C   C27       1.0  0.97624  0.16200  0.43088  1.0000 0.5795395906
C   C28       1.0  0.56912  0.56912  0.02376  1.0000 0.5795395906
C   C29       1.0  0.02376  0.56912  0.83800  1.0000 0.5795395906
C   C30       1.0  0.43088  0.43088  0.97624  1.0000 0.5795395906
C   C31       1.0  0.56912  0.83800  0.56912  1.0000 0.5795395906
C   C32       1.0  0.02376  0.56912  0.56912  1.0000 0.5795395906
C   C33       1.0  0.43088  0.43088  0.16200  1.0000 0.5795395906
C   C34       1.0  0.56912  0.83800  0.02376  1.0000 0.5795395906
C   C35       1.0  0.43088  0.16200  0.97624  1.0000 0.5795395906
C   C36       1.0  0.97624  0.43088  0.16200  1.0000 0.5795395906
C   C37       1.0  0.43088  0.97624  0.43088  1.0000 0.5795395906
C   C38       1.0  0.43088  0.97624  0.16200  1.0000 0.5795395906
C   C39       1.0  0.16200  0.43088  0.97624  1.0000 0.5795395906
C   C40       1.0  0.16200  0.43088  0.43088  1.0000 0.5795395906
C   C41       1.0  0.97624  0.43088  0.43088  1.0000 0.5795395906
C   C42       1.0  0.43088  0.16200  0.43088  1.0000 0.5795395906
C   C43       1.0  0.83800  0.02376  0.56912  1.0000 0.5795395906
C   C44       1.0  0.02376  0.83800  0.56912  1.0000 0.5795395906
C   C45       1.0  0.56912  0.02376  0.56912  1.0000 0.5795395906
C   C46       1.0  0.83800  0.56912  0.02376  1.0000 0.5795395906
C   C47       1.0  0.83800  0.56912  0.56912  1.0000 0.5795395906
C   C48       1.0  0.56912  0.02376  0.83800  1.0000 0.5795395906
C   C49       1.0  0.30006  0.97050  0.30006  1.0000 -0.0825632229
C   C50       1.0  0.57062  0.69994  0.69994  1.0000 -0.0825632229
C   C51       1.0  0.97050  0.30006  0.42938  1.0000 -0.0825632229
C   C52       1.0  0.69994  0.57062  0.02950  1.0000 -0.0825632229
C   C53       1.0  0.02950  0.57062  0.69994  1.0000 -0.0825632229
C   C54       1.0  0.42938  0.30006  0.97050  1.0000 -0.0825632229
C   C55       1.0  0.69994  0.69994  0.57062  1.0000 -0.0825632229
C   C56       1.0  0.02950  0.69994  0.57062  1.0000 -0.0825632229
C   C57       1.0  0.30006  0.42938  0.30006  1.0000 -0.0825632229
C   C58       1.0  0.57062  0.69994  0.02950  1.0000 -0.0825632229
C   C59       1.0  0.30006  0.30006  0.97050  1.0000 -0.0825632229
C   C60       1.0  0.97050  0.30006  0.30006  1.0000 -0.0825632229
C   C61       1.0  0.30006  0.97050  0.42938  1.0000 -0.0825632229
C   C62       1.0  0.42938  0.97050  0.30006  1.0000 -0.0825632229
C   C63       1.0  0.30006  0.42938  0.97050  1.0000 -0.0825632229
C   C64       1.0  0.30006  0.30006  0.42938  1.0000 -0.0825632229
C   C65       1.0  0.97050  0.42938  0.30006  1.0000 -0.0825632229
C   C66       1.0  0.42938  0.30006  0.30006  1.0000 -0.0825632229
C   C67       1.0  0.69994  0.02950  0.57062  1.0000 -0.0825632229
C   C68       1.0  0.02950  0.69994  0.69994  1.0000 -0.0825632229
C   C69       1.0  0.57062  0.02950  0.69994  1.0000 -0.0825632229
C   C70       1.0  0.69994  0.69994  0.02950  1.0000 -0.0825632229
C   C71       1.0  0.69994  0.57062  0.69994  1.0000 -0.0825632229
C   C72       1.0  0.69994  0.02950  0.69994  1.0000 -0.0825632229
O   O1        1.0  0.12545  0.97927  0.50775  1.0000 -0.5129853973
O   O2        1.0  0.61247  0.49225  0.87455  1.0000 -0.5129853973
O   O3        1.0  0.97927  0.12545  0.38753  1.0000 -0.5129853973
O   O4        1.0  0.49225  0.61247  0.02073  1.0000 -0.5129853973
O   O5        1.0  0.02073  0.61247  0.87455  1.0000 -0.5129853973
O   O6        1.0  0.38753  0.50775  0.97927  1.0000 -0.5129853973
O   O7        1.0  0.49225  0.87455  0.61247  1.0000 -0.5129853973
O   O8        1.0  0.02073  0.49225  0.61247  1.0000 -0.5129853973
O   O9        1.0  0.50775  0.38753  0.12545  1.0000 -0.5129853973
O   O10       1.0  0.61247  0.87455  0.02073  1.0000 -0.5129853973
O   O11       1.0  0.50775  0.12545  0.97927  1.0000 -0.5129853973
O   O12       1.0  0.97927  0.50775  0.12545  1.0000 -0.5129853973
O   O13       1.0  0.50775  0.97927  0.38753  1.0000 -0.5129853973
O   O14       1.0  0.38753  0.97927  0.12545  1.0000 -0.5129853973
O   O15       1.0  0.12545  0.38753  0.97927  1.0000 -0.5129853973
O   O16       1.0  0.12545  0.50775  0.38753  1.0000 -0.5129853973
O   O17       1.0  0.97927  0.38753  0.50775  1.0000 -0.5129853973
O   O18       1.0  0.38753  0.12545  0.50775  1.0000 -0.5129853973
O   O19       1.0  0.87455  0.02073  0.61247  1.0000 -0.5129853973
O   O20       1.0  0.02073  0.87455  0.49225  1.0000 -0.5129853973
O   O21       1.0  0.61247  0.02073  0.49225  1.0000 -0.5129853973
O   O22       1.0  0.87455  0.49225  0.02073  1.0000 -0.5129853973
O   O23       1.0  0.87455  0.61247  0.49225  1.0000 -0.5129853973
O   O24       1.0  0.49225  0.02073  0.87455  1.0000 -0.5129853973
O   O25       1.0  0.87455  0.02073  0.49225  1.0000 -0.5129853973
O   O26       1.0  0.38753  0.50775  0.12545  1.0000 -0.5129853973
O   O27       1.0  0.02073  0.87455  0.61247  1.0000 -0.5129853973
O   O28       1.0  0.50775  0.38753  0.97927  1.0000 -0.5129853973
O   O29       1.0  0.97927  0.38753  0.12545  1.0000 -0.5129853973
O   O30       1.0  0.61247  0.49225  0.02073  1.0000 -0.5129853973
O   O31       1.0  0.50775  0.12545  0.38753  1.0000 -0.5129853973
O   O32       1.0  0.97927  0.50775  0.38753  1.0000 -0.5129853973
O   O33       1.0  0.49225  0.61247  0.87455  1.0000 -0.5129853973
O   O34       1.0  0.38753  0.12545  0.97927  1.0000 -0.5129853973
O   O35       1.0  0.49225  0.87455  0.02073  1.0000 -0.5129853973
O   O36       1.0  0.02073  0.49225  0.87455  1.0000 -0.5129853973
O   O37       1.0  0.49225  0.02073  0.61247  1.0000 -0.5129853973
O   O38       1.0  0.61247  0.02073  0.87455  1.0000 -0.5129853973
O   O39       1.0  0.87455  0.61247  0.02073  1.0000 -0.5129853973
O   O40       1.0  0.87455  0.49225  0.61247  1.0000 -0.5129853973
O   O41       1.0  0.02073  0.61247  0.49225  1.0000 -0.5129853973
O   O42       1.0  0.61247  0.87455  0.49225  1.0000 -0.5129853973
O   O43       1.0  0.12545  0.97927  0.38753  1.0000 -0.5129853973
O   O44       1.0  0.97927  0.12545  0.50775  1.0000 -0.5129853973
O   O45       1.0  0.38753  0.97927  0.50775  1.0000 -0.5129853973
O   O46       1.0  0.12545  0.50775  0.97927  1.0000 -0.5129853973
O   O47       1.0  0.12545  0.38753  0.50775  1.0000 -0.5129853973
O   O48       1.0  0.50775  0.97927  0.12545  1.0000 -0.5129853973
