# DDEC6 charges by PACMAN v1.1 (https://github.com/mtap-research/PACMAN-charge/)
data_2014[Dy][pcu]3[ASR]1
_chemical_formula_sum              "Dy4 H84 C138 O36"
_cell_length_a       17.2884
_cell_length_b       17.2884
_cell_length_c       28.51
_cell_angle_alpha    62.9928
_cell_angle_beta     117.007
_cell_angle_gamma    129.553

_symmetry_space_group_name_H-M    "P 1"
_symmetry_Int_Tables_number       1

loop_
  _symmetry_equiv_pos_as_xyz
  'x, y, z'

loop_
  _atom_site_type_symbol
  _atom_site_label
  _atom_site_symmetry_multiplicity
  _atom_site_fract_x
  _atom_site_fract_y
  _atom_site_fract_z
  _atom_site_occupancy
  _atom_site_charge
Dy  Dy1       1.0  0.88589  0.34977  0.48754  1.0000 2.0514338792
Dy  Dy2       1.0  0.34977  0.88589  0.01246  1.0000 2.0514338792
Dy  Dy3       1.0  0.11411  0.65023  0.51246  1.0000 2.0514338792
Dy  Dy4       1.0  0.65023  0.11411  0.98754  1.0000 2.0514338792
H   H1        1.0  0.88920  0.13480  0.92370  1.0000 0.1177928841
H   H2        1.0  0.13480  0.88920  0.57630  1.0000 0.1177928841
H   H3        1.0  0.11080  0.86520  0.07630  1.0000 0.1177928841
H   H4        1.0  0.86520  0.11080  0.42370  1.0000 0.1177928841
H   H5        1.0  0.86020  0.20860  0.71720  1.0000 0.1103145786
H   H6        1.0  0.20860  0.86020  0.78280  1.0000 0.1103145786
H   H7        1.0  0.13980  0.79140  0.28280  1.0000 0.1103145786
H   H8        1.0  0.79140  0.13980  0.21720  1.0000 0.1103145786
H   H9        1.0  0.98980  0.18160  0.74670  1.0000 0.1103145786
H   H10       1.0  0.18160  0.98980  0.75330  1.0000 0.1103145786
H   H11       1.0  0.01020  0.81840  0.25330  1.0000 0.1103145786
H   H12       1.0  0.81840  0.01020  0.24670  1.0000 0.1103145786
H   H13       1.0  0.05920  0.13600  0.83770  1.0000 0.1177928841
H   H14       1.0  0.13600  0.05920  0.66230  1.0000 0.1177928841
H   H15       1.0  0.94080  0.86400  0.16230  1.0000 0.1177928841
H   H16       1.0  0.86400  0.94080  0.33770  1.0000 0.1177928841
H   H17       1.0  0.62630  0.16550  0.82620  1.0000 0.3497801007
H   H18       1.0  0.16550  0.62630  0.67380  1.0000 0.3497801007
H   H19       1.0  0.37370  0.83450  0.17380  1.0000 0.3497801007
H   H20       1.0  0.83450  0.37370  0.32620  1.0000 0.3497801007
H   H21       1.0  0.13280  0.13260  0.72260  1.0000 0.1103145786
H   H22       1.0  0.13260  0.13280  0.77740  1.0000 0.1103145786
H   H23       1.0  0.86720  0.86740  0.27740  1.0000 0.1103145786
H   H24       1.0  0.86740  0.86720  0.22260  1.0000 0.1103145786
H   H25       1.0  0.20460  0.52780  0.64950  1.0000 0.1269117178
H   H26       1.0  0.52780  0.20460  0.85050  1.0000 0.1269117178
H   H27       1.0  0.79540  0.47220  0.35050  1.0000 0.1269117178
H   H28       1.0  0.47220  0.79540  0.14950  1.0000 0.1269117178
H   H29       1.0  0.27680  0.27160  0.82770  1.0000 0.1103145786
H   H30       1.0  0.27160  0.27680  0.67230  1.0000 0.1103145786
H   H31       1.0  0.72320  0.72840  0.17230  1.0000 0.1103145786
H   H32       1.0  0.72840  0.72320  0.32770  1.0000 0.1103145786
H   H33       1.0  0.37040  0.40000  0.87090  1.0000 0.1103145786
H   H34       1.0  0.40000  0.37040  0.62910  1.0000 0.1103145786
H   H35       1.0  0.62960  0.60000  0.12910  1.0000 0.1103145786
H   H36       1.0  0.60000  0.62960  0.37090  1.0000 0.1103145786
H   H37       1.0  0.39810  0.56490  0.82210  1.0000 0.1177928841
H   H38       1.0  0.56490  0.39810  0.67790  1.0000 0.1177928841
H   H39       1.0  0.60190  0.43510  0.17790  1.0000 0.1177928841
H   H40       1.0  0.43510  0.60190  0.32210  1.0000 0.1177928841
H   H41       1.0  0.01830  0.21750  0.62140  1.0000 0.3585221351
H   H42       1.0  0.21750  0.01830  0.87860  1.0000 0.3585221351
H   H43       1.0  0.98170  0.78250  0.37860  1.0000 0.3585221351
H   H44       1.0  0.78250  0.98170  0.12140  1.0000 0.3585221351
H   H45       1.0  0.75640  0.36440  0.76010  1.0000 0.1103145786
H   H46       1.0  0.36440  0.75640  0.73990  1.0000 0.1103145786
H   H47       1.0  0.24360  0.63560  0.23990  1.0000 0.1103145786
H   H48       1.0  0.63560  0.24360  0.26010  1.0000 0.1103145786
H   H49       1.0  0.92620  0.67220  0.73100  1.0000 0.1177928841
H   H50       1.0  0.67220  0.92620  0.76900  1.0000 0.1177928841
H   H51       1.0  0.07380  0.32780  0.26900  1.0000 0.1177928841
H   H52       1.0  0.32780  0.07380  0.23100  1.0000 0.1177928841
H   H53       1.0  0.96740  0.68520  0.66110  1.0000 0.1103145786
H   H54       1.0  0.68520  0.96740  0.83890  1.0000 0.1103145786
H   H55       1.0  0.03260  0.31480  0.33890  1.0000 0.1103145786
H   H56       1.0  0.31480  0.03260  0.16110  1.0000 0.1103145786
H   H57       1.0  0.81900  0.51560  0.77760  1.0000 0.1177928841
H   H58       1.0  0.51560  0.81900  0.72240  1.0000 0.1177928841
H   H59       1.0  0.18100  0.48440  0.22240  1.0000 0.1177928841
H   H60       1.0  0.48440  0.18100  0.27760  1.0000 0.1177928841
H   H61       1.0  0.95510  0.60410  0.60470  1.0000 0.1177928841
H   H62       1.0  0.60410  0.95510  0.89530  1.0000 0.1177928841
H   H63       1.0  0.04490  0.39590  0.39530  1.0000 0.1177928841
H   H64       1.0  0.39590  0.04490  0.10470  1.0000 0.1177928841
H   H65       1.0  0.80650  0.28330  0.60650  1.0000 0.3497801007
H   H66       1.0  0.28330  0.80650  0.89350  1.0000 0.3497801007
H   H67       1.0  0.19350  0.71670  0.39350  1.0000 0.3497801007
H   H68       1.0  0.71670  0.19350  0.10650  1.0000 0.3497801007
H   H69       1.0  0.70180  0.18400  0.69950  1.0000 0.1103145786
H   H70       1.0  0.18400  0.70180  0.80050  1.0000 0.1103145786
H   H71       1.0  0.29820  0.81600  0.30050  1.0000 0.1103145786
H   H72       1.0  0.81600  0.29820  0.19950  1.0000 0.1103145786
H   H73       1.0  0.66160  0.22620  0.71530  1.0000 0.1177928841
H   H74       1.0  0.22620  0.66160  0.78470  1.0000 0.1177928841
H   H75       1.0  0.33840  0.77380  0.28470  1.0000 0.1177928841
H   H76       1.0  0.77380  0.33840  0.21530  1.0000 0.1177928841
H   H77       1.0  0.00070  0.11990  0.90060  1.0000 0.1103145786
H   H78       1.0  0.11990  0.00070  0.59940  1.0000 0.1103145786
H   H79       1.0  0.99930  0.88010  0.09940  1.0000 0.1103145786
H   H80       1.0  0.88010  0.99930  0.40060  1.0000 0.1103145786
H   H81       1.0  0.31950  0.59190  0.73330  1.0000 0.1177928841
H   H82       1.0  0.59190  0.31950  0.76670  1.0000 0.1177928841
H   H83       1.0  0.68050  0.40810  0.26670  1.0000 0.1177928841
H   H84       1.0  0.40810  0.68050  0.23330  1.0000 0.1177928841
C   C1        1.0  0.78010  0.16250  0.87220  1.0000 -0.1581191638
C   C2        1.0  0.16250  0.78010  0.62780  1.0000 -0.1581191638
C   C3        1.0  0.21990  0.83750  0.12780  1.0000 -0.1581191638
C   C4        1.0  0.83750  0.21990  0.37220  1.0000 -0.1581191638
C   C5        1.0  0.73360  0.18680  0.81560  1.0000 0.2120446295
C   C6        1.0  0.18680  0.73360  0.68440  1.0000 0.2120446295
C   C7        1.0  0.26640  0.81320  0.18440  1.0000 0.2120446295
C   C8        1.0  0.81320  0.26640  0.31560  1.0000 0.2120446295
C   C9        1.0  0.85040  0.18640  0.79230  1.0000 0.0391633619
C   C10       1.0  0.18640  0.85040  0.70770  1.0000 0.0391633619
C   C11       1.0  0.14960  0.81360  0.20770  1.0000 0.0391633619
C   C12       1.0  0.81360  0.14960  0.29230  1.0000 0.0391633619
C   C13       1.0  0.85850  0.14970  0.88700  1.0000 -0.1402074113
C   C14       1.0  0.14970  0.85850  0.61300  1.0000 -0.1402074113
C   C15       1.0  0.14150  0.85030  0.11300  1.0000 -0.1402074113
C   C16       1.0  0.85030  0.14150  0.38700  1.0000 -0.1402074113
C   C17       1.0  0.77190  0.20410  0.77620  1.0000 -0.0409108887
C   C18       1.0  0.20410  0.77190  0.72380  1.0000 -0.0409108887
C   C19       1.0  0.22810  0.79590  0.22380  1.0000 -0.0409108887
C   C20       1.0  0.79590  0.22810  0.27620  1.0000 -0.0409108887
C   C21       1.0  0.89430  0.15790  0.84870  1.0000 0.0513684519
C   C22       1.0  0.15790  0.89430  0.65130  1.0000 0.0513684519
C   C23       1.0  0.10570  0.84210  0.15130  1.0000 0.0513684519
C   C24       1.0  0.84210  0.10570  0.34870  1.0000 0.0513684519
C   C25       1.0  0.88820  0.19260  0.75420  1.0000 -0.1402074113
C   C26       1.0  0.19260  0.88820  0.74580  1.0000 -0.1402074113
C   C27       1.0  0.11180  0.80740  0.24580  1.0000 -0.1402074113
C   C28       1.0  0.80740  0.11180  0.25420  1.0000 -0.1402074113
C   C29       1.0  0.96510  0.17510  0.77210  1.0000 -0.1001445323
C   C30       1.0  0.17510  0.96510  0.72790  1.0000 -0.1001445323
C   C31       1.0  0.03490  0.82490  0.22790  1.0000 -0.1001445323
C   C32       1.0  0.82490  0.03490  0.27210  1.0000 -0.1001445323
C   C33       1.0  0.00740  0.14800  0.82680  1.0000 -0.1106755749
C   C34       1.0  0.14800  0.00740  0.67320  1.0000 -0.1106755749
C   C35       1.0  0.99260  0.85200  0.17320  1.0000 -0.1106755749
C   C36       1.0  0.85200  0.99260  0.32680  1.0000 -0.1106755749
C   C37       1.0  0.12490  0.28990  0.67030  1.0000 0.2198018537
C   C38       1.0  0.28990  0.12490  0.82970  1.0000 0.2198018537
C   C39       1.0  0.87510  0.71010  0.32970  1.0000 0.2198018537
C   C40       1.0  0.71010  0.87510  0.17030  1.0000 0.2198018537
C   C41       1.0  0.17170  0.17170  0.75000  1.0000 -0.261772555
C   C42       1.0  0.82830  0.82830  0.25000  1.0000 -0.261772555
C   C43       1.0  0.07300  0.40240  0.58590  1.0000 0.6592271508
C   C44       1.0  0.40240  0.07300  0.91410  1.0000 0.6592271508
C   C45       1.0  0.92700  0.59760  0.41410  1.0000 0.6592271508
C   C46       1.0  0.59760  0.92700  0.08590  1.0000 0.6592271508
C   C47       1.0  0.23650  0.34990  0.75190  1.0000 0.0391633619
C   C48       1.0  0.34990  0.23650  0.74810  1.0000 0.0391633619
C   C49       1.0  0.76350  0.65010  0.24810  1.0000 0.0391633619
C   C50       1.0  0.65010  0.76350  0.25190  1.0000 0.0391633619
C   C51       1.0  0.17900  0.27380  0.72370  1.0000 -0.0409108887
C   C52       1.0  0.27380  0.17900  0.77630  1.0000 -0.0409108887
C   C53       1.0  0.82100  0.72620  0.27630  1.0000 -0.0409108887
C   C54       1.0  0.72620  0.82100  0.22370  1.0000 -0.0409108887
C   C55       1.0  0.13360  0.38640  0.64290  1.0000 -0.1490349946
C   C56       1.0  0.38640  0.13360  0.85710  1.0000 -0.1490349946
C   C57       1.0  0.86640  0.61360  0.35710  1.0000 -0.1490349946
C   C58       1.0  0.61360  0.86640  0.14290  1.0000 -0.1490349946
C   C59       1.0  0.19560  0.46340  0.66840  1.0000 -0.1402074113
C   C60       1.0  0.46340  0.19560  0.83160  1.0000 -0.1402074113
C   C61       1.0  0.80440  0.53660  0.33160  1.0000 -0.1402074113
C   C62       1.0  0.53660  0.80440  0.16840  1.0000 -0.1402074113
C   C63       1.0  0.24790  0.44750  0.72400  1.0000 0.059515205
C   C64       1.0  0.44750  0.24790  0.77600  1.0000 0.059515205
C   C65       1.0  0.75210  0.55250  0.27600  1.0000 0.059515205
C   C66       1.0  0.55250  0.75210  0.22400  1.0000 0.059515205
C   C67       1.0  0.28440  0.33520  0.80810  1.0000 -0.1490349946
C   C68       1.0  0.33520  0.28440  0.69190  1.0000 -0.1490349946
C   C69       1.0  0.71560  0.66480  0.19190  1.0000 -0.1490349946
C   C70       1.0  0.66480  0.71560  0.30810  1.0000 -0.1490349946
C   C71       1.0  0.34110  0.41210  0.83390  1.0000 -0.1001445323
C   C72       1.0  0.41210  0.34110  0.66610  1.0000 -0.0937812968
C   C73       1.0  0.65890  0.58790  0.16610  1.0000 -0.0937812968
C   C74       1.0  0.58790  0.65890  0.33390  1.0000 -0.0937812968
C   C75       1.0  0.35640  0.51160  0.80460  1.0000 -0.0937812968
C   C76       1.0  0.51160  0.35640  0.69540  1.0000 -0.0937812968
C   C77       1.0  0.64360  0.48840  0.19540  1.0000 -0.0937812968
C   C78       1.0  0.48840  0.64360  0.30460  1.0000 -0.0937812968
C   C79       1.0  0.82590  0.43190  0.69810  1.0000 0.0391633619
C   C80       1.0  0.43190  0.82590  0.80190  1.0000 0.0391633619
C   C81       1.0  0.17410  0.56810  0.30190  1.0000 0.0391633619
C   C82       1.0  0.56810  0.17410  0.19810  1.0000 0.0391633619
C   C83       1.0  0.79930  0.42790  0.73980  1.0000 -0.1402074113
C   C84       1.0  0.42790  0.79930  0.76020  1.0000 -0.1402074113
C   C85       1.0  0.20070  0.57210  0.26020  1.0000 -0.1402074113
C   C86       1.0  0.57210  0.20070  0.23980  1.0000 -0.1402074113
C   C87       1.0  0.90030  0.61270  0.72220  1.0000 -0.1001445323
C   C88       1.0  0.61270  0.90030  0.77780  1.0000 -0.1001445323
C   C89       1.0  0.09970  0.38730  0.27780  1.0000 -0.1001445323
C   C90       1.0  0.38730  0.09970  0.22220  1.0000 -0.1001445323
C   C91       1.0  0.88980  0.53100  0.66840  1.0000 0.059515205
C   C92       1.0  0.53100  0.88980  0.83160  1.0000 0.059515205
C   C93       1.0  0.11020  0.46900  0.33160  1.0000 0.059515205
C   C94       1.0  0.46900  0.11020  0.16840  1.0000 0.059515205
C   C95       1.0  0.92570  0.62030  0.68110  1.0000 -0.1490349946
C   C96       1.0  0.62030  0.92570  0.81890  1.0000 -0.1581191638
C   C97       1.0  0.07430  0.37970  0.31890  1.0000 -0.1581191638
C   C98       1.0  0.37970  0.07430  0.18110  1.0000 -0.1490349946
C   C99       1.0  0.83750  0.51930  0.75030  1.0000 -0.1106755749
C   C100      1.0  0.51930  0.83750  0.74970  1.0000 -0.1106755749
C   C101      1.0  0.16250  0.48070  0.24970  1.0000 -0.1106755749
C   C102      1.0  0.48070  0.16250  0.25030  1.0000 -0.1106755749
C   C103      1.0  0.87710  0.45350  0.61070  1.0000 -0.165371251
C   C104      1.0  0.45350  0.87710  0.88930  1.0000 -0.165371251
C   C105      1.0  0.12290  0.54650  0.38930  1.0000 -0.165371251
C   C106      1.0  0.54650  0.12290  0.11070  1.0000 -0.165371251
C   C107      1.0  0.81470  0.35430  0.64130  1.0000 0.2198018537
C   C108      1.0  0.35430  0.81470  0.85870  1.0000 0.2198018537
C   C109      1.0  0.18530  0.64570  0.35870  1.0000 0.2198018537
C   C110      1.0  0.64570  0.18530  0.14130  1.0000 0.2198018537
C   C111      1.0  0.79130  0.34190  0.68590  1.0000 -0.0271521241
C   C112      1.0  0.34190  0.79130  0.81410  1.0000 -0.0271521241
C   C113      1.0  0.20870  0.65810  0.31410  1.0000 -0.0271521241
C   C114      1.0  0.65810  0.20870  0.18590  1.0000 -0.0271521241
C   C115      1.0  0.91360  0.53900  0.62460  1.0000 -0.1402074113
C   C116      1.0  0.53900  0.91360  0.87540  1.0000 -0.1402074113
C   C117      1.0  0.08640  0.46100  0.37540  1.0000 -0.1402074113
C   C118      1.0  0.46100  0.08640  0.12460  1.0000 -0.1402074113
C   C119      1.0  0.72340  0.23320  0.71740  1.0000 -0.2662849246
C   C120      1.0  0.23320  0.72340  0.78260  1.0000 -0.2662849246
C   C121      1.0  0.27660  0.76680  0.28260  1.0000 -0.2662849246
C   C122      1.0  0.76680  0.27660  0.21740  1.0000 -0.2662849246
C   C123      1.0  0.90490  0.46710  0.56390  1.0000 0.6592271508
C   C124      1.0  0.46710  0.90490  0.93610  1.0000 0.6592271508
C   C125      1.0  0.09510  0.53290  0.43610  1.0000 0.6592271508
C   C126      1.0  0.53290  0.09510  0.06390  1.0000 0.6592271508
C   C127      1.0  0.74400  0.15460  0.91340  1.0000 0.6009195776
C   C128      1.0  0.15460  0.74400  0.58660  1.0000 0.6009195776
C   C129      1.0  0.25600  0.84540  0.08660  1.0000 0.6009195776
C   C130      1.0  0.84540  0.25600  0.41340  1.0000 0.6009195776
C   C131      1.0  0.97280  0.13900  0.86390  1.0000 -0.1490349946
C   C132      1.0  0.13900  0.97280  0.63610  1.0000 -0.1490349946
C   C133      1.0  0.02720  0.86100  0.13610  1.0000 -0.1490349946
C   C134      1.0  0.86100  0.02720  0.36390  1.0000 -0.1490349946
C   C135      1.0  0.31050  0.52750  0.75210  1.0000 -0.1490349946
C   C136      1.0  0.52750  0.31050  0.74790  1.0000 -0.1490349946
C   C137      1.0  0.68950  0.47250  0.24790  1.0000 -0.1490349946
C   C138      1.0  0.47250  0.68950  0.25210  1.0000 -0.1490349946
O   O1        1.0  0.65220  0.19400  0.80040  1.0000 -0.4169882542
O   O2        1.0  0.19400  0.65220  0.69960  1.0000 -0.4169882542
O   O3        1.0  0.34780  0.80600  0.19960  1.0000 -0.4169882542
O   O4        1.0  0.80600  0.34780  0.30040  1.0000 -0.4169882542
O   O5        1.0  0.06600  0.21260  0.64510  1.0000 -0.407401365
O   O6        1.0  0.21260  0.06600  0.85490  1.0000 -0.407401365
O   O7        1.0  0.93400  0.78740  0.35490  1.0000 -0.407401365
O   O8        1.0  0.78740  0.93400  0.14510  1.0000 -0.407401365
O   O9        1.0  0.00590  0.32410  0.56590  1.0000 -0.6429940282
O   O10       1.0  0.32410  0.00590  0.93410  1.0000 -0.6429940282
O   O11       1.0  0.99410  0.67590  0.43410  1.0000 -0.6429940282
O   O12       1.0  0.67590  0.99410  0.06590  1.0000 -0.6429940282
O   O13       1.0  0.77720  0.26780  0.62820  1.0000 -0.4169882542
O   O14       1.0  0.26780  0.77720  0.87180  1.0000 -0.4169882542
O   O15       1.0  0.22280  0.73220  0.37180  1.0000 -0.4169882542
O   O16       1.0  0.73220  0.22280  0.12820  1.0000 -0.4169882542
O   O17       1.0  0.67300  0.17060  0.89830  1.0000 -0.6583390056
O   O18       1.0  0.17060  0.67300  0.60170  1.0000 -0.6583390056
O   O19       1.0  0.32700  0.82940  0.10170  1.0000 -0.6583390056
O   O20       1.0  0.82940  0.32700  0.39830  1.0000 -0.6583390056
O   O21       1.0  0.77980  0.12740  0.96350  1.0000 -0.6179542958
O   O22       1.0  0.12740  0.77980  0.53650  1.0000 -0.6179542958
O   O23       1.0  0.22020  0.87260  0.03650  1.0000 -0.6179542958
O   O24       1.0  0.87260  0.22020  0.46350  1.0000 -0.6179542958
O   O25       1.0  0.86890  0.38770  0.55090  1.0000 -0.689114344
O   O26       1.0  0.38770  0.86890  0.94910  1.0000 -0.689114344
O   O27       1.0  0.13110  0.61230  0.44910  1.0000 -0.689114344
O   O28       1.0  0.61230  0.13110  0.05090  1.0000 -0.689114344
O   O29       1.0  0.96380  0.55760  0.54060  1.0000 -0.6179542958
O   O30       1.0  0.55760  0.96380  0.95940  1.0000 -0.6179542958
O   O31       1.0  0.03620  0.44240  0.45940  1.0000 -0.6179542958
O   O32       1.0  0.44240  0.03620  0.04060  1.0000 -0.6179542958
O   O33       1.0  0.08790  0.48950  0.56120  1.0000 -0.6715962856
O   O34       1.0  0.48950  0.08790  0.93880  1.0000 -0.6715962856
O   O35       1.0  0.91210  0.51050  0.43880  1.0000 -0.6715962856
O   O36       1.0  0.51050  0.91210  0.06120  1.0000 -0.6715962856
