# DDEC6 charges by PACMAN v1.1 (https://github.com/mtap-research/PACMAN-charge/)
data_2014[Cd][crb]3[ASR]1
_chemical_formula_sum              "Cd4 H40 C64 N16 O16"
_cell_length_a       10.2515
_cell_length_b       12.3845
_cell_length_c       18.7502
_cell_angle_alpha    90
_cell_angle_beta     118.084
_cell_angle_gamma    90

_symmetry_space_group_name_H-M    "P 1"
_symmetry_Int_Tables_number       1

loop_
  _symmetry_equiv_pos_as_xyz
  'x, y, z'

loop_
  _atom_site_type_symbol
  _atom_site_label
  _atom_site_symmetry_multiplicity
  _atom_site_fract_x
  _atom_site_fract_y
  _atom_site_fract_z
  _atom_site_occupancy
  _atom_site_charge
Cd  Cd1       1.0  0.54896  0.70055  0.03395  1.0000 0.8430099299
Cd  Cd2       1.0  0.45104  0.20055  0.46605  1.0000 0.8430099299
Cd  Cd3       1.0  0.45104  0.29945  0.96605  1.0000 0.8430099299
Cd  Cd4       1.0  0.54896  0.79945  0.53395  1.0000 0.8430099299
H   H1        1.0  0.95270  0.46240  0.15400  1.0000 0.1488552417
H   H2        1.0  0.04730  0.96240  0.34600  1.0000 0.1488552417
H   H3        1.0  0.04730  0.53760  0.84600  1.0000 0.1488552417
H   H4        1.0  0.95270  0.03760  0.65400  1.0000 0.1488552417
H   H5        1.0  0.35390  0.46630  0.16300  1.0000 0.1488552417
H   H6        1.0  0.64610  0.96630  0.33700  1.0000 0.1488552417
H   H7        1.0  0.64610  0.53370  0.83700  1.0000 0.1488552417
H   H8        1.0  0.35390  0.03370  0.66300  1.0000 0.1488552417
H   H9        1.0  0.05080  0.69340  0.03470  1.0000 0.1303731164
H   H10       1.0  0.94920  0.19340  0.46530  1.0000 0.1303731164
H   H11       1.0  0.94920  0.30660  0.96530  1.0000 0.1303731164
H   H12       1.0  0.05080  0.80660  0.53470  1.0000 0.1303731164
H   H13       1.0  0.07310  0.13660  0.12840  1.0000 0.1591752629
H   H14       1.0  0.92690  0.63660  0.37160  1.0000 0.1591752629
H   H15       1.0  0.92690  0.86340  0.87160  1.0000 0.1591752629
H   H16       1.0  0.07310  0.36340  0.62840  1.0000 0.1591752629
H   H17       1.0  0.99190  0.24930  0.09980  1.0000 0.1488552417
H   H18       1.0  0.00810  0.74930  0.40020  1.0000 0.1488552417
H   H19       1.0  0.00810  0.75070  0.90020  1.0000 0.1488552417
H   H20       1.0  0.99190  0.25070  0.59980  1.0000 0.1488552417
H   H21       1.0  0.13770  0.22580  0.09310  1.0000 0.1672545483
H   H22       1.0  0.86230  0.72580  0.40690  1.0000 0.1672545483
H   H23       1.0  0.86230  0.77420  0.90690  1.0000 0.1672545483
H   H24       1.0  0.13770  0.27420  0.59310  1.0000 0.1672545483
H   H25       1.0  0.57510  0.43490  0.39640  1.0000 0.1591752629
H   H26       1.0  0.42490  0.93490  0.10360  1.0000 0.1591752629
H   H27       1.0  0.42490  0.56510  0.60360  1.0000 0.1591752629
H   H28       1.0  0.57510  0.06510  0.89640  1.0000 0.1591752629
H   H29       1.0  0.66240  0.58860  0.47440  1.0000 0.1218375748
H   H30       1.0  0.33760  0.08860  0.02560  1.0000 0.1218375748
H   H31       1.0  0.33760  0.41140  0.52560  1.0000 0.1218375748
H   H32       1.0  0.66240  0.91140  0.97440  1.0000 0.1218375748
H   H33       1.0  0.26040  0.69330  0.40340  1.0000 0.1218375748
H   H34       1.0  0.73960  0.19330  0.09660  1.0000 0.1218375748
H   H35       1.0  0.73960  0.30670  0.59660  1.0000 0.1218375748
H   H36       1.0  0.26040  0.80670  0.90340  1.0000 0.1218375748
H   H37       1.0  0.16050  0.54560  0.32070  1.0000 0.1591752629
H   H38       1.0  0.83950  0.04560  0.17930  1.0000 0.1591752629
H   H39       1.0  0.83950  0.45440  0.67930  1.0000 0.1591752629
H   H40       1.0  0.16050  0.95440  0.82070  1.0000 0.1591752629
C   C1        1.0  0.82710  0.63450  0.06050  1.0000 0.5398726051
C   C2        1.0  0.17290  0.13450  0.43950  1.0000 0.5398726051
C   C3        1.0  0.17290  0.36550  0.93950  1.0000 0.5398726051
C   C4        1.0  0.82710  0.86550  0.56050  1.0000 0.5398726051
C   C5        1.0  0.97870  0.58470  0.08920  1.0000 0.0174128457
C   C6        1.0  0.02130  0.08470  0.41080  1.0000 0.0174128457
C   C7        1.0  0.02130  0.41530  0.91080  1.0000 0.0174128457
C   C8        1.0  0.97870  0.91530  0.58920  1.0000 0.0174128457
C   C9        1.0  0.01970  0.49480  0.13950  1.0000 -0.1914419124
C   C10       1.0  0.98030  0.99480  0.36050  1.0000 -0.1914419124
C   C11       1.0  0.98030  0.50520  0.86050  1.0000 -0.1914419124
C   C12       1.0  0.01970  0.00520  0.63950  1.0000 -0.1914419124
C   C13       1.0  0.16030  0.45420  0.16750  1.0000 0.1488552417
C   C14       1.0  0.83970  0.95420  0.33250  1.0000 0.1488552417
C   C15       1.0  0.83970  0.54580  0.83250  1.0000 0.1488552417
C   C16       1.0  0.16030  0.04580  0.66750  1.0000 0.1488552417
C   C17       1.0  0.25970  0.49700  0.14460  1.0000 -0.1914419124
C   C18       1.0  0.74030  0.99700  0.35540  1.0000 -0.1914419124
C   C19       1.0  0.74030  0.50300  0.85540  1.0000 -0.1914419124
C   C20       1.0  0.25970  0.00300  0.64460  1.0000 -0.1914419124
C   C21       1.0  0.21700  0.58630  0.09370  1.0000 0.0174128457
C   C22       1.0  0.78300  0.08630  0.40630  1.0000 0.0174128457
C   C23       1.0  0.78300  0.41370  0.90630  1.0000 0.0174128457
C   C24       1.0  0.21700  0.91370  0.59370  1.0000 0.0174128457
C   C25       1.0  0.07790  0.63130  0.06740  1.0000 -0.1313779021
C   C26       1.0  0.92210  0.13130  0.43260  1.0000 -0.1313779021
C   C27       1.0  0.92210  0.36870  0.93260  1.0000 -0.1313779021
C   C28       1.0  0.07790  0.86870  0.56740  1.0000 -0.1313779021
C   C29       1.0  0.32390  0.63550  0.06850  1.0000 0.5398726051
C   C30       1.0  0.67610  0.13550  0.43150  1.0000 0.5398726051
C   C31       1.0  0.67610  0.36450  0.93150  1.0000 0.5398726051
C   C32       1.0  0.32390  0.86450  0.56850  1.0000 0.5398726051
C   C33       1.0  0.08730  0.21350  0.12510  1.0000 -0.5156211743
C   C34       1.0  0.91270  0.71350  0.37490  1.0000 -0.5156211743
C   C35       1.0  0.91270  0.78650  0.87490  1.0000 -0.5156211743
C   C36       1.0  0.08730  0.28650  0.62510  1.0000 -0.5156211743
C   C37       1.0  0.17790  0.25770  0.20760  1.0000 0.3369821271
C   C38       1.0  0.82210  0.75770  0.29240  1.0000 0.3369821271
C   C39       1.0  0.82210  0.74230  0.79240  1.0000 0.3369821271
C   C40       1.0  0.17790  0.24230  0.70760  1.0000 0.3369821271
C   C41       1.0  0.29870  0.37060  0.30550  1.0000 0.2215427419
C   C42       1.0  0.70130  0.87060  0.19450  1.0000 0.2215427419
C   C43       1.0  0.70130  0.62940  0.69450  1.0000 0.2215427419
C   C44       1.0  0.29870  0.12940  0.80550  1.0000 0.2215427419
C   C45       1.0  0.35710  0.47150  0.35110  1.0000 0.0673526076
C   C46       1.0  0.64290  0.97150  0.14890  1.0000 0.0673526076
C   C47       1.0  0.64290  0.52850  0.64890  1.0000 0.0673526076
C   C48       1.0  0.35710  0.02850  0.85110  1.0000 0.0673526076
C   C49       1.0  0.50840  0.48650  0.39710  1.0000 -0.1721600706
C   C50       1.0  0.49160  0.98650  0.10290  1.0000 -0.1721600706
C   C51       1.0  0.49160  0.51350  0.60290  1.0000 -0.1721600706
C   C52       1.0  0.50840  0.01350  0.89710  1.0000 -0.1721600706
C   C53       1.0  0.55970  0.57840  0.44410  1.0000 0.0839109413
C   C54       1.0  0.44030  0.07840  0.05590  1.0000 0.0839109413
C   C55       1.0  0.44030  0.42160  0.55590  1.0000 0.0839109413
C   C56       1.0  0.55970  0.92160  0.94410  1.0000 0.0839109413
C   C57       1.0  0.32450  0.63990  0.40220  1.0000 0.0839109413
C   C58       1.0  0.67550  0.13990  0.09780  1.0000 0.0851533076
C   C59       1.0  0.67550  0.36010  0.59780  1.0000 0.0839109413
C   C60       1.0  0.32450  0.86010  0.90220  1.0000 0.0839109413
C   C61       1.0  0.26340  0.55160  0.35270  1.0000 -0.1785837004
C   C62       1.0  0.73660  0.05160  0.14730  1.0000 -0.1785837004
C   C63       1.0  0.73660  0.44840  0.64730  1.0000 -0.1785837004
C   C64       1.0  0.26340  0.94840  0.85270  1.0000 -0.1785837004
N   N1        1.0  0.20800  0.36540  0.22430  1.0000 -0.1112930479
N   N2        1.0  0.79200  0.86540  0.27570  1.0000 -0.1112930479
N   N3        1.0  0.79200  0.63460  0.77570  1.0000 -0.1112930479
N   N4        1.0  0.20800  0.13460  0.72430  1.0000 -0.1112930479
N   N5        1.0  0.24600  0.20110  0.27400  1.0000 -0.2652527282
N   N6        1.0  0.75400  0.70110  0.22600  1.0000 -0.2652527282
N   N7        1.0  0.75400  0.79890  0.72600  1.0000 -0.2652527282
N   N8        1.0  0.24600  0.29890  0.77400  1.0000 -0.264038075
N   N9        1.0  0.32310  0.27400  0.33640  1.0000 -0.244409018
N   N10       1.0  0.67690  0.77400  0.16360  1.0000 -0.244409018
N   N11       1.0  0.67690  0.72600  0.66360  1.0000 -0.244409018
N   N12       1.0  0.32310  0.22600  0.83640  1.0000 -0.244409018
N   N13       1.0  0.46960  0.65370  0.44840  1.0000 -0.2452886591
N   N14       1.0  0.53040  0.15370  0.05160  1.0000 -0.244409018
N   N15       1.0  0.53040  0.34630  0.55160  1.0000 -0.244409018
N   N16       1.0  0.46960  0.84630  0.94840  1.0000 -0.244409018
O   O1        1.0  0.73250  0.57640  0.06680  1.0000 -0.5074767659
O   O2        1.0  0.26750  0.07640  0.43320  1.0000 -0.5074767659
O   O3        1.0  0.26750  0.42360  0.93320  1.0000 -0.5074767659
O   O4        1.0  0.73250  0.92360  0.56680  1.0000 -0.5074767659
O   O5        1.0  0.80250  0.72670  0.03410  1.0000 -0.5466735253
O   O6        1.0  0.19750  0.22670  0.46590  1.0000 -0.5466735253
O   O7        1.0  0.19750  0.27330  0.96590  1.0000 -0.5466735253
O   O8        1.0  0.80250  0.77330  0.53410  1.0000 -0.5466735253
O   O9        1.0  0.29130  0.71970  0.02880  1.0000 -0.5653672109
O   O10       1.0  0.70870  0.21970  0.47120  1.0000 -0.5648040066
O   O11       1.0  0.70870  0.28030  0.97120  1.0000 -0.5648040066
O   O12       1.0  0.29130  0.78030  0.52880  1.0000 -0.5653672109
O   O13       1.0  0.44460  0.58740  0.09030  1.0000 -0.500697721
O   O14       1.0  0.55540  0.08740  0.40970  1.0000 -0.500697721
O   O15       1.0  0.55540  0.41260  0.90970  1.0000 -0.500697721
O   O16       1.0  0.44460  0.91260  0.59030  1.0000 -0.500697721
