# DDEC6 charges by PACMAN v1.1 (https://github.com/mtap-research/PACMAN-charge/)
data_2014[Cd][bbf]3[ASR]1
_chemical_formula_sum              "Cd4 H128 C192 N12 O16"
_cell_length_a       8.8305
_cell_length_b       19.9787
_cell_length_c       25.7425
_cell_angle_alpha    90
_cell_angle_beta     96.821
_cell_angle_gamma    90

_symmetry_space_group_name_H-M    "P 1"
_symmetry_Int_Tables_number       1

loop_
  _symmetry_equiv_pos_as_xyz
  'x, y, z'

loop_
  _atom_site_type_symbol
  _atom_site_label
  _atom_site_symmetry_multiplicity
  _atom_site_fract_x
  _atom_site_fract_y
  _atom_site_fract_z
  _atom_site_occupancy
  _atom_site_charge
Cd  Cd1       1.0  0.72565  0.87911  0.52075  1.0000 0.800706688
Cd  Cd2       1.0  0.27435  0.37911  0.97925  1.0000 0.800706688
Cd  Cd3       1.0  0.27435  0.12089  0.47925  1.0000 0.800706688
Cd  Cd4       1.0  0.72565  0.62089  0.02075  1.0000 0.800706688
H   H1        1.0  0.61850  0.01520  0.46140  1.0000 0.1203665839
H   H2        1.0  0.38150  0.51520  0.03860  1.0000 0.1203665839
H   H3        1.0  0.38150  0.98480  0.53860  1.0000 0.1203665839
H   H4        1.0  0.61850  0.48480  0.96140  1.0000 0.1203665839
H   H5        1.0  0.54010  0.05860  0.38070  1.0000 0.1386498135
H   H6        1.0  0.45990  0.55860  0.11930  1.0000 0.1386498135
H   H7        1.0  0.45990  0.94140  0.61930  1.0000 0.1386498135
H   H8        1.0  0.54010  0.44140  0.88070  1.0000 0.1386498135
H   H9        1.0  0.59570  0.87830  0.31960  1.0000 0.1288632443
H   H10       1.0  0.40430  0.37830  0.18040  1.0000 0.1288632443
H   H11       1.0  0.40430  0.12170  0.68040  1.0000 0.1288632443
H   H12       1.0  0.59570  0.62170  0.81960  1.0000 0.1288632443
H   H13       1.0  0.66330  0.83920  0.40140  1.0000 0.1013810296
H   H14       1.0  0.33670  0.33920  0.09860  1.0000 0.1013810296
H   H15       1.0  0.33670  0.16080  0.59860  1.0000 0.1013810296
H   H16       1.0  0.66330  0.66080  0.90140  1.0000 0.1013810296
H   H17       1.0  0.58810  0.09550  0.30140  1.0000 0.1288632443
H   H18       1.0  0.41190  0.59550  0.19860  1.0000 0.1288632443
H   H19       1.0  0.41190  0.90450  0.69860  1.0000 0.1288632443
H   H20       1.0  0.58810  0.40450  0.80140  1.0000 0.1288632443
H   H21       1.0  0.52700  0.13730  0.21860  1.0000 0.1288632443
H   H22       1.0  0.47300  0.63730  0.28140  1.0000 0.1288632443
H   H23       1.0  0.47300  0.86270  0.78140  1.0000 0.1288632443
H   H24       1.0  0.52700  0.36270  0.71860  1.0000 0.1288632443
H   H25       1.0  0.37090  0.95740  0.16990  1.0000 0.1203665839
H   H26       1.0  0.62910  0.45740  0.33010  1.0000 0.1203665839
H   H27       1.0  0.62910  0.04260  0.83010  1.0000 0.1203665839
H   H28       1.0  0.37090  0.54260  0.66990  1.0000 0.1203665839
H   H29       1.0  0.43040  0.91620  0.25320  1.0000 0.1106998151
H   H30       1.0  0.56960  0.41620  0.24680  1.0000 0.1106998151
H   H31       1.0  0.56960  0.08380  0.74680  1.0000 0.1106998151
H   H32       1.0  0.43040  0.58380  0.75320  1.0000 0.1106998151
H   H33       1.0  0.71060  0.06130  0.13900  1.0000 0.1203665839
H   H34       1.0  0.28940  0.56130  0.36100  1.0000 0.1203665839
H   H35       1.0  0.28940  0.93870  0.86100  1.0000 0.1203665839
H   H36       1.0  0.71060  0.43870  0.63900  1.0000 0.1203665839
H   H37       1.0  0.89240  0.13010  0.11040  1.0000 0.1106998151
H   H38       1.0  0.10760  0.63010  0.38960  1.0000 0.1106998151
H   H39       1.0  0.10760  0.86990  0.88960  1.0000 0.1106998151
H   H40       1.0  0.89240  0.36990  0.61040  1.0000 0.1106998151
H   H41       1.0  0.57260  0.26230  0.06040  1.0000 0.1106998151
H   H42       1.0  0.42740  0.76230  0.43960  1.0000 0.1106998151
H   H43       1.0  0.42740  0.73770  0.93960  1.0000 0.1106998151
H   H44       1.0  0.57260  0.23770  0.56040  1.0000 0.1106998151
H   H45       1.0  0.38860  0.19500  0.08990  1.0000 0.1203665839
H   H46       1.0  0.61140  0.69500  0.41010  1.0000 0.1203665839
H   H47       1.0  0.61140  0.80500  0.91010  1.0000 0.1203665839
H   H48       1.0  0.38860  0.30500  0.58990  1.0000 0.1203665839
H   H49       1.0  0.00580  0.16800  0.04200  1.0000 0.1288632443
H   H50       1.0  0.99420  0.66800  0.45800  1.0000 0.1288632443
H   H51       1.0  0.99420  0.83200  0.95800  1.0000 0.1288632443
H   H52       1.0  0.00580  0.33200  0.54200  1.0000 0.1288632443
H   H53       1.0  0.18370  0.23210  0.00800  1.0000 0.1106998151
H   H54       1.0  0.81630  0.73210  0.49200  1.0000 0.1106998151
H   H55       1.0  0.81630  0.76790  0.99200  1.0000 0.1106998151
H   H56       1.0  0.18370  0.26790  0.50800  1.0000 0.1106998151
H   H57       1.0  0.96160  0.39460  0.03270  1.0000 0.1203665839
H   H58       1.0  0.03840  0.89460  0.46730  1.0000 0.1203665839
H   H59       1.0  0.03840  0.60540  0.96730  1.0000 0.1203665839
H   H60       1.0  0.96160  0.10540  0.53270  1.0000 0.1203665839
H   H61       1.0  0.77560  0.33470  0.06690  1.0000 0.1386498135
H   H62       1.0  0.22440  0.83470  0.43310  1.0000 0.1386498135
H   H63       1.0  0.22440  0.66530  0.93310  1.0000 0.1386498135
H   H64       1.0  0.77560  0.16530  0.56690  1.0000 0.1386498135
H   H65       1.0  0.41470  0.06190  0.03420  1.0000 0.1288632443
H   H66       1.0  0.58530  0.56190  0.46580  1.0000 0.1288632443
H   H67       1.0  0.58530  0.93810  0.96580  1.0000 0.1288632443
H   H68       1.0  0.41470  0.43810  0.53420  1.0000 0.1288632443
H   H69       1.0  0.22120  0.02880  0.97230  1.0000 0.1106998151
H   H70       1.0  0.77880  0.52880  0.52770  1.0000 0.1106998151
H   H71       1.0  0.77880  0.97120  0.02770  1.0000 0.1106998151
H   H72       1.0  0.22120  0.47120  0.47230  1.0000 0.1106998151
H   H73       1.0  0.95410  0.99960  0.08390  1.0000 0.1106998151
H   H74       1.0  0.04590  0.49960  0.41610  1.0000 0.1106998151
H   H75       1.0  0.04590  0.00040  0.91610  1.0000 0.1106998151
H   H76       1.0  0.95410  0.50040  0.58390  1.0000 0.1106998151
H   H77       1.0  0.14430  0.03660  0.14500  1.0000 0.1203665839
H   H78       1.0  0.85570  0.53660  0.35500  1.0000 0.1203665839
H   H79       1.0  0.85570  0.96340  0.85500  1.0000 0.1203665839
H   H80       1.0  0.14430  0.46340  0.64500  1.0000 0.1203665839
H   H81       1.0  0.44710  0.67160  0.55700  1.0000 0.1106998151
H   H82       1.0  0.55290  0.17160  0.94300  1.0000 0.1106998151
H   H83       1.0  0.55290  0.32840  0.44300  1.0000 0.1106998151
H   H84       1.0  0.44710  0.82840  0.05700  1.0000 0.1106998151
H   H85       1.0  0.25820  0.61400  0.59140  1.0000 0.1106998151
H   H86       1.0  0.74180  0.11400  0.90860  1.0000 0.1106998151
H   H87       1.0  0.74180  0.38600  0.40860  1.0000 0.1106998151
H   H88       1.0  0.25820  0.88600  0.09140  1.0000 0.1106998151
H   H89       1.0  0.04240  0.78670  0.61310  1.0000 0.1288632443
H   H90       1.0  0.95760  0.28670  0.88690  1.0000 0.1288632443
H   H91       1.0  0.95760  0.21330  0.38690  1.0000 0.1288632443
H   H92       1.0  0.04240  0.71330  0.11310  1.0000 0.1288632443
H   H93       1.0  0.23480  0.84370  0.58010  1.0000 0.1203665839
H   H94       1.0  0.76520  0.34370  0.91990  1.0000 0.1203665839
H   H95       1.0  0.76520  0.15630  0.41990  1.0000 0.1203665839
H   H96       1.0  0.23480  0.65630  0.08010  1.0000 0.1203665839
H   H97       1.0  0.83140  0.67800  0.58040  1.0000 0.1203665839
H   H98       1.0  0.16860  0.17800  0.91960  1.0000 0.1203665839
H   H99       1.0  0.16860  0.32200  0.41960  1.0000 0.1203665839
H   H100      1.0  0.83140  0.82200  0.08040  1.0000 0.1203665839
H   H101      1.0  0.65610  0.61760  0.61980  1.0000 0.1106998151
H   H102      1.0  0.34390  0.11760  0.88020  1.0000 0.1106998151
H   H103      1.0  0.34390  0.38240  0.38020  1.0000 0.1106998151
H   H104      1.0  0.65610  0.88240  0.11980  1.0000 0.1106998151
H   H105      1.0  0.72670  0.56300  0.69780  1.0000 0.1106998151
H   H106      1.0  0.27330  0.06300  0.80220  1.0000 0.1106998151
H   H107      1.0  0.27330  0.43700  0.30220  1.0000 0.1106998151
H   H108      1.0  0.72670  0.93700  0.19780  1.0000 0.1106998151
H   H109      1.0  0.15540  0.62400  0.69430  1.0000 0.1106998151
H   H110      1.0  0.84460  0.12400  0.80570  1.0000 0.1106998151
H   H111      1.0  0.84460  0.37600  0.30570  1.0000 0.1106998151
H   H112      1.0  0.15540  0.87600  0.19430  1.0000 0.1106998151
H   H113      1.0  0.85890  0.47550  0.74440  1.0000 0.1106998151
H   H114      1.0  0.14110  0.97550  0.75560  1.0000 0.1106998151
H   H115      1.0  0.14110  0.52450  0.25560  1.0000 0.1106998151
H   H116      1.0  0.85890  0.02450  0.24440  1.0000 0.1106998151
H   H117      1.0  0.93460  0.42170  0.82200  1.0000 0.1203665839
H   H118      1.0  0.06540  0.92170  0.67800  1.0000 0.1203665839
H   H119      1.0  0.06540  0.57830  0.17800  1.0000 0.1203665839
H   H120      1.0  0.93460  0.07830  0.32200  1.0000 0.1203665839
H   H121      1.0  0.21570  0.57260  0.86540  1.0000 0.1106998151
H   H122      1.0  0.78430  0.07260  0.63460  1.0000 0.1106998151
H   H123      1.0  0.78430  0.42740  0.13460  1.0000 0.1106998151
H   H124      1.0  0.21570  0.92740  0.36540  1.0000 0.1106998151
H   H125      1.0  0.14270  0.62520  0.78640  1.0000 0.1106998151
H   H126      1.0  0.85730  0.12520  0.71360  1.0000 0.1106998151
H   H127      1.0  0.85730  0.37480  0.21360  1.0000 0.1106998151
H   H128      1.0  0.14270  0.87480  0.28640  1.0000 0.1106998151
C   C1        1.0  0.61280  0.98690  0.43256  1.0000 0.1106998151
C   C2        1.0  0.38720  0.48690  0.06744  1.0000 0.1106998151
C   C3        1.0  0.38720  0.01310  0.56744  1.0000 0.1106998151
C   C4        1.0  0.61280  0.51310  0.93256  1.0000 0.1106998151
C   C5        1.0  0.56670  0.01370  0.38382  1.0000 -0.1787468762
C   C6        1.0  0.43330  0.51370  0.11618  1.0000 -0.1787468762
C   C7        1.0  0.43330  0.98630  0.61618  1.0000 -0.1787468762
C   C8        1.0  0.56670  0.48630  0.88382  1.0000 -0.1787468762
C   C9        1.0  0.55990  0.97426  0.33996  1.0000 0.1106998151
C   C10       1.0  0.44010  0.47426  0.16004  1.0000 0.1106998151
C   C11       1.0  0.44010  0.02574  0.66004  1.0000 0.1106998151
C   C12       1.0  0.55990  0.52574  0.83996  1.0000 0.1106998151
C   C13       1.0  0.59840  0.90730  0.34797  1.0000 -0.198197786
C   C14       1.0  0.40160  0.40730  0.15203  1.0000 -0.198197786
C   C15       1.0  0.40160  0.09270  0.65203  1.0000 -0.198197786
C   C16       1.0  0.59840  0.59270  0.84797  1.0000 -0.198197786
C   C17       1.0  0.63980  0.88440  0.39721  1.0000 0.0438501497
C   C18       1.0  0.36020  0.38440  0.10279  1.0000 0.0438501497
C   C19       1.0  0.36020  0.11560  0.60279  1.0000 0.0438501497
C   C20       1.0  0.63980  0.61560  0.89721  1.0000 0.0438501497
C   C21       1.0  0.51520  0.00128  0.28642  1.0000 0.0542426032
C   C22       1.0  0.48480  0.50128  0.21358  1.0000 0.0542426032
C   C23       1.0  0.48480  0.99872  0.71358  1.0000 0.0542426032
C   C24       1.0  0.51520  0.49872  0.78642  1.0000 0.0542426032
C   C25       1.0  0.54400  0.06740  0.27500  1.0000 -0.1297275921
C   C26       1.0  0.45600  0.56740  0.22500  1.0000 -0.1297275921
C   C27       1.0  0.45600  0.93260  0.72500  1.0000 -0.1297275921
C   C28       1.0  0.54400  0.43260  0.77500  1.0000 -0.1297275921
C   C29       1.0  0.50840  0.09250  0.22531  1.0000 -0.1787468762
C   C30       1.0  0.49160  0.59250  0.27469  1.0000 -0.1787468762
C   C31       1.0  0.49160  0.90750  0.77469  1.0000 -0.1787468762
C   C32       1.0  0.50840  0.40750  0.72531  1.0000 -0.1787468762
C   C33       1.0  0.44490  0.05130  0.18523  1.0000 0.1671775316
C   C34       1.0  0.55510  0.55130  0.31477  1.0000 0.1671775316
C   C35       1.0  0.55510  0.94870  0.81477  1.0000 0.1671775316
C   C36       1.0  0.44490  0.44870  0.68523  1.0000 0.1671775316
C   C37       1.0  0.41510  0.98540  0.19628  1.0000 -0.1787468762
C   C38       1.0  0.58490  0.48540  0.30372  1.0000 -0.1787468762
C   C39       1.0  0.58490  0.01460  0.80372  1.0000 -0.1787468762
C   C40       1.0  0.41510  0.51460  0.69628  1.0000 -0.1787468762
C   C41       1.0  0.45050  0.96080  0.24632  1.0000 -0.1411438562
C   C42       1.0  0.54950  0.46080  0.25368  1.0000 -0.1411438562
C   C43       1.0  0.54950  0.03920  0.75368  1.0000 -0.1411438562
C   C44       1.0  0.45050  0.53920  0.74632  1.0000 -0.1411438562
C   C45       1.0  0.53140  0.12090  0.11698  1.0000 0.1597105448
C   C46       1.0  0.46860  0.62090  0.38302  1.0000 0.1597105448
C   C47       1.0  0.46860  0.87910  0.88302  1.0000 0.1597105448
C   C48       1.0  0.53140  0.37910  0.61698  1.0000 0.1597105448
C   C49       1.0  0.68190  0.10190  0.12301  1.0000 -0.1787468762
C   C50       1.0  0.31810  0.60190  0.37699  1.0000 -0.1787468762
C   C51       1.0  0.31810  0.89810  0.87699  1.0000 -0.1787468762
C   C52       1.0  0.68190  0.39810  0.62301  1.0000 -0.1787468762
C   C53       1.0  0.79050  0.14290  0.10539  1.0000 -0.1297275921
C   C54       1.0  0.20950  0.64290  0.39461  1.0000 -0.1297275921
C   C55       1.0  0.20950  0.85710  0.89461  1.0000 -0.1297275921
C   C56       1.0  0.79050  0.35710  0.60539  1.0000 -0.1297275921
C   C57       1.0  0.75100  0.20297  0.08037  1.0000 0.0542426032
C   C58       1.0  0.24900  0.70297  0.41963  1.0000 0.0542426032
C   C59       1.0  0.24900  0.79703  0.91963  1.0000 0.0542426032
C   C60       1.0  0.75100  0.29703  0.58037  1.0000 0.0542426032
C   C61       1.0  0.60110  0.22150  0.07586  1.0000 -0.1184687042
C   C62       1.0  0.39890  0.72150  0.42414  1.0000 -0.1184687042
C   C63       1.0  0.39890  0.77850  0.92414  1.0000 -0.1184687042
C   C64       1.0  0.60110  0.27850  0.57586  1.0000 -0.1184687042
C   C65       1.0  0.49000  0.18130  0.09364  1.0000 -0.1787468762
C   C66       1.0  0.51000  0.68130  0.40636  1.0000 -0.1787468762
C   C67       1.0  0.51000  0.81870  0.90636  1.0000 -0.1787468762
C   C68       1.0  0.49000  0.31870  0.59364  1.0000 -0.1787468762
C   C69       1.0  0.86860  0.24400  0.05871  1.0000 0.1203665839
C   C70       1.0  0.13140  0.74400  0.44129  1.0000 0.1203665839
C   C71       1.0  0.13140  0.75600  0.94129  1.0000 0.1203665839
C   C72       1.0  0.86860  0.25600  0.55871  1.0000 0.1203665839
C   C73       1.0  0.99400  0.21430  0.04046  1.0000 -0.198197786
C   C74       1.0  0.00600  0.71430  0.45954  1.0000 -0.198197786
C   C75       1.0  0.00600  0.78570  0.95954  1.0000 -0.198197786
C   C76       1.0  0.99400  0.28570  0.54046  1.0000 -0.198197786
C   C77       1.0  0.10080  0.25320  0.02010  1.0000 0.0696524578
C   C78       1.0  0.89920  0.75320  0.47990  1.0000 0.0696524578
C   C79       1.0  0.89920  0.74680  0.97990  1.0000 0.0696524578
C   C80       1.0  0.10080  0.24680  0.52010  1.0000 0.0696524578
C   C81       1.0  0.97030  0.34830  0.03453  1.0000 0.0781092206
C   C82       1.0  0.02970  0.84830  0.46547  1.0000 0.0781092206
C   C83       1.0  0.02970  0.65170  0.96547  1.0000 0.0781092206
C   C84       1.0  0.97030  0.15170  0.53453  1.0000 0.0781092206
C   C85       1.0  0.85790  0.31250  0.05531  1.0000 -0.1787468762
C   C86       1.0  0.14210  0.81250  0.44469  1.0000 -0.1787468762
C   C87       1.0  0.14210  0.68750  0.94469  1.0000 -0.1787468762
C   C88       1.0  0.85790  0.18750  0.55531  1.0000 -0.1787468762
C   C89       1.0  0.29980  0.05420  0.09652  1.0000 0.1671775316
C   C90       1.0  0.70020  0.55420  0.40348  1.0000 0.1671775316
C   C91       1.0  0.70020  0.94580  0.90348  1.0000 0.1671775316
C   C92       1.0  0.29980  0.44580  0.59652  1.0000 0.1671775316
C   C93       1.0  0.32070  0.05050  0.04447  1.0000 -0.1927567481
C   C94       1.0  0.67930  0.55050  0.45553  1.0000 -0.1927567481
C   C95       1.0  0.67930  0.94950  0.95553  1.0000 -0.1927567481
C   C96       1.0  0.32070  0.44950  0.54447  1.0000 -0.1927567481
C   C97       1.0  0.20390  0.02990  0.00719  1.0000 -0.1411438562
C   C98       1.0  0.79610  0.52990  0.49281  1.0000 -0.1411438562
C   C99       1.0  0.79610  0.97010  0.99281  1.0000 -0.1411438562
C   C100      1.0  0.20390  0.47010  0.50719  1.0000 -0.1411438562
C   C101      1.0  0.06260  0.01091  0.02005  1.0000 0.0609959175
C   C102      1.0  0.93740  0.51091  0.47995  1.0000 0.0609959175
C   C103      1.0  0.93740  0.98909  0.97995  1.0000 0.0609959175
C   C104      1.0  0.06260  0.48909  0.52005  1.0000 0.0609959175
C   C105      1.0  0.04600  0.01321  0.07302  1.0000 -0.1508065437
C   C106      1.0  0.95400  0.51321  0.42698  1.0000 -0.1508065437
C   C107      1.0  0.95400  0.98679  0.92698  1.0000 -0.1508065437
C   C108      1.0  0.04600  0.48679  0.57302  1.0000 -0.1508065437
C   C109      1.0  0.16130  0.03496  0.11003  1.0000 -0.1787468762
C   C110      1.0  0.83870  0.53496  0.38997  1.0000 -0.1787468762
C   C111      1.0  0.83870  0.96504  0.88997  1.0000 -0.1787468762
C   C112      1.0  0.16130  0.46504  0.61003  1.0000 -0.1787468762
C   C113      1.0  0.49450  0.80210  0.54766  1.0000 0.5306116019
C   C114      1.0  0.50550  0.30210  0.95234  1.0000 0.5249256526
C   C115      1.0  0.50550  0.19790  0.45234  1.0000 0.5249256526
C   C116      1.0  0.49450  0.69790  0.04766  1.0000 0.5249256526
C   C117      1.0  0.36690  0.76428  0.56652  1.0000 -0.0353489093
C   C118      1.0  0.63310  0.26428  0.93348  1.0000 -0.0353489093
C   C119      1.0  0.63310  0.23572  0.43348  1.0000 -0.0353489093
C   C120      1.0  0.36690  0.73572  0.06652  1.0000 -0.0353489093
C   C121      1.0  0.36770  0.69520  0.56923  1.0000 -0.1147663782
C   C122      1.0  0.63230  0.19520  0.93077  1.0000 -0.1184687042
C   C123      1.0  0.63230  0.30480  0.43077  1.0000 -0.1147663782
C   C124      1.0  0.36770  0.80480  0.06923  1.0000 -0.1147663782
C   C125      1.0  0.25340  0.66050  0.58968  1.0000 -0.1583715643
C   C126      1.0  0.74660  0.16050  0.91032  1.0000 -0.1583715643
C   C127      1.0  0.74660  0.33950  0.41032  1.0000 -0.1583715643
C   C128      1.0  0.25340  0.83950  0.08968  1.0000 -0.1583715643
C   C129      1.0  0.13150  0.69343  0.60776  1.0000 0.0696524578
C   C130      1.0  0.86850  0.19343  0.89224  1.0000 0.0696524578
C   C131      1.0  0.86850  0.30657  0.39224  1.0000 0.0696524578
C   C132      1.0  0.13150  0.80657  0.10776  1.0000 0.0696524578
C   C133      1.0  0.12490  0.76330  0.60286  1.0000 -0.1411438562
C   C134      1.0  0.87510  0.26330  0.89714  1.0000 -0.1411438562
C   C135      1.0  0.87510  0.23670  0.39714  1.0000 -0.1411438562
C   C136      1.0  0.12490  0.73670  0.10286  1.0000 -0.1411438562
C   C137      1.0  0.24060  0.79730  0.58286  1.0000 -0.1027621117
C   C138      1.0  0.75940  0.29730  0.91714  1.0000 -0.1027621117
C   C139      1.0  0.75940  0.20270  0.41714  1.0000 -0.1027621117
C   C140      1.0  0.24060  0.70270  0.08286  1.0000 -0.1027621117
C   C141      1.0  0.01360  0.65701  0.63254  1.0000 0.0781092206
C   C142      1.0  0.98640  0.15701  0.86746  1.0000 0.0781092206
C   C143      1.0  0.98640  0.34299  0.36746  1.0000 0.0781092206
C   C144      1.0  0.01360  0.84299  0.13254  1.0000 0.0781092206
C   C145      1.0  0.86210  0.65500  0.61126  1.0000 -0.1508065437
C   C146      1.0  0.13790  0.15500  0.88874  1.0000 -0.1508065437
C   C147      1.0  0.13790  0.34500  0.38874  1.0000 -0.1508065437
C   C148      1.0  0.86210  0.84500  0.11126  1.0000 -0.1508065437
C   C149      1.0  0.75680  0.61960  0.63514  1.0000 -0.0893317389
C   C150      1.0  0.24320  0.11960  0.86486  1.0000 -0.0893317389
C   C151      1.0  0.24320  0.38040  0.36486  1.0000 -0.0893317389
C   C152      1.0  0.75680  0.88040  0.13514  1.0000 -0.0893317389
C   C153      1.0  0.79940  0.58660  0.68192  1.0000 -0.1689805541
C   C154      1.0  0.20060  0.08660  0.81808  1.0000 -0.1689805541
C   C155      1.0  0.20060  0.41340  0.31808  1.0000 -0.1689805541
C   C156      1.0  0.79940  0.91340  0.18192  1.0000 -0.1689805541
C   C157      1.0  0.94840  0.58830  0.70521  1.0000 0.0781092206
C   C158      1.0  0.05160  0.08830  0.79479  1.0000 0.0781092206
C   C159      1.0  0.05160  0.41170  0.29479  1.0000 0.0781092206
C   C160      1.0  0.94840  0.91170  0.20521  1.0000 0.0781092206
C   C161      1.0  0.05400  0.62318  0.67956  1.0000 -0.1927567481
C   C162      1.0  0.94600  0.12318  0.82044  1.0000 -0.1927567481
C   C163      1.0  0.94600  0.37682  0.32044  1.0000 -0.1927567481
C   C164      1.0  0.05400  0.87682  0.17956  1.0000 -0.1927567481
C   C165      1.0  0.99400  0.55500  0.75623  1.0000 0.0696524578
C   C166      1.0  0.00600  0.05500  0.74377  1.0000 0.0696524578
C   C167      1.0  0.00600  0.44500  0.24377  1.0000 0.0696524578
C   C168      1.0  0.99400  0.94500  0.25623  1.0000 0.0696524578
C   C169      1.0  0.93290  0.49510  0.76830  1.0000 -0.1508065437
C   C170      1.0  0.06710  0.99510  0.73170  1.0000 -0.1508065437
C   C171      1.0  0.06710  0.50490  0.23170  1.0000 -0.1508065437
C   C172      1.0  0.93290  0.00490  0.26830  1.0000 -0.1508065437
C   C173      1.0  0.97770  0.46280  0.81518  1.0000 -0.1027621117
C   C174      1.0  0.02230  0.96280  0.68482  1.0000 -0.1027621117
C   C175      1.0  0.02230  0.53720  0.18482  1.0000 -0.1027621117
C   C176      1.0  0.97770  0.03720  0.31518  1.0000 -0.1027621117
C   C177      1.0  0.08570  0.49090  0.85186  1.0000 -0.0141804025
C   C178      1.0  0.91430  0.99090  0.64814  1.0000 -0.0141804025
C   C179      1.0  0.91430  0.50910  0.14814  1.0000 -0.0141804025
C   C180      1.0  0.08570  0.00910  0.35186  1.0000 -0.0141804025
C   C181      1.0  0.14490  0.55210  0.84080  1.0000 -0.1184687042
C   C182      1.0  0.85510  0.05210  0.65920  1.0000 -0.1184687042
C   C183      1.0  0.85510  0.44790  0.15920  1.0000 -0.1184687042
C   C184      1.0  0.14490  0.94790  0.34080  1.0000 -0.1184687042
C   C185      1.0  0.10040  0.58400  0.79331  1.0000 -0.1508065437
C   C186      1.0  0.89960  0.08400  0.70669  1.0000 -0.1508065437
C   C187      1.0  0.89960  0.41600  0.20669  1.0000 -0.1508065437
C   C188      1.0  0.10040  0.91600  0.29331  1.0000 -0.1508065437
C   C189      1.0  0.14280  0.45360  0.90099  1.0000 0.5306116019
C   C190      1.0  0.85720  0.95360  0.59901  1.0000 0.5306116019
C   C191      1.0  0.85720  0.54640  0.09901  1.0000 0.5306116019
C   C192      1.0  0.14280  0.04640  0.40099  1.0000 0.5306116019
N   N1        1.0  0.41750  0.07782  0.13369  1.0000 -0.1689805541
N   N2        1.0  0.58250  0.57782  0.36631  1.0000 -0.1689805541
N   N3        1.0  0.58250  0.92218  0.86631  1.0000 -0.1689805541
N   N4        1.0  0.41750  0.42218  0.63369  1.0000 -0.1689805541
N   N5        1.0  0.64920  0.92321  0.44050  1.0000 -0.2475373711
N   N6        1.0  0.35080  0.42321  0.05950  1.0000 -0.2475373711
N   N7        1.0  0.35080  0.07679  0.55950  1.0000 -0.2475373711
N   N8        1.0  0.64920  0.57679  0.94050  1.0000 -0.2475373711
N   N9        1.0  0.09130  0.31943  0.01683  1.0000 -0.2475373711
N   N10       1.0  0.90870  0.81943  0.48317  1.0000 -0.2475373711
N   N11       1.0  0.90870  0.68057  0.98317  1.0000 -0.2475373711
N   N12       1.0  0.09130  0.18057  0.51683  1.0000 -0.2475373711
O   O1        1.0  0.60870  0.77202  0.53641  1.0000 -0.5405704642
O   O2        1.0  0.39130  0.27202  0.96359  1.0000 -0.5405704642
O   O3        1.0  0.39130  0.22798  0.46359  1.0000 -0.5405704642
O   O4        1.0  0.60870  0.72798  0.03641  1.0000 -0.5405704642
O   O5        1.0  0.48270  0.86366  0.54319  1.0000 -0.5309904928
O   O6        1.0  0.51730  0.36366  0.95681  1.0000 -0.5309904928
O   O7        1.0  0.51730  0.13634  0.45681  1.0000 -0.5309904928
O   O8        1.0  0.48270  0.63634  0.04319  1.0000 -0.5309904928
O   O9        1.0  0.21450  0.48387  0.93806  1.0000 -0.5405704642
O   O10       1.0  0.78550  0.98387  0.56194  1.0000 -0.5405704642
O   O11       1.0  0.78550  0.51613  0.06194  1.0000 -0.5405704642
O   O12       1.0  0.21450  0.01613  0.43806  1.0000 -0.5405704642
O   O13       1.0  0.12110  0.39251  0.90180  1.0000 -0.5152667428
O   O14       1.0  0.87890  0.89251  0.59820  1.0000 -0.5152667428
O   O15       1.0  0.87890  0.60749  0.09820  1.0000 -0.5152667428
O   O16       1.0  0.12110  0.10749  0.40180  1.0000 -0.5152667428
