# DDEC6 charges by PACMAN v1.1 (https://github.com/mtap-research/PACMAN-charge/)
data_2014[Co][nan]3[ASR]8
_chemical_formula_sum              "Co6 H6 C24 O18"
_cell_length_a       15.1785
_cell_length_b       15.1785
_cell_length_c       15.1785
_cell_angle_alpha    117.802
_cell_angle_beta     117.802
_cell_angle_gamma    117.802

_symmetry_space_group_name_H-M    "P 1"
_symmetry_Int_Tables_number       1

loop_
  _symmetry_equiv_pos_as_xyz
  'x, y, z'

loop_
  _atom_site_type_symbol
  _atom_site_label
  _atom_site_symmetry_multiplicity
  _atom_site_fract_x
  _atom_site_fract_y
  _atom_site_fract_z
  _atom_site_occupancy
  _atom_site_charge
Co  Co1       1.0  0.70386  0.96813  0.38399  1.0000 1.0128022529
Co  Co2       1.0  0.96813  0.38399  0.70386  1.0000 1.0128022529
Co  Co3       1.0  0.38399  0.70386  0.96813  1.0000 1.0128022529
Co  Co4       1.0  0.29614  0.03187  0.61601  1.0000 1.0128022529
Co  Co5       1.0  0.03187  0.61601  0.29614  1.0000 1.0128022529
Co  Co6       1.0  0.61601  0.29614  0.03187  1.0000 1.0128022529
H   H1        1.0  0.84890  0.29700  0.82910  1.0000 0.1471940922
H   H2        1.0  0.29700  0.82910  0.84890  1.0000 0.1471940922
H   H3        1.0  0.82910  0.84890  0.29700  1.0000 0.1471940922
H   H4        1.0  0.15110  0.70300  0.17090  1.0000 0.1471940922
H   H5        1.0  0.70300  0.17090  0.15110  1.0000 0.1471940922
H   H6        1.0  0.17090  0.15110  0.70300  1.0000 0.1471940922
C   C1        1.0  0.63150  0.06500  0.53150  1.0000 0.2865303256
C   C2        1.0  0.06500  0.53150  0.63150  1.0000 0.2865303256
C   C3        1.0  0.53150  0.63150  0.06500  1.0000 0.2865303256
C   C4        1.0  0.36850  0.93500  0.46850  1.0000 0.2865303256
C   C5        1.0  0.93500  0.46850  0.36850  1.0000 0.2865303256
C   C6        1.0  0.46850  0.36850  0.93500  1.0000 0.2865303256
C   C7        1.0  0.32090  0.75690  0.14580  1.0000 0.6485437649
C   C8        1.0  0.75690  0.14580  0.32090  1.0000 0.6485437649
C   C9        1.0  0.14580  0.32090  0.75690  1.0000 0.6485437649
C   C10       1.0  0.67910  0.24310  0.85420  1.0000 0.6485437649
C   C11       1.0  0.24310  0.85420  0.67910  1.0000 0.6485437649
C   C12       1.0  0.85420  0.67910  0.24310  1.0000 0.6485437649
C   C13       1.0  0.70590  0.17510  0.69380  1.0000 -0.1975114224
C   C14       1.0  0.17510  0.69380  0.70590  1.0000 -0.1975114224
C   C15       1.0  0.69380  0.70590  0.17510  1.0000 -0.1975114224
C   C16       1.0  0.29410  0.82490  0.30620  1.0000 -0.1975114224
C   C17       1.0  0.82490  0.30620  0.29410  1.0000 -0.1975114224
C   C18       1.0  0.30620  0.29410  0.82490  1.0000 -0.1975114224
C   C19       1.0  0.42140  0.88630  0.33410  1.0000 -0.1365358485
C   C20       1.0  0.88630  0.33410  0.42140  1.0000 -0.1365358485
C   C21       1.0  0.33410  0.42140  0.88630  1.0000 -0.1365358485
C   C22       1.0  0.57860  0.11370  0.66590  1.0000 -0.1365358485
C   C23       1.0  0.11370  0.66590  0.57860  1.0000 -0.1365358485
C   C24       1.0  0.66590  0.57860  0.11370  1.0000 -0.1365358485
O   O1        1.0  0.97320  0.13030  0.60150  1.0000 -0.5325144036
O   O2        1.0  0.13030  0.60150  0.97320  1.0000 -0.5325144036
O   O3        1.0  0.60150  0.97320  0.13030  1.0000 -0.5325144036
O   O4        1.0  0.02680  0.86970  0.39850  1.0000 -0.5325144036
O   O5        1.0  0.86970  0.39850  0.02680  1.0000 -0.5325144036
O   O6        1.0  0.39850  0.02680  0.86970  1.0000 -0.5325144036
O   O7        1.0  0.58040  0.77160  0.14070  1.0000 -0.6306705279
O   O8        1.0  0.77160  0.14070  0.58040  1.0000 -0.6306705279
O   O9        1.0  0.14070  0.58040  0.77160  1.0000 -0.6306705279
O   O10       1.0  0.41960  0.22840  0.85930  1.0000 -0.6306705279
O   O11       1.0  0.22840  0.85930  0.41960  1.0000 -0.6306705279
O   O12       1.0  0.85930  0.41960  0.22840  1.0000 -0.6306705279
O   O13       1.0  0.43240  0.81030  0.16630  1.0000 -0.5978382332
O   O14       1.0  0.81030  0.16630  0.43240  1.0000 -0.5978382332
O   O15       1.0  0.16630  0.43240  0.81030  1.0000 -0.5978382332
O   O16       1.0  0.56760  0.18970  0.83370  1.0000 -0.5978382332
O   O17       1.0  0.18970  0.83370  0.56760  1.0000 -0.5978382332
O   O18       1.0  0.83370  0.56760  0.18970  1.0000 -0.5978382332
