# DDEC6 charges by PACMAN v1.1 (https://github.com/mtap-research/PACMAN-charge/)
data_2014[Fe][nan]3[ASR]10
_chemical_formula_sum              "Fe6 H6 C24 O18"
_cell_length_a       14.9641
_cell_length_b       14.9641
_cell_length_c       14.9641
_cell_angle_alpha    117.745
_cell_angle_beta     117.745
_cell_angle_gamma    117.745

_symmetry_space_group_name_H-M    "P 1"
_symmetry_Int_Tables_number       1

loop_
  _symmetry_equiv_pos_as_xyz
  'x, y, z'

loop_
  _atom_site_type_symbol
  _atom_site_label
  _atom_site_symmetry_multiplicity
  _atom_site_fract_x
  _atom_site_fract_y
  _atom_site_fract_z
  _atom_site_occupancy
  _atom_site_charge
Fe  Fe1       1.0  0.11548  0.54368  0.80284  1.0000 1.0291969547
Fe  Fe2       1.0  0.54368  0.80284  0.11548  1.0000 1.0291969547
Fe  Fe3       1.0  0.80284  0.11548  0.54368  1.0000 1.0291969547
Fe  Fe4       1.0  0.88452  0.45632  0.19716  1.0000 1.0291969547
Fe  Fe5       1.0  0.45632  0.19716  0.88452  1.0000 1.0291969547
Fe  Fe6       1.0  0.19716  0.88452  0.45632  1.0000 1.0291969547
H   H1        1.0  0.66300  0.19570  0.64330  1.0000 0.155673173
H   H2        1.0  0.19570  0.64330  0.66300  1.0000 0.155673173
H   H3        1.0  0.64330  0.66300  0.19570  1.0000 0.155673173
H   H4        1.0  0.33700  0.80430  0.35670  1.0000 0.155673173
H   H5        1.0  0.80430  0.35670  0.33700  1.0000 0.155673173
H   H6        1.0  0.35670  0.33700  0.80430  1.0000 0.155673173
C   C1        1.0  0.34620  0.73230  0.16830  1.0000 0.6231496105
C   C2        1.0  0.73230  0.16830  0.34620  1.0000 0.6231496105
C   C3        1.0  0.16830  0.34620  0.73230  1.0000 0.6231496105
C   C4        1.0  0.65380  0.26770  0.83170  1.0000 0.6231496105
C   C5        1.0  0.26770  0.83170  0.65380  1.0000 0.6231496105
C   C6        1.0  0.83170  0.65380  0.26770  1.0000 0.6231496105
C   C7        1.0  0.17210  0.62000  0.08840  1.0000 -0.1390337577
C   C8        1.0  0.62000  0.08840  0.17210  1.0000 -0.1390337577
C   C9        1.0  0.08840  0.17210  0.62000  1.0000 -0.1390337577
C   C10       1.0  0.82790  0.38000  0.91160  1.0000 -0.1390337577
C   C11       1.0  0.38000  0.91160  0.82790  1.0000 -0.1390337577
C   C12       1.0  0.91160  0.82790  0.38000  1.0000 -0.1390337577
C   C13       1.0  0.97990  0.44420  0.87920  1.0000 0.2536062568
C   C14       1.0  0.44420  0.87920  0.97990  1.0000 0.2560195595
C   C15       1.0  0.87920  0.97990  0.44420  1.0000 0.2536062568
C   C16       1.0  0.02010  0.55580  0.12080  1.0000 0.2560195595
C   C17       1.0  0.55580  0.12080  0.02010  1.0000 0.2536062568
C   C18       1.0  0.12080  0.02010  0.55580  1.0000 0.2560195595
C   C19       1.0  0.79420  0.31030  0.78000  1.0000 -0.1756914363
C   C20       1.0  0.31030  0.78000  0.79420  1.0000 -0.1756914363
C   C21       1.0  0.78000  0.79420  0.31030  1.0000 -0.1756914363
C   C22       1.0  0.20580  0.68970  0.22000  1.0000 -0.1756914363
C   C23       1.0  0.68970  0.22000  0.20580  1.0000 -0.1756914363
C   C24       1.0  0.22000  0.20580  0.68970  1.0000 -0.1756914363
O   O1        1.0  0.33218  0.67992  0.06100  1.0000 -0.5641707808
O   O2        1.0  0.67992  0.06100  0.33218  1.0000 -0.5641707808
O   O3        1.0  0.06100  0.33218  0.67992  1.0000 -0.5641707808
O   O4        1.0  0.66782  0.32008  0.93900  1.0000 -0.5641707808
O   O5        1.0  0.32008  0.93900  0.66782  1.0000 -0.5641707808
O   O6        1.0  0.93900  0.66782  0.32008  1.0000 -0.5641707808
O   O7        1.0  0.52480  0.89630  0.36630  1.0000 -0.5426798891
O   O8        1.0  0.89630  0.36630  0.52480  1.0000 -0.5426798891
O   O9        1.0  0.36630  0.52480  0.89630  1.0000 -0.5426798891
O   O10       1.0  0.47520  0.10370  0.63370  1.0000 -0.5426798891
O   O11       1.0  0.10370  0.63370  0.47520  1.0000 -0.5426798891
O   O12       1.0  0.63370  0.47520  0.10370  1.0000 -0.5426798891
O   O13       1.0  0.91446  0.35154  0.72260  1.0000 -0.6412567825
O   O14       1.0  0.35154  0.72260  0.91446  1.0000 -0.6412567825
O   O15       1.0  0.72260  0.91446  0.35154  1.0000 -0.6412567825
O   O16       1.0  0.08554  0.64846  0.27740  1.0000 -0.6412567825
O   O17       1.0  0.64846  0.27740  0.08554  1.0000 -0.6412567825
O   O18       1.0  0.27740  0.08554  0.64846  1.0000 -0.6412567825
