# DDEC6 charges by PACMAN v1.1 (https://github.com/mtap-research/PACMAN-charge/)
data_2014[Ni][nan]2[ASR]1
_chemical_formula_sum              "Ni6 H48 C88 O20"
_cell_length_a       21.5381
_cell_length_b       21.5381
_cell_length_c       25.202
_cell_angle_alpha    54.224
_cell_angle_beta     125.776
_cell_angle_gamma    163.127

_symmetry_space_group_name_H-M    "P 1"
_symmetry_Int_Tables_number       1

loop_
  _symmetry_equiv_pos_as_xyz
  'x, y, z'

loop_
  _atom_site_type_symbol
  _atom_site_label
  _atom_site_symmetry_multiplicity
  _atom_site_fract_x
  _atom_site_fract_y
  _atom_site_fract_z
  _atom_site_occupancy
  _atom_site_charge
Ni  Ni1       1.0  0.50000  0.00000  0.50000  1.0000 1.0652673045
Ni  Ni2       1.0  0.00000  0.50000  0.00000  1.0000 1.0652673045
Ni  Ni3       1.0  0.00725  0.49263  0.44806  1.0000 0.9787124941
Ni  Ni4       1.0  0.49263  0.00725  0.05194  1.0000 0.9787124941
Ni  Ni5       1.0  0.99275  0.50737  0.55194  1.0000 0.9787124941
Ni  Ni6       1.0  0.50737  0.99275  0.94806  1.0000 0.9787124941
H   H1        1.0  0.40180  0.58920  0.26860  1.0000 0.1180368067
H   H2        1.0  0.58920  0.40180  0.23140  1.0000 0.1180368067
H   H3        1.0  0.59820  0.41080  0.73140  1.0000 0.1180368067
H   H4        1.0  0.41080  0.59820  0.76860  1.0000 0.1180368067
H   H5        1.0  0.66720  0.94900  0.23390  1.0000 0.1180368067
H   H6        1.0  0.94900  0.66720  0.26610  1.0000 0.1180368067
H   H7        1.0  0.33280  0.05100  0.76610  1.0000 0.1180368067
H   H8        1.0  0.05100  0.33280  0.73390  1.0000 0.1180368067
H   H9        1.0  0.80890  0.96610  0.32760  1.0000 0.1180368067
H   H10       1.0  0.96610  0.80890  0.17240  1.0000 0.1180368067
H   H11       1.0  0.19110  0.03390  0.67240  1.0000 0.1180368067
H   H12       1.0  0.03390  0.19110  0.82760  1.0000 0.1180368067
H   H13       1.0  0.25910  0.56850  0.17390  1.0000 0.1262274384
H   H14       1.0  0.56850  0.25910  0.32610  1.0000 0.1262274384
H   H15       1.0  0.74090  0.43150  0.82610  1.0000 0.1262274384
H   H16       1.0  0.43150  0.74090  0.67390  1.0000 0.1262274384
H   H17       1.0  0.50700  0.69320  0.45450  1.0000 0.1122754743
H   H18       1.0  0.69320  0.50700  0.04550  1.0000 0.1122754743
H   H19       1.0  0.49300  0.30680  0.54550  1.0000 0.1122754743
H   H20       1.0  0.30680  0.49300  0.95450  1.0000 0.1122754743
H   H21       1.0  0.55220  0.27660  0.44360  1.0000 0.1262274384
H   H22       1.0  0.27660  0.55220  0.05640  1.0000 0.1262274384
H   H23       1.0  0.44780  0.72340  0.55640  1.0000 0.1262274384
H   H24       1.0  0.72340  0.44780  0.94360  1.0000 0.1262274384
H   H25       1.0  0.31340  0.50860  0.37440  1.0000 0.1122754743
H   H26       1.0  0.50860  0.31340  0.12560  1.0000 0.1122754743
H   H27       1.0  0.68660  0.49140  0.62560  1.0000 0.1122754743
H   H28       1.0  0.49140  0.68660  0.87440  1.0000 0.1122754743
H   H29       1.0  0.57040  0.41440  0.42290  1.0000 0.1122754743
H   H30       1.0  0.41440  0.57040  0.07710  1.0000 0.1122754743
H   H31       1.0  0.42960  0.58560  0.57710  1.0000 0.1122754743
H   H32       1.0  0.58560  0.42960  0.92290  1.0000 0.1122754743
H   H33       1.0  0.92560  0.67740  0.47040  1.0000 0.1122754743
H   H34       1.0  0.67740  0.92560  0.02960  1.0000 0.1122754743
H   H35       1.0  0.07440  0.32260  0.52960  1.0000 0.1122754743
H   H36       1.0  0.32260  0.07440  0.97040  1.0000 0.1122754743
H   H37       1.0  0.09460  0.11220  0.34610  1.0000 0.1262274384
H   H38       1.0  0.11220  0.09460  0.15390  1.0000 0.1262274384
H   H39       1.0  0.90540  0.88780  0.65390  1.0000 0.1262274384
H   H40       1.0  0.88780  0.90540  0.84610  1.0000 0.1262274384
H   H41       1.0  0.94500  0.81460  0.45400  1.0000 0.1180368067
H   H42       1.0  0.81460  0.94500  0.04600  1.0000 0.1180368067
H   H43       1.0  0.05500  0.18540  0.54600  1.0000 0.1180368067
H   H44       1.0  0.18540  0.05500  0.95400  1.0000 0.1180368067
H   H45       1.0  0.77008  0.35592  0.43880  1.0000 0.4028500715
H   H46       1.0  0.35592  0.77008  0.06120  1.0000 0.4028500715
H   H47       1.0  0.22992  0.64408  0.56120  1.0000 0.4028500715
H   H48       1.0  0.64408  0.22992  0.93880  1.0000 0.4028500715
C   C1        1.0  0.25116  0.45726  0.26146  1.0000 -0.1496616354
C   C2        1.0  0.45726  0.25116  0.23854  1.0000 -0.1496616354
C   C3        1.0  0.74884  0.54274  0.73854  1.0000 -0.1496616354
C   C4        1.0  0.54274  0.74884  0.76146  1.0000 -0.1496616354
C   C5        1.0  0.81702  0.07936  0.24064  1.0000 -0.0980479499
C   C6        1.0  0.07936  0.81702  0.25936  1.0000 -0.0980479499
C   C7        1.0  0.18298  0.92064  0.75936  1.0000 -0.0980479499
C   C8        1.0  0.92064  0.18298  0.74064  1.0000 -0.0980479499
C   C9        1.0  0.90178  0.08990  0.29674  1.0000 -0.1589255184
C   C10       1.0  0.08990  0.90178  0.20326  1.0000 -0.1589255184
C   C11       1.0  0.09822  0.91010  0.70326  1.0000 -0.1589255184
C   C12       1.0  0.91010  0.09822  0.79674  1.0000 -0.1589255184
C   C13       1.0  0.94851  0.25573  0.19526  1.0000 -0.0222200801
C   C14       1.0  0.25573  0.94851  0.30474  1.0000 -0.0222200801
C   C15       1.0  0.05149  0.74427  0.80474  1.0000 -0.0222200801
C   C16       1.0  0.74427  0.05149  0.69526  1.0000 -0.0222200801
C   C17       1.0  0.16719  0.44603  0.20546  1.0000 -0.0980479499
C   C18       1.0  0.44603  0.16719  0.29454  1.0000 -0.0945732718
C   C19       1.0  0.83281  0.55397  0.79454  1.0000 -0.0945732718
C   C20       1.0  0.55397  0.83281  0.70546  1.0000 -0.0980479499
C   C21       1.0  0.56360  0.56114  0.52459  1.0000 -0.009580051
C   C22       1.0  0.56114  0.56360  0.97541  1.0000 -0.009580051
C   C23       1.0  0.43640  0.43886  0.47541  1.0000 -0.009580051
C   C24       1.0  0.43886  0.43640  0.02459  1.0000 -0.009580051
C   C25       1.0  0.49047  0.63023  0.45979  1.0000 -0.1396658862
C   C26       1.0  0.63023  0.49047  0.04021  1.0000 -0.1396658862
C   C27       1.0  0.50953  0.36977  0.54021  1.0000 -0.1396658862
C   C28       1.0  0.36977  0.50953  0.95979  1.0000 -0.1396658862
C   C29       1.0  0.42968  0.18288  0.44648  1.0000 -0.0945732718
C   C30       1.0  0.18288  0.42968  0.05352  1.0000 -0.0945732718
C   C31       1.0  0.57032  0.81712  0.55352  1.0000 -0.0945732718
C   C32       1.0  0.81712  0.57032  0.94648  1.0000 -0.0945732718
C   C33       1.0  0.37450  0.51960  0.41264  1.0000 -0.1396658862
C   C34       1.0  0.51960  0.37450  0.08736  1.0000 -0.1396658862
C   C35       1.0  0.62550  0.48040  0.58736  1.0000 -0.1396658862
C   C36       1.0  0.48040  0.62550  0.91264  1.0000 -0.1396658862
C   C37       1.0  0.85701  0.24453  0.13495  1.0000 0.5908931369
C   C38       1.0  0.24453  0.85701  0.36505  1.0000 0.5908931369
C   C39       1.0  0.14299  0.75547  0.86505  1.0000 0.5908931369
C   C40       1.0  0.75547  0.14299  0.63495  1.0000 0.5908931369
C   C41       1.0  0.33922  0.41640  0.41800  1.0000 0.0202295637
C   C42       1.0  0.41640  0.33922  0.08200  1.0000 0.0202295637
C   C43       1.0  0.66078  0.58360  0.58200  1.0000 0.0202295637
C   C44       1.0  0.58360  0.66078  0.91800  1.0000 0.0202295637
C   C45       1.0  0.43964  0.26418  0.43432  1.0000 -0.1589255184
C   C46       1.0  0.26418  0.43964  0.06568  1.0000 -0.1589255184
C   C47       1.0  0.56036  0.73582  0.56568  1.0000 -0.1589255184
C   C48       1.0  0.73582  0.56036  0.93432  1.0000 -0.1589255184
C   C49       1.0  0.11945  0.27887  0.30773  1.0000 0.0855802769
C   C50       1.0  0.27887  0.11945  0.19227  1.0000 0.0855802769
C   C51       1.0  0.88055  0.72113  0.69227  1.0000 0.0855802769
C   C52       1.0  0.72113  0.88055  0.80773  1.0000 0.0855802769
C   C53       1.0  0.23068  0.87492  0.48324  1.0000 0.5908931369
C   C54       1.0  0.87492  0.23068  0.01676  1.0000 0.5908931369
C   C55       1.0  0.76932  0.12508  0.51676  1.0000 0.5908931369
C   C56       1.0  0.12508  0.76932  0.98324  1.0000 0.5908931369
C   C57       1.0  0.59142  0.65734  0.51842  1.0000 0.02592817
C   C58       1.0  0.65734  0.59142  0.98158  1.0000 0.02592817
C   C59       1.0  0.40858  0.34266  0.48158  1.0000 0.02592817
C   C60       1.0  0.34266  0.40858  0.01842  1.0000 0.02592817
C   C61       1.0  0.05918  0.82864  0.46290  1.0000 -0.0980479499
C   C62       1.0  0.82864  0.05918  0.03710  1.0000 -0.0980479499
C   C63       1.0  0.94082  0.17136  0.53710  1.0000 -0.0980479499
C   C64       1.0  0.17136  0.94082  0.96290  1.0000 -0.0980479499
C   C65       1.0  0.18560  0.19958  0.37811  1.0000 -0.188722988
C   C66       1.0  0.19958  0.18560  0.12189  1.0000 -0.188722988
C   C67       1.0  0.81440  0.80042  0.62189  1.0000 -0.188722988
C   C68       1.0  0.80042  0.81440  0.87811  1.0000 -0.188722988
C   C69       1.0  0.23773  0.96231  0.46288  1.0000 -0.029726976
C   C70       1.0  0.96231  0.23773  0.03712  1.0000 -0.029726976
C   C71       1.0  0.76227  0.03769  0.53712  1.0000 -0.029726976
C   C72       1.0  0.03769  0.76227  0.96288  1.0000 -0.029726976
C   C73       1.0  0.06938  0.91002  0.45207  1.0000 -0.1589255184
C   C74       1.0  0.91002  0.06938  0.04793  1.0000 -0.1589255184
C   C75       1.0  0.93062  0.08998  0.54793  1.0000 -0.1589255184
C   C76       1.0  0.08998  0.93062  0.95207  1.0000 -0.1589255184
C   C77       1.0  0.26139  0.13001  0.43851  1.0000 0.0825441877
C   C78       1.0  0.13001  0.26139  0.06149  1.0000 0.0825441877
C   C79       1.0  0.73861  0.86999  0.56149  1.0000 0.0825441877
C   C80       1.0  0.86999  0.73861  0.93851  1.0000 0.0825441877
C   C81       1.0  0.21529  0.29681  0.36971  1.0000 0.0202295637
C   C82       1.0  0.29681  0.21529  0.13029  1.0000 0.0202295637
C   C83       1.0  0.78471  0.70319  0.63029  1.0000 0.0202295637
C   C84       1.0  0.70319  0.78471  0.86971  1.0000 0.0202295637
C   C85       1.0  0.28615  0.22673  0.43255  1.0000 0.0202295637
C   C86       1.0  0.22673  0.28615  0.06745  1.0000 0.0202295637
C   C87       1.0  0.71385  0.77327  0.56745  1.0000 0.0202295637
C   C88       1.0  0.77327  0.71385  0.93255  1.0000 0.0202295637
O   O1        1.0  0.78840  0.32094  0.47996  1.0000 -0.8739792606
O   O2        1.0  0.32094  0.78840  0.02004  1.0000 -0.8739792606
O   O3        1.0  0.21160  0.67906  0.52004  1.0000 -0.8739792606
O   O4        1.0  0.67906  0.21160  0.97996  1.0000 -0.8739792606
O   O5        1.0  0.99159  0.42335  0.10203  1.0000 -0.5695788463
O   O6        1.0  0.42335  0.99159  0.39797  1.0000 -0.5695788463
O   O7        1.0  0.00841  0.57665  0.89797  1.0000 -0.5695788463
O   O8        1.0  0.57665  0.00841  0.60203  1.0000 -0.5695788463
O   O9        1.0  0.65904  0.06462  0.12256  1.0000 -0.5489611229
O   O10       1.0  0.06462  0.65904  0.37744  1.0000 -0.5489611229
O   O11       1.0  0.34096  0.93538  0.87744  1.0000 -0.5489611229
O   O12       1.0  0.93538  0.34096  0.62256  1.0000 -0.5489611229
O   O13       1.0  0.04804  0.67374  0.48842  1.0000 -0.5575680932
O   O14       1.0  0.67374  0.04804  0.01158  1.0000 -0.5575680932
O   O15       1.0  0.95196  0.32626  0.51158  1.0000 -0.5575680932
O   O16       1.0  0.32626  0.95196  0.98842  1.0000 -0.5575680932
O   O17       1.0  0.40809  0.00805  0.49569  1.0000 -0.5575680932
O   O18       1.0  0.00805  0.40809  0.00431  1.0000 -0.5575680932
O   O19       1.0  0.59191  0.99195  0.50431  1.0000 -0.5575680932
O   O20       1.0  0.99195  0.59191  0.99569  1.0000 -0.5575680932
