# DDEC6 charges by PACMAN v1.1 (https://github.com/mtap-research/PACMAN-charge/)
data_2014[Sm][nan]3[ASR]2
_chemical_formula_sum              "Sm3 H18 C48 O24"
_cell_length_a       11.647
_cell_length_b       12.247
_cell_length_c       13.604
_cell_angle_alpha    114.99
_cell_angle_beta     112.12
_cell_angle_gamma    88.32

_symmetry_space_group_name_H-M    "P 1"
_symmetry_Int_Tables_number       1

loop_
  _symmetry_equiv_pos_as_xyz
  'x, y, z'

loop_
  _atom_site_type_symbol
  _atom_site_label
  _atom_site_symmetry_multiplicity
  _atom_site_fract_x
  _atom_site_fract_y
  _atom_site_fract_z
  _atom_site_occupancy
  _atom_site_charge
Sm  Sm1       1.0  0.50000  0.00000  0.50000  1.0000 2.0783850279
Sm  Sm2       1.0  0.42947  0.82883  0.67186  1.0000 2.0992925492
Sm  Sm3       1.0  0.57053  0.17117  0.32814  1.0000 2.0992925492
H   H1        1.0  0.51090  0.10300  0.91570  1.0000 0.1502051678
H   H2        1.0  0.48910  0.89700  0.08430  1.0000 0.1502051678
H   H3        1.0  0.50210  0.37600  0.82390  1.0000 0.1308247573
H   H4        1.0  0.49790  0.62400  0.17610  1.0000 0.1308247573
H   H5        1.0  0.06400  0.72170  0.42640  1.0000 0.1502051678
H   H6        1.0  0.93600  0.27830  0.57360  1.0000 0.1502051678
H   H7        1.0  0.07650  0.00380  0.34960  1.0000 0.1409601894
H   H8        1.0  0.92350  0.99620  0.65040  1.0000 0.1409601894
H   H9        1.0  0.51020  0.44470  0.14180  1.0000 0.1308247573
H   H10       1.0  0.48980  0.55530  0.85820  1.0000 0.1308247573
H   H11       1.0  0.75410  0.86970  0.32620  1.0000 0.1214295578
H   H12       1.0  0.24590  0.13030  0.67380  1.0000 0.1214295578
H   H13       1.0  0.89910  0.54670  0.34210  1.0000 0.1308247573
H   H14       1.0  0.10090  0.45330  0.65790  1.0000 0.1308247573
H   H15       1.0  0.72850  0.82980  0.47050  1.0000 0.1214295578
H   H16       1.0  0.27150  0.17020  0.52950  1.0000 0.1214295578
H   H17       1.0  0.63970  0.50770  0.45660  1.0000 0.1502051678
H   H18       1.0  0.36030  0.49230  0.54340  1.0000 0.1502051678
C   C1        1.0  0.50900  0.14430  0.73500  1.0000 0.6158690777
C   C2        1.0  0.49100  0.85570  0.26500  1.0000 0.6158690777
C   C3        1.0  0.23090  0.87250  0.43220  1.0000 0.6288872239
C   C4        1.0  0.76910  0.12750  0.56780  1.0000 0.6288872239
C   C5        1.0  0.50770  0.22730  0.85240  1.0000 -0.0166875684
C   C6        1.0  0.49230  0.77270  0.14760  1.0000 -0.0166875684
C   C7        1.0  0.09180  0.86270  0.39280  1.0000 -0.0166875684
C   C8        1.0  0.90820  0.13730  0.60720  1.0000 -0.0166875684
C   C9        1.0  0.51090  0.18520  0.93380  1.0000 -0.0862002197
C   C10       1.0  0.48910  0.81480  0.06620  1.0000 -0.0862002197
C   C11       1.0  0.50380  0.35000  0.87950  1.0000 -0.1356319212
C   C12       1.0  0.49620  0.65000  0.12050  1.0000 -0.1356319212
C   C13       1.0  0.02400  0.77900  0.40330  1.0000 -0.1224262222
C   C14       1.0  0.97600  0.22100  0.59670  1.0000 -0.1224262222
C   C15       1.0  0.03170  0.94860  0.35750  1.0000 -0.1026484119
C   C16       1.0  0.96830  0.05140  0.64250  1.0000 -0.1026484119
C   C17       1.0  0.51410  0.26890  0.04220  1.0000 0.0200612879
C   C18       1.0  0.48590  0.73110  0.95780  1.0000 0.0200612879
C   C19       1.0  0.50230  0.43550  0.98640  1.0000 0.0696918097
C   C20       1.0  0.49770  0.56450  0.01360  1.0000 0.0696918097
C   C21       1.0  0.89720  0.78080  0.37960  1.0000 0.0831586783
C   C22       1.0  0.10280  0.21920  0.62040  1.0000 0.0831586783
C   C23       1.0  0.90720  0.95140  0.33450  1.0000 -0.0112435408
C   C24       1.0  0.09280  0.04860  0.66550  1.0000 -0.0112435408
C   C25       1.0  0.50910  0.39100  0.06850  1.0000 -0.1322041991
C   C26       1.0  0.49090  0.60900  0.93150  1.0000 -0.1322041991
C   C27       1.0  0.52480  0.22950  0.13640  1.0000 0.5707878199
C   C28       1.0  0.47520  0.77050  0.86360  1.0000 0.5707878199
C   C29       1.0  0.83920  0.86810  0.34380  1.0000 -0.1322041991
C   C30       1.0  0.16080  0.13190  0.65620  1.0000 -0.1322041991
C   C31       1.0  0.82480  0.70190  0.40050  1.0000 0.0831586783
C   C32       1.0  0.17520  0.29810  0.59950  1.0000 0.0831586783
C   C33       1.0  0.84450  0.05180  0.30880  1.0000 0.6009663072
C   C34       1.0  0.15550  0.94820  0.69120  1.0000 0.6009663072
C   C35       1.0  0.84150  0.58030  0.37450  1.0000 -0.1224262222
C   C36       1.0  0.15850  0.41970  0.62550  1.0000 -0.1224262222
C   C37       1.0  0.73950  0.74880  0.45080  1.0000 -0.1356319212
C   C38       1.0  0.26050  0.25120  0.54920  1.0000 -0.1322041991
C   C39       1.0  0.77260  0.51010  0.39690  1.0000 -0.0112435408
C   C40       1.0  0.22740  0.48990  0.60310  1.0000 -0.0046695146
C   C41       1.0  0.67000  0.67770  0.47250  1.0000 0.0009004846
C   C42       1.0  0.33000  0.32230  0.52750  1.0000 0.0009004846
C   C43       1.0  0.79170  0.37840  0.37000  1.0000 0.6009663072
C   C44       1.0  0.20830  0.62160  0.63000  1.0000 0.6009663072
C   C45       1.0  0.68660  0.55670  0.44390  1.0000 -0.0862002197
C   C46       1.0  0.31340  0.44330  0.55610  1.0000 -0.0862002197
C   C47       1.0  0.58020  0.73200  0.52990  1.0000 0.6288872239
C   C48       1.0  0.41980  0.26800  0.47010  1.0000 0.6288872239
O   O1        1.0  0.52490  0.96930  0.31170  1.0000 -0.722479758
O   O2        1.0  0.47510  0.03070  0.68830  1.0000 -0.722479758
O   O3        1.0  0.45970  0.81000  0.31970  1.0000 -0.5693015429
O   O4        1.0  0.54030  0.19000  0.68030  1.0000 -0.5693015429
O   O5        1.0  0.71760  0.04780  0.58040  1.0000 -0.6392135295
O   O6        1.0  0.28240  0.95220  0.41960  1.0000 -0.6392135295
O   O7        1.0  0.43270  0.15770  0.44210  1.0000 -0.722479758
O   O8        1.0  0.56730  0.84230  0.55790  1.0000 -0.722479758
O   O9        1.0  0.26030  0.67450  0.59360  1.0000 -0.6292376094
O   O10       1.0  0.73970  0.32550  0.40640  1.0000 -0.6292376094
O   O11       1.0  0.29070  0.80800  0.47790  1.0000 -0.6292376094
O   O12       1.0  0.70930  0.19200  0.52210  1.0000 -0.6292376094
O   O13       1.0  0.49960  0.69770  0.77600  1.0000 -0.6292376094
O   O14       1.0  0.50040  0.30230  0.22400  1.0000 -0.6292376094
O   O15       1.0  0.44000  0.87080  0.87130  1.0000 -0.5891786191
O   O16       1.0  0.56000  0.12920  0.12870  1.0000 -0.5891786191
O   O17       1.0  0.52520  0.66810  0.55560  1.0000 -0.5693015429
O   O18       1.0  0.47480  0.33190  0.44440  1.0000 -0.5693015429
O   O19       1.0  0.26480  0.94340  0.70510  1.0000 -0.5891786191
O   O20       1.0  0.73520  0.05660  0.29490  1.0000 -0.5891786191
O   O21       1.0  0.91740  0.13110  0.31030  1.0000 -0.4421417984
O   O22       1.0  0.08260  0.86890  0.68970  1.0000 -0.4421417984
O   O23       1.0  0.85800  0.32980  0.31320  1.0000 -0.4313061657
O   O24       1.0  0.14200  0.67020  0.68680  1.0000 -0.4313061657
