# DDEC6 charges by PACMAN v1.1 (https://github.com/mtap-research/PACMAN-charge/)
data_2014[Zn][ths]3[ASR]3
_chemical_formula_sum              "Zn12 H96 C144 I24 N48"
_cell_length_a       17.6515
_cell_length_b       17.6515
_cell_length_c       31.168
_cell_angle_alpha    82.7027
_cell_angle_beta     97.2973
_cell_angle_gamma    129.235

_symmetry_space_group_name_H-M    "P 1"
_symmetry_Int_Tables_number       1

loop_
  _symmetry_equiv_pos_as_xyz
  'x, y, z'

loop_
  _atom_site_type_symbol
  _atom_site_label
  _atom_site_symmetry_multiplicity
  _atom_site_fract_x
  _atom_site_fract_y
  _atom_site_fract_z
  _atom_site_occupancy
  _atom_site_charge
Zn  Zn1       1.0  0.45865  0.84195  0.71446  1.0000 0.4332323806
Zn  Zn2       1.0  0.15805  0.54135  0.21446  1.0000 0.4332323806
Zn  Zn3       1.0  0.03909  0.17901  0.39542  1.0000 0.4665179724
Zn  Zn4       1.0  0.82099  0.96091  0.89542  1.0000 0.4665179724
Zn  Zn5       1.0  0.54254  0.25880  0.55017  1.0000 0.4665179724
Zn  Zn6       1.0  0.74120  0.45746  0.05017  1.0000 0.4665179724
Zn  Zn7       1.0  0.84195  0.45865  0.78554  1.0000 0.4332323806
Zn  Zn8       1.0  0.54135  0.15805  0.28554  1.0000 0.4332323806
Zn  Zn9       1.0  0.17901  0.03909  0.10458  1.0000 0.4665179724
Zn  Zn10      1.0  0.96091  0.82099  0.60458  1.0000 0.4665179724
Zn  Zn11      1.0  0.25880  0.54254  0.94983  1.0000 0.4665179724
Zn  Zn12      1.0  0.45746  0.74120  0.44983  1.0000 0.4665179724
H   H1        1.0  0.55160  0.93260  0.62850  1.0000 0.1073870504
H   H2        1.0  0.06740  0.44840  0.12850  1.0000 0.1073870504
H   H3        1.0  0.61770  0.90870  0.57720  1.0000 0.1379669453
H   H4        1.0  0.09130  0.38230  0.07720  1.0000 0.1379669453
H   H5        1.0  0.57690  0.68590  0.65510  1.0000 0.1379669453
H   H6        1.0  0.31410  0.42310  0.15510  1.0000 0.1379669453
H   H7        1.0  0.51270  0.71750  0.70480  1.0000 0.1012102134
H   H8        1.0  0.28250  0.48730  0.20480  1.0000 0.1012102134
H   H9        1.0  0.96320  0.97260  0.42200  1.0000 0.1073870504
H   H10       1.0  0.02740  0.03680  0.92200  1.0000 0.1073870504
H   H11       1.0  0.85230  0.84190  0.46790  1.0000 0.1379669453
H   H12       1.0  0.15810  0.14770  0.96790  1.0000 0.1379669453
H   H13       1.0  0.82960  0.02320  0.52190  1.0000 0.1379669453
H   H14       1.0  0.97680  0.17040  0.02190  1.0000 0.1379669453
H   H15       1.0  0.94290  0.14950  0.47480  1.0000 0.1073870504
H   H16       1.0  0.85050  0.05710  0.97480  1.0000 0.1073870504
H   H17       1.0  0.50830  0.36370  0.59760  1.0000 0.1073870504
H   H18       1.0  0.63630  0.49170  0.09760  1.0000 0.1073870504
H   H19       1.0  0.54740  0.51460  0.60130  1.0000 0.1379669453
H   H20       1.0  0.48540  0.45260  0.10130  1.0000 0.1379669453
H   H21       1.0  0.67780  0.59780  0.48780  1.0000 0.1379669453
H   H22       1.0  0.40220  0.32220  0.98780  1.0000 0.1379669453
H   H23       1.0  0.62820  0.44040  0.48650  1.0000 0.1073870504
H   H24       1.0  0.55960  0.37180  0.98650  1.0000 0.1073870504
H   H25       1.0  0.75790  0.41530  0.56940  1.0000 0.1073870504
H   H26       1.0  0.58470  0.24210  0.06940  1.0000 0.1073870504
H   H27       1.0  0.88160  0.44820  0.61970  1.0000 0.1379669453
H   H28       1.0  0.55180  0.11840  0.11970  1.0000 0.1379669453
H   H29       1.0  0.68290  0.18990  0.68430  1.0000 0.1310443642
H   H30       1.0  0.81010  0.31710  0.18430  1.0000 0.1310443642
H   H31       1.0  0.56170  0.17010  0.63600  1.0000 0.1012102134
H   H32       1.0  0.82990  0.43830  0.13600  1.0000 0.1012102134
H   H33       1.0  0.34560  0.65000  0.76460  1.0000 0.1012102134
H   H34       1.0  0.35000  0.65440  0.26460  1.0000 0.1012102134
H   H35       1.0  0.19260  0.49820  0.76580  1.0000 0.145457706
H   H36       1.0  0.50180  0.80740  0.26580  1.0000 0.145457706
H   H37       1.0  0.10950  0.59310  0.65990  1.0000 0.1379669453
H   H38       1.0  0.40690  0.89050  0.15990  1.0000 0.1379669453
H   H39       1.0  0.26780  0.74120  0.66180  1.0000 0.1073870504
H   H40       1.0  0.25880  0.73220  0.16180  1.0000 0.1073870504
H   H41       1.0  0.71910  0.01290  0.83120  1.0000 0.1012102134
H   H42       1.0  0.98710  0.28090  0.33120  1.0000 0.1012102134
H   H43       1.0  0.75040  0.12860  0.77620  1.0000 0.1310443642
H   H44       1.0  0.87140  0.24960  0.27620  1.0000 0.1310443642
H   H45       1.0  0.03910  0.28050  0.80830  1.0000 0.1379669453
H   H46       1.0  0.71950  0.96090  0.30830  1.0000 0.1379669453
H   H47       1.0  0.00030  0.16430  0.86360  1.0000 0.1073870504
H   H48       1.0  0.83570  0.99970  0.36360  1.0000 0.1073870504
H   H49       1.0  0.93260  0.55160  0.87150  1.0000 0.1073870504
H   H50       1.0  0.44840  0.06740  0.37150  1.0000 0.1073870504
H   H51       1.0  0.90870  0.61770  0.92280  1.0000 0.1379669453
H   H52       1.0  0.38230  0.09130  0.42280  1.0000 0.1379669453
H   H53       1.0  0.68590  0.57690  0.84490  1.0000 0.1379669453
H   H54       1.0  0.42310  0.31410  0.34490  1.0000 0.1379669453
H   H55       1.0  0.71750  0.51270  0.79520  1.0000 0.1012102134
H   H56       1.0  0.48730  0.28250  0.29520  1.0000 0.1012102134
H   H57       1.0  0.97260  0.96320  0.07800  1.0000 0.1073870504
H   H58       1.0  0.03680  0.02740  0.57800  1.0000 0.1073870504
H   H59       1.0  0.84190  0.85230  0.03210  1.0000 0.1379669453
H   H60       1.0  0.14770  0.15810  0.53210  1.0000 0.1379669453
H   H61       1.0  0.02320  0.82960  0.97810  1.0000 0.1379669453
H   H62       1.0  0.17040  0.97680  0.47810  1.0000 0.1379669453
H   H63       1.0  0.14950  0.94290  0.02520  1.0000 0.1073870504
H   H64       1.0  0.05710  0.85050  0.52520  1.0000 0.1073870504
H   H65       1.0  0.36370  0.50830  0.90240  1.0000 0.1073870504
H   H66       1.0  0.49170  0.63630  0.40240  1.0000 0.1073870504
H   H67       1.0  0.51460  0.54740  0.89870  1.0000 0.1379669453
H   H68       1.0  0.45260  0.48540  0.39870  1.0000 0.1379669453
H   H69       1.0  0.59780  0.67780  0.01220  1.0000 0.1379669453
H   H70       1.0  0.32220  0.40220  0.51220  1.0000 0.1379669453
H   H71       1.0  0.44040  0.62820  0.01350  1.0000 0.1073870504
H   H72       1.0  0.37180  0.55960  0.51350  1.0000 0.1073870504
H   H73       1.0  0.41530  0.75790  0.93060  1.0000 0.1073870504
H   H74       1.0  0.24210  0.58470  0.43060  1.0000 0.1073870504
H   H75       1.0  0.44820  0.88160  0.88030  1.0000 0.1379669453
H   H76       1.0  0.11840  0.55180  0.38030  1.0000 0.1379669453
H   H77       1.0  0.18990  0.68290  0.81570  1.0000 0.1310443642
H   H78       1.0  0.31710  0.81010  0.31570  1.0000 0.1310443642
H   H79       1.0  0.17010  0.56170  0.86400  1.0000 0.1012102134
H   H80       1.0  0.43830  0.82990  0.36400  1.0000 0.1012102134
H   H81       1.0  0.65000  0.34560  0.73540  1.0000 0.1012102134
H   H82       1.0  0.65440  0.35000  0.23540  1.0000 0.1012102134
H   H83       1.0  0.49820  0.19260  0.73420  1.0000 0.145457706
H   H84       1.0  0.80740  0.50180  0.23420  1.0000 0.145457706
H   H85       1.0  0.59310  0.10950  0.84010  1.0000 0.1379669453
H   H86       1.0  0.89050  0.40690  0.34010  1.0000 0.1379669453
H   H87       1.0  0.74120  0.26780  0.83820  1.0000 0.1073870504
H   H88       1.0  0.73220  0.25880  0.33820  1.0000 0.1073870504
H   H89       1.0  0.01290  0.71910  0.66880  1.0000 0.1012102134
H   H90       1.0  0.28090  0.98710  0.16880  1.0000 0.1012102134
H   H91       1.0  0.12860  0.75040  0.72380  1.0000 0.1310443642
H   H92       1.0  0.24960  0.87140  0.22380  1.0000 0.1310443642
H   H93       1.0  0.28050  0.03910  0.69170  1.0000 0.1379669453
H   H94       1.0  0.96090  0.71950  0.19170  1.0000 0.1379669453
H   H95       1.0  0.16430  0.00030  0.63640  1.0000 0.1073870504
H   H96       1.0  0.99970  0.83570  0.13640  1.0000 0.1073870504
C   C1        1.0  0.55600  0.88120  0.63370  1.0000 0.0802063988
C   C2        1.0  0.11880  0.44400  0.13370  1.0000 0.0802063988
C   C3        1.0  0.59640  0.86820  0.60330  1.0000 -0.1302038556
C   C4        1.0  0.13180  0.40360  0.10330  1.0000 -0.1302038556
C   C5        1.0  0.60570  0.79550  0.61110  1.0000 0.0702452377
C   C6        1.0  0.20450  0.39430  0.11110  1.0000 0.0702452377
C   C7        1.0  0.57270  0.73730  0.64900  1.0000 -0.1393633339
C   C8        1.0  0.26270  0.42730  0.14900  1.0000 -0.1393633339
C   C9        1.0  0.53310  0.75570  0.67820  1.0000 0.0889915502
C   C10       1.0  0.24430  0.46690  0.17820  1.0000 0.0889915502
C   C11       1.0  0.64570  0.77790  0.57810  1.0000 0.3686669824
C   C12       1.0  0.22210  0.35430  0.07810  1.0000 0.3686669824
C   C13       1.0  0.74780  0.83440  0.52550  1.0000 0.3686669824
C   C14       1.0  0.16560  0.25220  0.02550  1.0000 0.3686669824
C   C15       1.0  0.65500  0.67580  0.54820  1.0000 0.3686669824
C   C16       1.0  0.32420  0.34500  0.04820  1.0000 0.3686669824
C   C17       1.0  0.93490  0.98250  0.44230  1.0000 0.0702452377
C   C18       1.0  0.01750  0.06510  0.94230  1.0000 0.0702452377
C   C19       1.0  0.86850  0.90410  0.46940  1.0000 -0.1484302764
C   C20       1.0  0.09590  0.13150  0.96940  1.0000 -0.1484302764
C   C21       1.0  0.82610  0.91730  0.49860  1.0000 0.0604587087
C   C22       1.0  0.08270  0.17390  0.99860  1.0000 0.0604587087
C   C23       1.0  0.85540  0.01100  0.50120  1.0000 -0.1393633339
C   C24       1.0  0.98900  0.14460  0.00120  1.0000 -0.1393633339
C   C25       1.0  0.92280  0.08560  0.47300  1.0000 0.0702452377
C   C26       1.0  0.91440  0.07720  0.97300  1.0000 0.0802063988
C   C27       1.0  0.54370  0.41250  0.57500  1.0000 0.0889915502
C   C28       1.0  0.58750  0.45630  0.07500  1.0000 0.0889915502
C   C29       1.0  0.56750  0.50250  0.57790  1.0000 -0.1610229028
C   C30       1.0  0.49750  0.43250  0.07790  1.0000 -0.1610229028
C   C31       1.0  0.62200  0.57580  0.54560  1.0000 0.0604587087
C   C32       1.0  0.42420  0.37800  0.04560  1.0000 0.0604587087
C   C33       1.0  0.64340  0.55080  0.51110  1.0000 -0.1484302764
C   C34       1.0  0.44920  0.35660  0.01110  1.0000 -0.1484302764
C   C35       1.0  0.61430  0.45730  0.51050  1.0000 0.0702452377
C   C36       1.0  0.54270  0.38570  0.01050  1.0000 0.0702452377
C   C37       1.0  0.74250  0.37010  0.59360  1.0000 0.0802063988
C   C38       1.0  0.62990  0.25750  0.09360  1.0000 0.0802063988
C   C39       1.0  0.81640  0.38960  0.62310  1.0000 -0.1393633339
C   C40       1.0  0.61040  0.18360  0.12310  1.0000 -0.1393633339
C   C41       1.0  0.79550  0.32310  0.65810  1.0000 0.0702452377
C   C42       1.0  0.67690  0.20450  0.15810  1.0000 0.0702452377
C   C43       1.0  0.69930  0.23850  0.66160  1.0000 -0.1484302764
C   C44       1.0  0.76150  0.30070  0.16160  1.0000 -0.1484302764
C   C45       1.0  0.62810  0.22570  0.63210  1.0000 0.0702452377
C   C46       1.0  0.77430  0.37190  0.13210  1.0000 0.0702452377
C   C47       1.0  0.87510  0.34050  0.69020  1.0000 0.361679855
C   C48       1.0  0.65950  0.12490  0.19020  1.0000 0.3686669824
C   C49       1.0  0.03230  0.43210  0.71340  1.0000 0.361679855
C   C50       1.0  0.56790  0.96770  0.21340  1.0000 0.361679855
C   C51       1.0  0.92270  0.28810  0.74780  1.0000 0.3686669824
C   C52       1.0  0.71190  0.07730  0.24780  1.0000 0.3686669824
C   C53       1.0  0.29670  0.63830  0.74300  1.0000 0.0889915502
C   C54       1.0  0.36170  0.70330  0.24300  1.0000 0.0889915502
C   C55       1.0  0.20560  0.54720  0.74400  1.0000 -0.1674113466
C   C56       1.0  0.45280  0.79440  0.24400  1.0000 -0.1674113466
C   C57       1.0  0.13410  0.52850  0.71290  1.0000 0.0802063988
C   C58       1.0  0.47150  0.86590  0.21290  1.0000 0.0802063988
C   C59       1.0  0.15710  0.60270  0.68170  1.0000 -0.1484302764
C   C60       1.0  0.39730  0.84290  0.18170  1.0000 -0.1484302764
C   C61       1.0  0.25060  0.69060  0.68350  1.0000 0.0604587087
C   C62       1.0  0.30940  0.74940  0.18350  1.0000 0.0604587087
C   C63       1.0  0.78520  0.06840  0.82650  1.0000 0.0889915502
C   C64       1.0  0.93160  0.21480  0.32650  1.0000 0.0889915502
C   C65       1.0  0.80320  0.13620  0.79320  1.0000 -0.1484302764
C   C66       1.0  0.86380  0.19680  0.29320  1.0000 -0.1484302764
C   C67       1.0  0.89850  0.21510  0.78500  1.0000 0.0702452377
C   C68       1.0  0.78490  0.10150  0.28500  1.0000 0.0702452377
C   C69       1.0  0.97250  0.22570  0.81230  1.0000 -0.1393633339
C   C70       1.0  0.77430  0.02750  0.31230  1.0000 -0.1393633339
C   C71       1.0  0.94890  0.15630  0.84500  1.0000 0.0802063988
C   C72       1.0  0.84370  0.05110  0.34500  1.0000 0.0802063988
C   C73       1.0  0.88120  0.55600  0.86630  1.0000 0.0802063988
C   C74       1.0  0.44400  0.11880  0.36630  1.0000 0.0802063988
C   C75       1.0  0.86820  0.59640  0.89670  1.0000 -0.1302038556
C   C76       1.0  0.40360  0.13180  0.39670  1.0000 -0.1302038556
C   C77       1.0  0.79550  0.60570  0.88890  1.0000 0.0702452377
C   C78       1.0  0.39430  0.20450  0.38890  1.0000 0.0702452377
C   C79       1.0  0.73730  0.57270  0.85100  1.0000 -0.1393633339
C   C80       1.0  0.42730  0.26270  0.35100  1.0000 -0.1393633339
C   C81       1.0  0.75570  0.53310  0.82180  1.0000 0.0889915502
C   C82       1.0  0.46690  0.24430  0.32180  1.0000 0.0802063988
C   C83       1.0  0.77790  0.64570  0.92190  1.0000 0.3686669824
C   C84       1.0  0.35430  0.22210  0.42190  1.0000 0.3686669824
C   C85       1.0  0.83440  0.74780  0.97450  1.0000 0.3686669824
C   C86       1.0  0.25220  0.16560  0.47450  1.0000 0.3686669824
C   C87       1.0  0.67580  0.65500  0.95180  1.0000 0.3686669824
C   C88       1.0  0.34500  0.32420  0.45180  1.0000 0.3686669824
C   C89       1.0  0.98250  0.93490  0.05770  1.0000 0.0702452377
C   C90       1.0  0.06510  0.01750  0.55770  1.0000 0.0702452377
C   C91       1.0  0.90410  0.86850  0.03060  1.0000 -0.1484302764
C   C92       1.0  0.13150  0.09590  0.53060  1.0000 -0.1484302764
C   C93       1.0  0.91730  0.82610  0.00140  1.0000 0.0604587087
C   C94       1.0  0.17390  0.08270  0.50140  1.0000 0.0604587087
C   C95       1.0  0.01100  0.85540  0.99880  1.0000 -0.1393633339
C   C96       1.0  0.14460  0.98900  0.49880  1.0000 -0.1393633339
C   C97       1.0  0.08560  0.92280  0.02700  1.0000 0.0702452377
C   C98       1.0  0.07720  0.91440  0.52700  1.0000 0.0702452377
C   C99       1.0  0.41250  0.54370  0.92500  1.0000 0.0889915502
C   C100      1.0  0.45630  0.58750  0.42500  1.0000 0.0889915502
C   C101      1.0  0.50250  0.56750  0.92210  1.0000 -0.1610229028
C   C102      1.0  0.43250  0.49750  0.42210  1.0000 -0.1610229028
C   C103      1.0  0.57580  0.62200  0.95440  1.0000 0.0604587087
C   C104      1.0  0.37800  0.42420  0.45440  1.0000 0.0604587087
C   C105      1.0  0.55080  0.64340  0.98890  1.0000 -0.1484302764
C   C106      1.0  0.35660  0.44920  0.48890  1.0000 -0.1484302764
C   C107      1.0  0.45730  0.61430  0.98950  1.0000 0.0604587087
C   C108      1.0  0.38570  0.54270  0.48950  1.0000 0.0702452377
C   C109      1.0  0.37010  0.74250  0.90640  1.0000 0.0802063988
C   C110      1.0  0.25750  0.62990  0.40640  1.0000 0.0802063988
C   C111      1.0  0.38960  0.81640  0.87690  1.0000 -0.1393633339
C   C112      1.0  0.18360  0.61040  0.37690  1.0000 -0.1393633339
C   C113      1.0  0.32310  0.79550  0.84190  1.0000 0.0702452377
C   C114      1.0  0.20450  0.67690  0.34190  1.0000 0.0702452377
C   C115      1.0  0.23850  0.69930  0.83840  1.0000 -0.1484302764
C   C116      1.0  0.30070  0.76150  0.33840  1.0000 -0.1484302764
C   C117      1.0  0.22570  0.62810  0.86790  1.0000 0.0702452377
C   C118      1.0  0.37190  0.77430  0.36790  1.0000 0.0702452377
C   C119      1.0  0.34050  0.87510  0.80980  1.0000 0.361679855
C   C120      1.0  0.12490  0.65950  0.30980  1.0000 0.361679855
C   C121      1.0  0.43210  0.03230  0.78660  1.0000 0.361679855
C   C122      1.0  0.96770  0.56790  0.28660  1.0000 0.361679855
C   C123      1.0  0.28810  0.92270  0.75220  1.0000 0.3686669824
C   C124      1.0  0.07730  0.71190  0.25220  1.0000 0.3686669824
C   C125      1.0  0.63830  0.29670  0.75700  1.0000 0.0889915502
C   C126      1.0  0.70330  0.36170  0.25700  1.0000 0.0889915502
C   C127      1.0  0.54720  0.20560  0.75600  1.0000 -0.1674113466
C   C128      1.0  0.79440  0.45280  0.25600  1.0000 -0.1674113466
C   C129      1.0  0.52850  0.13410  0.78710  1.0000 0.0802063988
C   C130      1.0  0.86590  0.47150  0.28710  1.0000 0.0802063988
C   C131      1.0  0.60270  0.15710  0.81830  1.0000 -0.1484302764
C   C132      1.0  0.84290  0.39730  0.31830  1.0000 -0.1484302764
C   C133      1.0  0.69060  0.25060  0.81650  1.0000 0.0604587087
C   C134      1.0  0.74940  0.30940  0.31650  1.0000 0.0604587087
C   C135      1.0  0.06840  0.78520  0.67350  1.0000 0.0889915502
C   C136      1.0  0.21480  0.93160  0.17350  1.0000 0.0802063988
C   C137      1.0  0.13620  0.80320  0.70680  1.0000 -0.1484302764
C   C138      1.0  0.19680  0.86380  0.20680  1.0000 -0.1484302764
C   C139      1.0  0.21510  0.89850  0.71500  1.0000 0.0702452377
C   C140      1.0  0.10150  0.78490  0.21500  1.0000 0.0702452377
C   C141      1.0  0.22570  0.97250  0.68770  1.0000 -0.1393633339
C   C142      1.0  0.02750  0.77430  0.18770  1.0000 -0.1393633339
C   C143      1.0  0.15630  0.94890  0.65500  1.0000 0.0802063988
C   C144      1.0  0.05110  0.84370  0.15500  1.0000 0.0802063988
I   I1        1.0  0.45576  0.97236  0.68134  1.0000 -0.3971876478
I   I2        1.0  0.02764  0.54424  0.18134  1.0000 -0.3971876478
I   I3        1.0  0.54089  0.85023  0.78802  1.0000 -0.4294322593
I   I4        1.0  0.14977  0.45911  0.28802  1.0000 -0.4294322593
I   I5        1.0  0.11929  0.34399  0.42363  1.0000 -0.448704995
I   I6        1.0  0.65601  0.88071  0.92363  1.0000 -0.4443335546
I   I7        1.0  0.12821  0.13817  0.35715  1.0000 -0.448704995
I   I8        1.0  0.86183  0.87179  0.85715  1.0000 -0.448704995
I   I9        1.0  0.37607  0.12983  0.58122  1.0000 -0.4609929113
I   I10       1.0  0.87017  0.62393  0.08122  1.0000 -0.4609929113
I   I11       1.0  0.59399  0.23921  0.48238  1.0000 -0.448704995
I   I12       1.0  0.76079  0.40601  0.98238  1.0000 -0.448704995
I   I13       1.0  0.97236  0.45576  0.81866  1.0000 -0.3971876478
I   I14       1.0  0.54424  0.02764  0.31866  1.0000 -0.3971876478
I   I15       1.0  0.85023  0.54089  0.71198  1.0000 -0.4294322593
I   I16       1.0  0.45911  0.14977  0.21198  1.0000 -0.4294322593
I   I17       1.0  0.34399  0.11929  0.07637  1.0000 -0.448704995
I   I18       1.0  0.88071  0.65601  0.57637  1.0000 -0.4443335546
I   I19       1.0  0.13817  0.12821  0.14285  1.0000 -0.448704995
I   I20       1.0  0.87179  0.86183  0.64285  1.0000 -0.448704995
I   I21       1.0  0.12983  0.37607  0.91878  1.0000 -0.4609929113
I   I22       1.0  0.62393  0.87017  0.41878  1.0000 -0.4609929113
I   I23       1.0  0.23921  0.59399  0.01762  1.0000 -0.448704995
I   I24       1.0  0.40601  0.76079  0.51762  1.0000 -0.448704995
N   N1        1.0  0.52270  0.82390  0.67030  1.0000 -0.1900819317
N   N2        1.0  0.17610  0.47730  0.17030  1.0000 -0.1900819317
N   N3        1.0  0.70970  0.85370  0.55260  1.0000 -0.380609495
N   N4        1.0  0.14630  0.29030  0.05260  1.0000 -0.380609495
N   N5        1.0  0.72110  0.74570  0.52120  1.0000 -0.3971876478
N   N6        1.0  0.25430  0.27890  0.02120  1.0000 -0.3971876478
N   N7        1.0  0.61630  0.68670  0.57780  1.0000 -0.389197254
N   N8        1.0  0.31330  0.38370  0.07780  1.0000 -0.389197254
N   N9        1.0  0.96120  0.07140  0.44320  1.0000 -0.1900819317
N   N10       1.0  0.92860  0.03880  0.94320  1.0000 -0.1900819317
N   N11       1.0  0.56610  0.38970  0.54370  1.0000 -0.1900819317
N   N12       1.0  0.61030  0.43390  0.04370  1.0000 -0.1900819317
N   N13       1.0  0.64880  0.28920  0.59770  1.0000 -0.1806846098
N   N14       1.0  0.71080  0.35120  0.09770  1.0000 -0.1806846098
N   N15       1.0  0.96600  0.42320  0.68470  1.0000 -0.380609495
N   N16       1.0  0.57680  0.03400  0.18470  1.0000 -0.380609495
N   N17       1.0  0.01540  0.36540  0.74490  1.0000 -0.389197254
N   N18       1.0  0.63460  0.98460  0.24490  1.0000 -0.389197254
N   N19       1.0  0.84830  0.27230  0.72220  1.0000 -0.389197254
N   N20       1.0  0.72770  0.15170  0.22220  1.0000 -0.389197254
N   N21       1.0  0.31930  0.70750  0.71500  1.0000 -0.1806846098
N   N22       1.0  0.29250  0.68070  0.21500  1.0000 -0.1806846098
N   N23       1.0  0.85610  0.07730  0.85220  1.0000 -0.1806846098
N   N24       1.0  0.92270  0.14390  0.35220  1.0000 -0.1674113466
N   N25       1.0  0.82390  0.52270  0.82970  1.0000 -0.1900819317
N   N26       1.0  0.47730  0.17610  0.32970  1.0000 -0.1900819317
N   N27       1.0  0.85370  0.70970  0.94740  1.0000 -0.380609495
N   N28       1.0  0.29030  0.14630  0.44740  1.0000 -0.380609495
N   N29       1.0  0.74570  0.72110  0.97880  1.0000 -0.3971876478
N   N30       1.0  0.27890  0.25430  0.47880  1.0000 -0.3971876478
N   N31       1.0  0.68670  0.61630  0.92220  1.0000 -0.389197254
N   N32       1.0  0.38370  0.31330  0.42220  1.0000 -0.389197254
N   N33       1.0  0.07140  0.96120  0.05680  1.0000 -0.1900819317
N   N34       1.0  0.03880  0.92860  0.55680  1.0000 -0.1900819317
N   N35       1.0  0.38970  0.56610  0.95630  1.0000 -0.1900819317
N   N36       1.0  0.43390  0.61030  0.45630  1.0000 -0.1900819317
N   N37       1.0  0.28920  0.64880  0.90230  1.0000 -0.1806846098
N   N38       1.0  0.35120  0.71080  0.40230  1.0000 -0.1806846098
N   N39       1.0  0.42320  0.96600  0.81530  1.0000 -0.380609495
N   N40       1.0  0.03400  0.57680  0.31530  1.0000 -0.380609495
N   N41       1.0  0.36540  0.01540  0.75510  1.0000 -0.389197254
N   N42       1.0  0.98460  0.63460  0.25510  1.0000 -0.389197254
N   N43       1.0  0.27230  0.84830  0.77780  1.0000 -0.389197254
N   N44       1.0  0.15170  0.72770  0.27780  1.0000 -0.389197254
N   N45       1.0  0.70750  0.31930  0.78500  1.0000 -0.1806846098
N   N46       1.0  0.68070  0.29250  0.28500  1.0000 -0.1806846098
N   N47       1.0  0.07730  0.85610  0.64780  1.0000 -0.1806846098
N   N48       1.0  0.14390  0.92270  0.14780  1.0000 -0.1806846098
