# DDEC6 charges by PACMAN v1.1 (https://github.com/mtap-research/PACMAN-charge/)
data_2014[Mn][gfy]3[ASR]1
_chemical_formula_sum              "Mn4 H78 C126 N24 O12"
_cell_length_a       16.6295
_cell_length_b       16.6295
_cell_length_c       14.141
_cell_angle_alpha    88.7141
_cell_angle_beta     91.2859
_cell_angle_gamma    65.3924

_symmetry_space_group_name_H-M    "P 1"
_symmetry_Int_Tables_number       1

loop_
  _symmetry_equiv_pos_as_xyz
  'x, y, z'

loop_
  _atom_site_type_symbol
  _atom_site_label
  _atom_site_symmetry_multiplicity
  _atom_site_fract_x
  _atom_site_fract_y
  _atom_site_fract_z
  _atom_site_occupancy
  _atom_site_charge
Mn  Mn1       1.0  0.81761  0.82589  0.89319  1.0000 0.8803703319
Mn  Mn2       1.0  0.82589  0.81761  0.60681  1.0000 0.8803703319
Mn  Mn3       1.0  0.18239  0.17411  0.10681  1.0000 0.8803703319
Mn  Mn4       1.0  0.17411  0.18239  0.39319  1.0000 0.8803703319
H   H1        1.0  0.92580  0.00620  0.88110  1.0000 0.1277870754
H   H2        1.0  0.00620  0.92580  0.61890  1.0000 0.1277870754
H   H3        1.0  0.07420  0.99380  0.11890  1.0000 0.1277870754
H   H4        1.0  0.99380  0.07420  0.38110  1.0000 0.1277870754
H   H5        1.0  0.02100  0.55940  0.88500  1.0000 0.1391772305
H   H6        1.0  0.55940  0.02100  0.61500  1.0000 0.1391772305
H   H7        1.0  0.97900  0.44060  0.11500  1.0000 0.1391772305
H   H8        1.0  0.44060  0.97900  0.38500  1.0000 0.1391772305
H   H9        1.0  0.92370  0.55770  0.62190  1.0000 0.1201642956
H   H10       1.0  0.55770  0.92370  0.87810  1.0000 0.1201642956
H   H11       1.0  0.07630  0.44230  0.37810  1.0000 0.1201642956
H   H12       1.0  0.44230  0.07630  0.12190  1.0000 0.1201642956
H   H13       1.0  0.09040  0.09040  0.75000  1.0000 0.1277870754
H   H14       1.0  0.90960  0.90960  0.25000  1.0000 0.1277870754
H   H15       1.0  0.11120  0.33560  0.74150  1.0000 0.1277870754
H   H16       1.0  0.33560  0.11120  0.75850  1.0000 0.1277870754
H   H17       1.0  0.88880  0.66440  0.25850  1.0000 0.1277870754
H   H18       1.0  0.66440  0.88880  0.24150  1.0000 0.1277870754
H   H19       1.0  0.14030  0.08530  0.91390  1.0000 0.1094790136
H   H20       1.0  0.08530  0.14030  0.58610  1.0000 0.1094790136
H   H21       1.0  0.85970  0.91470  0.08610  1.0000 0.1094790136
H   H22       1.0  0.91470  0.85970  0.41390  1.0000 0.1094790136
H   H23       1.0  0.10060  0.28700  0.91230  1.0000 0.1094790136
H   H24       1.0  0.28700  0.10060  0.58770  1.0000 0.1094790136
H   H25       1.0  0.89940  0.71300  0.08770  1.0000 0.1094790136
H   H26       1.0  0.71300  0.89940  0.41230  1.0000 0.1094790136
H   H27       1.0  0.14480  0.30800  0.57660  1.0000 0.1094790136
H   H28       1.0  0.30800  0.14480  0.92340  1.0000 0.1094790136
H   H29       1.0  0.85520  0.69200  0.42340  1.0000 0.1094790136
H   H30       1.0  0.69200  0.85520  0.07660  1.0000 0.1094790136
H   H31       1.0  0.82720  0.15720  0.91420  1.0000 0.1277870754
H   H32       1.0  0.15720  0.82720  0.58580  1.0000 0.1277870754
H   H33       1.0  0.17280  0.84280  0.08580  1.0000 0.1277870754
H   H34       1.0  0.84280  0.17280  0.41420  1.0000 0.1277870754
H   H35       1.0  0.19660  0.52400  0.90500  1.0000 0.1277870754
H   H36       1.0  0.52400  0.19660  0.59500  1.0000 0.1277870754
H   H37       1.0  0.80340  0.47600  0.09500  1.0000 0.1277870754
H   H38       1.0  0.47600  0.80340  0.40500  1.0000 0.1277870754
H   H39       1.0  0.83000  0.49020  0.58390  1.0000 0.1277870754
H   H40       1.0  0.49020  0.83000  0.91610  1.0000 0.1277870754
H   H41       1.0  0.17000  0.50980  0.41610  1.0000 0.1277870754
H   H42       1.0  0.50980  0.17000  0.08390  1.0000 0.1277870754
H   H43       1.0  0.95290  0.27950  0.13790  1.0000 0.1391772305
H   H44       1.0  0.27950  0.95290  0.36210  1.0000 0.1391772305
H   H45       1.0  0.04710  0.72050  0.86210  1.0000 0.1391772305
H   H46       1.0  0.72050  0.04710  0.63790  1.0000 0.1391772305
H   H47       1.0  0.74090  0.25370  0.02340  1.0000 0.1094790136
H   H48       1.0  0.25370  0.74090  0.47660  1.0000 0.1094790136
H   H49       1.0  0.25910  0.74630  0.97660  1.0000 0.1094790136
H   H50       1.0  0.74630  0.25910  0.52340  1.0000 0.1094790136
H   H51       1.0  0.30870  0.51610  0.01080  1.0000 0.1094790136
H   H52       1.0  0.51610  0.30870  0.48920  1.0000 0.1094790136
H   H53       1.0  0.69130  0.48390  0.98920  1.0000 0.1094790136
H   H54       1.0  0.48390  0.69130  0.51080  1.0000 0.1094790136
H   H55       1.0  0.32130  0.28870  0.13110  1.0000 0.1391772305
H   H56       1.0  0.28870  0.32130  0.36890  1.0000 0.1391772305
H   H57       1.0  0.67870  0.71130  0.86890  1.0000 0.1391772305
H   H58       1.0  0.71130  0.67870  0.63110  1.0000 0.1391772305
H   H59       1.0  0.73570  0.46070  0.48250  1.0000 0.1201642956
H   H60       1.0  0.46070  0.73570  0.01750  1.0000 0.1201642956
H   H61       1.0  0.26430  0.53930  0.51750  1.0000 0.1201642956
H   H62       1.0  0.53930  0.26430  0.98250  1.0000 0.1201642956
H   H63       1.0  0.94140  0.26960  0.35980  1.0000 0.1391772305
H   H64       1.0  0.26960  0.94140  0.14020  1.0000 0.1391772305
H   H65       1.0  0.05860  0.73040  0.64020  1.0000 0.1391772305
H   H66       1.0  0.73040  0.05860  0.85980  1.0000 0.1391772305
H   H67       1.0  0.80300  0.31220  0.13490  1.0000 0.1094790136
H   H68       1.0  0.31220  0.80300  0.36510  1.0000 0.1094790136
H   H69       1.0  0.19700  0.68780  0.86510  1.0000 0.1094790136
H   H70       1.0  0.68780  0.19700  0.63490  1.0000 0.1094790136
H   H71       1.0  0.37080  0.40020  0.12200  1.0000 0.1094790136
H   H72       1.0  0.40020  0.37080  0.37800  1.0000 0.1094790136
H   H73       1.0  0.62920  0.59980  0.87800  1.0000 0.1094790136
H   H74       1.0  0.59980  0.62920  0.62200  1.0000 0.1094790136
H   H75       1.0  0.79020  0.35420  0.37030  1.0000 0.1094790136
H   H76       1.0  0.35420  0.79020  0.12970  1.0000 0.1094790136
H   H77       1.0  0.20980  0.64580  0.62970  1.0000 0.1094790136
H   H78       1.0  0.64580  0.20980  0.87030  1.0000 0.1094790136
C   C1        1.0  0.90410  0.90410  0.75000  1.0000 0.5727149974
C   C2        1.0  0.09590  0.09590  0.25000  1.0000 0.5727149974
C   C3        1.0  0.90080  0.66980  0.75860  1.0000 0.577497689
C   C4        1.0  0.66980  0.90080  0.74140  1.0000 0.577497689
C   C5        1.0  0.09920  0.33020  0.24140  1.0000 0.577497689
C   C6        1.0  0.33020  0.09920  0.25860  1.0000 0.577497689
C   C7        1.0  0.95770  0.95770  0.75000  1.0000 0.0204035385
C   C8        1.0  0.04230  0.04230  0.25000  1.0000 0.0204035385
C   C9        1.0  0.96380  0.57380  0.75390  1.0000 0.0204035385
C   C10       1.0  0.57380  0.96380  0.74610  1.0000 0.0204035385
C   C11       1.0  0.03620  0.42620  0.24610  1.0000 0.0204035385
C   C12       1.0  0.42620  0.03620  0.25390  1.0000 0.0204035385
C   C13       1.0  0.95830  0.00690  0.82870  1.0000 -0.2093833593
C   C14       1.0  0.00690  0.95830  0.67130  1.0000 -0.2093833593
C   C15       1.0  0.04170  0.99310  0.17130  1.0000 -0.2093833593
C   C16       1.0  0.99310  0.04170  0.32870  1.0000 -0.2093833593
C   C17       1.0  0.02050  0.52970  0.83020  1.0000 -0.2093833593
C   C18       1.0  0.52970  0.02050  0.66980  1.0000 -0.2093833593
C   C19       1.0  0.97950  0.47030  0.16980  1.0000 -0.2093833593
C   C20       1.0  0.47030  0.97950  0.33020  1.0000 -0.2093833593
C   C21       1.0  0.96200  0.52840  0.67280  1.0000 -0.2016397361
C   C22       1.0  0.52840  0.96200  0.82720  1.0000 -0.2016397361
C   C23       1.0  0.03800  0.47160  0.32720  1.0000 -0.2016397361
C   C24       1.0  0.47160  0.03800  0.17280  1.0000 -0.2016397361
C   C25       1.0  0.00740  0.05640  0.82780  1.0000 0.1863911654
C   C26       1.0  0.05640  0.00740  0.67220  1.0000 0.1863911654
C   C27       1.0  0.99260  0.94360  0.17220  1.0000 0.1863911654
C   C28       1.0  0.94360  0.99260  0.32780  1.0000 0.1863911654
C   C29       1.0  0.07580  0.44120  0.82360  1.0000 0.1792186182
C   C30       1.0  0.44120  0.07580  0.67640  1.0000 0.1792186182
C   C31       1.0  0.92420  0.55880  0.17640  1.0000 0.1792186182
C   C32       1.0  0.55880  0.92420  0.32360  1.0000 0.1792186182
C   C33       1.0  0.01740  0.43980  0.66840  1.0000 0.1863911654
C   C34       1.0  0.43980  0.01740  0.83160  1.0000 0.1863911654
C   C35       1.0  0.98260  0.56020  0.33160  1.0000 0.1863911654
C   C36       1.0  0.56020  0.98260  0.16840  1.0000 0.1863911654
C   C37       1.0  0.05720  0.05720  0.75000  1.0000 -0.2910684217
C   C38       1.0  0.94280  0.94280  0.25000  1.0000 -0.2910684217
C   C39       1.0  0.07440  0.39560  0.74440  1.0000 -0.2730058004
C   C40       1.0  0.39560  0.07440  0.75560  1.0000 -0.2730058004
C   C41       1.0  0.92560  0.60440  0.25560  1.0000 -0.2730058004
C   C42       1.0  0.60440  0.92560  0.24440  1.0000 -0.2730058004
C   C43       1.0  0.08510  0.11430  0.93980  1.0000 0.1094790136
C   C44       1.0  0.11430  0.08510  0.56020  1.0000 0.1094790136
C   C45       1.0  0.91490  0.88570  0.06020  1.0000 0.1094790136
C   C46       1.0  0.88570  0.91490  0.43980  1.0000 0.1094790136
C   C47       1.0  0.94190  0.15890  0.96260  1.0000 0.0904099388
C   C48       1.0  0.15890  0.94190  0.53740  1.0000 0.0904099388
C   C49       1.0  0.05810  0.84110  0.03740  1.0000 0.0904099388
C   C50       1.0  0.84110  0.05810  0.46260  1.0000 0.0904099388
C   C51       1.0  0.19430  0.40930  0.95460  1.0000 0.0904099388
C   C52       1.0  0.40930  0.19430  0.54540  1.0000 0.0904099388
C   C53       1.0  0.80570  0.59070  0.04540  1.0000 0.0904099388
C   C54       1.0  0.59070  0.80570  0.45460  1.0000 0.0904099388
C   C55       1.0  0.13570  0.31350  0.93650  1.0000 0.1094790136
C   C56       1.0  0.31350  0.13570  0.56350  1.0000 0.1094790136
C   C57       1.0  0.86430  0.68650  0.06350  1.0000 0.1094790136
C   C58       1.0  0.68650  0.86430  0.43650  1.0000 0.1094790136
C   C59       1.0  0.94260  0.39540  0.53380  1.0000 0.0904099388
C   C60       1.0  0.39540  0.94260  0.96620  1.0000 0.0904099388
C   C61       1.0  0.05740  0.60460  0.46620  1.0000 0.0904099388
C   C62       1.0  0.60460  0.05740  0.03380  1.0000 0.0904099388
C   C63       1.0  0.08750  0.32430  0.55250  1.0000 0.1094790136
C   C64       1.0  0.32430  0.08750  0.94750  1.0000 0.1094790136
C   C65       1.0  0.91250  0.67570  0.44750  1.0000 0.1094790136
C   C66       1.0  0.67570  0.91250  0.05250  1.0000 0.1094790136
C   C67       1.0  0.98050  0.19690  0.02780  1.0000 0.1391772305
C   C68       1.0  0.19690  0.98050  0.47220  1.0000 0.1391772305
C   C69       1.0  0.01950  0.80310  0.97220  1.0000 0.1391772305
C   C70       1.0  0.80310  0.01950  0.52780  1.0000 0.1391772305
C   C71       1.0  0.85220  0.18080  0.95900  1.0000 -0.191248851
C   C72       1.0  0.18080  0.85220  0.54100  1.0000 -0.191248851
C   C73       1.0  0.14780  0.81920  0.04100  1.0000 -0.191248851
C   C74       1.0  0.81920  0.14780  0.45900  1.0000 -0.191248851
C   C75       1.0  0.22170  0.47730  0.94910  1.0000 -0.2016397361
C   C76       1.0  0.47730  0.22170  0.55090  1.0000 -0.2016397361
C   C77       1.0  0.77830  0.52270  0.05090  1.0000 -0.2016397361
C   C78       1.0  0.52270  0.77830  0.44910  1.0000 -0.2016397361
C   C79       1.0  0.23210  0.33770  0.02060  1.0000 0.1391772305
C   C80       1.0  0.33770  0.23210  0.47940  1.0000 0.1391772305
C   C81       1.0  0.76790  0.66230  0.97940  1.0000 0.1391772305
C   C82       1.0  0.66230  0.76790  0.52060  1.0000 0.1391772305
C   C83       1.0  0.85210  0.44610  0.54000  1.0000 -0.191248851
C   C84       1.0  0.44610  0.85210  0.96000  1.0000 -0.191248851
C   C85       1.0  0.14790  0.55390  0.46000  1.0000 -0.191248851
C   C86       1.0  0.55390  0.14790  0.04000  1.0000 -0.191248851
C   C87       1.0  0.97640  0.32760  0.46870  1.0000 0.1391772305
C   C88       1.0  0.32760  0.97640  0.03130  1.0000 0.1391772305
C   C89       1.0  0.02360  0.67240  0.53130  1.0000 0.1391772305
C   C90       1.0  0.67240  0.02360  0.96870  1.0000 0.1391772305
C   C91       1.0  0.92860  0.25480  0.09360  1.0000 -0.1603564863
C   C92       1.0  0.25480  0.92860  0.40640  1.0000 -0.1603564863
C   C93       1.0  0.07140  0.74520  0.90640  1.0000 -0.1603564863
C   C94       1.0  0.74520  0.07140  0.59360  1.0000 -0.1603564863
C   C95       1.0  0.80140  0.23820  0.02390  1.0000 -0.1092636092
C   C96       1.0  0.23820  0.80140  0.47610  1.0000 -0.1092636092
C   C97       1.0  0.19860  0.76180  0.97610  1.0000 -0.1092636092
C   C98       1.0  0.76180  0.19860  0.52390  1.0000 -0.1092636092
C   C99       1.0  0.28820  0.47180  0.01270  1.0000 -0.1019610894
C   C100      1.0  0.47180  0.28820  0.48730  1.0000 -0.1019610894
C   C101      1.0  0.71180  0.52820  0.98730  1.0000 -0.1019610894
C   C102      1.0  0.52820  0.71180  0.51270  1.0000 -0.1019610894
C   C103      1.0  0.29760  0.33440  0.08560  1.0000 -0.1683098134
C   C104      1.0  0.33440  0.29760  0.41440  1.0000 -0.1683098134
C   C105      1.0  0.70240  0.66560  0.91440  1.0000 -0.1683098134
C   C106      1.0  0.66560  0.70240  0.58560  1.0000 -0.1683098134
C   C107      1.0  0.79660  0.42860  0.47900  1.0000 -0.1092636092
C   C108      1.0  0.42860  0.79660  0.02100  1.0000 -0.1092636092
C   C109      1.0  0.20340  0.57140  0.52100  1.0000 -0.1092636092
C   C110      1.0  0.57140  0.20340  0.97900  1.0000 -0.1092636092
C   C111      1.0  0.91970  0.31250  0.40510  1.0000 -0.1683098134
C   C112      1.0  0.31250  0.91970  0.09490  1.0000 -0.1683098134
C   C113      1.0  0.08030  0.68750  0.59490  1.0000 -0.1683098134
C   C114      1.0  0.68750  0.08030  0.90510  1.0000 -0.1683098134
C   C115      1.0  0.83900  0.27420  0.09100  1.0000 -0.1248442773
C   C116      1.0  0.27420  0.83900  0.40900  1.0000 -0.1289214228
C   C117      1.0  0.16100  0.72580  0.90900  1.0000 -0.1289214228
C   C118      1.0  0.72580  0.16100  0.59100  1.0000 -0.1248442773
C   C119      1.0  0.32610  0.40150  0.08040  1.0000 -0.1289214228
C   C120      1.0  0.40150  0.32610  0.41960  1.0000 -0.1289214228
C   C121      1.0  0.67390  0.59850  0.91960  1.0000 -0.1289214228
C   C122      1.0  0.59850  0.67390  0.58040  1.0000 -0.1289214228
C   C123      1.0  0.82950  0.36350  0.41160  1.0000 -0.1289214228
C   C124      1.0  0.36350  0.82950  0.08840  1.0000 -0.1289214228
C   C125      1.0  0.17050  0.63650  0.58840  1.0000 -0.1289214228
C   C126      1.0  0.63650  0.17050  0.91160  1.0000 -0.1289214228
N   N1        1.0  0.80600  0.72220  0.99300  1.0000 -0.3491998036
N   N2        1.0  0.72220  0.80600  0.50700  1.0000 -0.3491998036
N   N3        1.0  0.19400  0.27780  0.00700  1.0000 -0.3491998036
N   N4        1.0  0.27780  0.19400  0.49300  1.0000 -0.3491998036
N   N5        1.0  0.71630  0.93210  0.98190  1.0000 -0.3592128922
N   N6        1.0  0.93210  0.71630  0.51810  1.0000 -0.3592128922
N   N7        1.0  0.28370  0.06790  0.01810  1.0000 -0.3592128922
N   N8        1.0  0.06790  0.28370  0.48190  1.0000 -0.3592128922
N   N9        1.0  0.92890  0.83250  0.98890  1.0000 -0.3491998036
N   N10       1.0  0.83250  0.92890  0.51110  1.0000 -0.3491998036
N   N11       1.0  0.07110  0.16750  0.01110  1.0000 -0.3491998036
N   N12       1.0  0.16750  0.07110  0.48890  1.0000 -0.3491998036
N   N13       1.0  0.01160  0.10520  0.90720  1.0000 -0.0577285219
N   N14       1.0  0.10520  0.01160  0.59280  1.0000 -0.0577285219
N   N15       1.0  0.98840  0.89480  0.09280  1.0000 -0.0577285219
N   N16       1.0  0.89480  0.98840  0.40720  1.0000 -0.0577285219
N   N17       1.0  0.13150  0.39250  0.90220  1.0000 -0.0577285219
N   N18       1.0  0.39250  0.13150  0.59780  1.0000 -0.0577285219
N   N19       1.0  0.86850  0.60750  0.09780  1.0000 -0.0577285219
N   N20       1.0  0.60750  0.86850  0.40220  1.0000 -0.0577285219
N   N21       1.0  0.01590  0.39190  0.58620  1.0000 -0.0577285219
N   N22       1.0  0.39190  0.01590  0.91380  1.0000 -0.0577285219
N   N23       1.0  0.98410  0.60810  0.41380  1.0000 -0.0577285219
N   N24       1.0  0.60810  0.98410  0.08620  1.0000 -0.0577285219
O   O1        1.0  0.84700  0.92000  0.81280  1.0000 -0.5576268677
O   O2        1.0  0.92000  0.84700  0.68720  1.0000 -0.5576268677
O   O3        1.0  0.15300  0.08000  0.18720  1.0000 -0.5576268677
O   O4        1.0  0.08000  0.15300  0.31280  1.0000 -0.5576268677
O   O5        1.0  0.91010  0.70910  0.83140  1.0000 -0.5576268677
O   O6        1.0  0.70910  0.91010  0.66860  1.0000 -0.5576268677
O   O7        1.0  0.08990  0.29090  0.16860  1.0000 -0.5576268677
O   O8        1.0  0.29090  0.08990  0.33140  1.0000 -0.5576268677
O   O9        1.0  0.70330  0.84490  0.80820  1.0000 -0.5484030415
O   O10       1.0  0.84490  0.70330  0.69180  1.0000 -0.5484030415
O   O11       1.0  0.29670  0.15510  0.19180  1.0000 -0.5484030415
O   O12       1.0  0.15510  0.29670  0.30820  1.0000 -0.5484030415
