# DDEC6 charges by PACMAN v1.1 (https://github.com/mtap-research/PACMAN-charge/)
data_2014[Cu][qtz]3[ASR]1
_chemical_formula_sum              "Cu3 H72 C108 N12 O24"
_cell_length_a       9.71652
_cell_length_b       9.71652
_cell_length_c       39.767
_cell_angle_alpha    89.5478
_cell_angle_beta     90.4522
_cell_angle_gamma    120.065

_symmetry_space_group_name_H-M    "P 1"
_symmetry_Int_Tables_number       1

loop_
  _symmetry_equiv_pos_as_xyz
  'x, y, z'

loop_
  _atom_site_type_symbol
  _atom_site_label
  _atom_site_symmetry_multiplicity
  _atom_site_fract_x
  _atom_site_fract_y
  _atom_site_fract_z
  _atom_site_occupancy
  _atom_site_charge
Cu  Cu1       1.0  0.93522  0.93522  0.00000  1.0000 0.2190746488
Cu  Cu2       1.0  0.73490  0.83536  0.33333  1.0000 0.2190746488
Cu  Cu3       1.0  0.83536  0.73490  0.66667  1.0000 0.2190746488
H   H1        1.0  0.36590  0.55150  0.47210  1.0000 0.1503212793
H   H2        1.0  0.55150  0.36590  0.52790  1.0000 0.1503212793
H   H3        1.0  0.29120  0.81000  0.40430  1.0000 0.121467369
H   H4        1.0  0.81000  0.29120  0.59570  1.0000 0.121467369
H   H5        1.0  0.42270  0.03550  0.43720  1.0000 0.1104760303
H   H6        1.0  0.03550  0.42270  0.56280  1.0000 0.1104760303
H   H7        1.0  0.54350  0.01850  0.48610  1.0000 0.1503212793
H   H8        1.0  0.01850  0.54350  0.51390  1.0000 0.1503212793
H   H9        1.0  0.84740  0.93100  0.61040  1.0000 0.0994868009
H   H10       1.0  0.93100  0.84740  0.38960  1.0000 0.0994868009
H   H11       1.0  0.72150  0.92510  0.56220  1.0000 0.1503212793
H   H12       1.0  0.92510  0.72150  0.43780  1.0000 0.1503212793
H   H13       1.0  0.40810  0.46930  0.58190  1.0000 0.1403838364
H   H14       1.0  0.46930  0.40810  0.41810  1.0000 0.1403838364
H   H15       1.0  0.55010  0.49730  0.63010  1.0000 0.0994868009
H   H16       1.0  0.49730  0.55010  0.36990  1.0000 0.0994868009
H   H17       1.0  0.65410  0.99270  0.38630  1.0000 0.1104760303
H   H18       1.0  0.99270  0.65410  0.61370  1.0000 0.1104760303
H   H19       1.0  0.77230  0.22250  0.41730  1.0000 0.1403838364
H   H20       1.0  0.22250  0.77230  0.58270  1.0000 0.1403838364
H   H21       1.0  0.18200  0.33760  0.37420  1.0000 0.1309306543
H   H22       1.0  0.33760  0.18200  0.62580  1.0000 0.1309306543
H   H23       1.0  0.04550  0.12510  0.33810  1.0000 0.0994868009
H   H24       1.0  0.12510  0.04550  0.66190  1.0000 0.0994868009
H   H25       1.0  0.01900  0.30840  0.13900  1.0000 0.1503212793
H   H26       1.0  0.30840  0.01900  0.86100  1.0000 0.1503212793
H   H27       1.0  0.31250  0.13010  0.15390  1.0000 0.1572248659
H   H28       1.0  0.13010  0.31250  0.84610  1.0000 0.1572248659
H   H29       1.0  0.42960  0.22780  0.10300  1.0000 0.1104760303
H   H30       1.0  0.22780  0.42960  0.89700  1.0000 0.1104760303
H   H31       1.0  0.36130  0.38750  0.07200  1.0000 0.121467369
H   H32       1.0  0.38750  0.36130  0.92800  1.0000 0.121467369
H   H33       1.0  0.91000  0.61960  0.00580  1.0000 0.0994868009
H   H34       1.0  0.61960  0.91000  0.99420  1.0000 0.0994868009
H   H35       1.0  0.99310  0.49070  0.04010  1.0000 0.1309306543
H   H36       1.0  0.49070  0.99310  0.95990  1.0000 0.1309306543
H   H37       1.0  0.27650  0.89930  0.08500  1.0000 0.1503212793
H   H38       1.0  0.89930  0.27650  0.91500  1.0000 0.1503212793
H   H39       1.0  0.18360  0.01600  0.05200  1.0000 0.1104760303
H   H40       1.0  0.01600  0.18360  0.94800  1.0000 0.1104760303
H   H41       1.0  0.91860  0.82480  0.27730  1.0000 0.0994868009
H   H42       1.0  0.82480  0.91860  0.72270  1.0000 0.0994868009
H   H43       1.0  0.02700  0.94280  0.22720  1.0000 0.1503212793
H   H44       1.0  0.94280  0.02700  0.77280  1.0000 0.1503212793
H   H45       1.0  0.89320  0.25840  0.24910  1.0000 0.1403838364
H   H46       1.0  0.25840  0.89320  0.75090  1.0000 0.1403838364
H   H47       1.0  0.77540  0.11760  0.29530  1.0000 0.0994868009
H   H48       1.0  0.11760  0.77540  0.70470  1.0000 0.0994868009
H   H49       1.0  0.65060  0.11880  0.19550  1.0000 0.1503212793
H   H50       1.0  0.11880  0.65060  0.80450  1.0000 0.1503212793
H   H51       1.0  0.36660  0.65660  0.17890  1.0000 0.1403838364
H   H52       1.0  0.65660  0.36660  0.82110  1.0000 0.1403838364
H   H53       1.0  0.23250  0.63450  0.23170  1.0000 0.1104760303
H   H54       1.0  0.63450  0.23250  0.76830  1.0000 0.1104760303
H   H55       1.0  0.30230  0.86950  0.25910  1.0000 0.121467369
H   H56       1.0  0.86950  0.30230  0.74090  1.0000 0.121467369
H   H57       1.0  0.89990  0.17390  0.03720  1.0000 0.0994868009
H   H58       1.0  0.17390  0.89990  0.96280  1.0000 0.0994868009
H   H59       1.0  0.77850  0.20010  0.08500  1.0000 0.1403838364
H   H60       1.0  0.20010  0.77850  0.91500  1.0000 0.1403838364
H   H61       1.0  0.62590  0.74190  0.10410  1.0000 0.1403838364
H   H62       1.0  0.74190  0.62590  0.89590  1.0000 0.1403838364
H   H63       1.0  0.75450  0.74010  0.05610  1.0000 0.0994868009
H   H64       1.0  0.74010  0.75450  0.94390  1.0000 0.0994868009
H   H65       1.0  0.49360  0.67700  0.28140  1.0000 0.0994868009
H   H66       1.0  0.67700  0.49360  0.71860  1.0000 0.0994868009
H   H67       1.0  0.39350  0.45690  0.24660  1.0000 0.1403838364
H   H68       1.0  0.45690  0.39350  0.75340  1.0000 0.1403838364
H   H69       1.0  0.66800  0.33080  0.29380  1.0000 0.1309306543
H   H70       1.0  0.33080  0.66800  0.70620  1.0000 0.1309306543
H   H71       1.0  0.76390  0.54150  0.32800  1.0000 0.0994868009
H   H72       1.0  0.54150  0.76390  0.67200  1.0000 0.0994868009
C   C1        1.0  0.45710  0.78410  0.48420  1.0000 0.2558182797
C   C2        1.0  0.78410  0.45710  0.51580  1.0000 0.2558182797
C   C3        1.0  0.37540  0.64780  0.46540  1.0000 -0.3337221124
C   C4        1.0  0.64780  0.37540  0.53460  1.0000 -0.3337221124
C   C5        1.0  0.30750  0.66390  0.43540  1.0000 0.241219925
C   C6        1.0  0.66390  0.30750  0.56460  1.0000 0.241219925
C   C7        1.0  0.33130  0.80310  0.42510  1.0000 -0.2277430349
C   C8        1.0  0.80310  0.33130  0.57490  1.0000 -0.2277430349
C   C9        1.0  0.41370  0.93970  0.44420  1.0000 -0.0714469829
C   C10       1.0  0.93970  0.41370  0.55580  1.0000 -0.0714469829
C   C11       1.0  0.48100  0.92800  0.47340  1.0000 -0.1916934578
C   C12       1.0  0.92800  0.48100  0.52660  1.0000 -0.1916934578
C   C13       1.0  0.75930  0.83550  0.60390  1.0000 0.0333112313
C   C14       1.0  0.83550  0.75930  0.39610  1.0000 0.0333112313
C   C15       1.0  0.68470  0.83410  0.57540  1.0000 -0.1591232025
C   C16       1.0  0.83410  0.68470  0.42460  1.0000 -0.1591232025
C   C17       1.0  0.55280  0.69500  0.56620  1.0000 0.0096581345
C   C18       1.0  0.69500  0.55280  0.43380  1.0000 0.0096581345
C   C19       1.0  0.49930  0.56510  0.58690  1.0000 -0.1725293991
C   C20       1.0  0.56510  0.49930  0.41310  1.0000 -0.1725293991
C   C21       1.0  0.58690  0.58330  0.61539  1.0000 0.0526772833
C   C22       1.0  0.58330  0.58690  0.38461  1.0000 0.0526772833
C   C23       1.0  0.45110  0.67750  0.53630  1.0000 0.5211005381
C   C24       1.0  0.67750  0.45110  0.46370  1.0000 0.5211005381
C   C25       1.0  0.76120  0.06580  0.38300  1.0000 0.0175265743
C   C26       1.0  0.06580  0.76120  0.61700  1.0000 0.0175265743
C   C27       1.0  0.83170  0.19930  0.40260  1.0000 -0.1591232025
C   C28       1.0  0.19930  0.83170  0.59740  1.0000 -0.1591232025
C   C29       1.0  0.99160  0.29720  0.39965  1.0000 0.0096581345
C   C30       1.0  0.29720  0.99160  0.60035  1.0000 0.0096581345
C   C31       1.0  0.07290  0.27050  0.37640  1.0000 -0.1778137588
C   C32       1.0  0.27050  0.07290  0.62360  1.0000 -0.1778137588
C   C33       1.0  0.99050  0.13930  0.35550  1.0000 0.0596050865
C   C34       1.0  0.13930  0.99050  0.64450  1.0000 0.0596050865
C   C35       1.0  0.06880  0.43980  0.42190  1.0000 0.5211005381
C   C36       1.0  0.43980  0.06880  0.57810  1.0000 0.5211005381
C   C37       1.0  0.19400  0.36700  0.10272  1.0000 0.241219925
C   C38       1.0  0.36700  0.19400  0.89728  1.0000 0.241219925
C   C39       1.0  0.10420  0.29740  0.13220  1.0000 -0.3577887991
C   C40       1.0  0.29740  0.10420  0.86780  1.0000 -0.3577887991
C   C41       1.0  0.16250  0.20610  0.15040  1.0000 0.2558182797
C   C42       1.0  0.20610  0.16250  0.84960  1.0000 0.2558182797
C   C43       1.0  0.27910  0.18670  0.14050  1.0000 -0.1916934578
C   C44       1.0  0.18670  0.27910  0.85950  1.0000 -0.1916934578
C   C45       1.0  0.35170  0.24830  0.11080  1.0000 -0.0614334603
C   C46       1.0  0.24830  0.35170  0.88920  1.0000 -0.0614334603
C   C47       1.0  0.30920  0.34200  0.09200  1.0000 -0.2398720511
C   C48       1.0  0.34200  0.30920  0.90800  1.0000 -0.2398720511
C   C49       1.0  0.98280  0.67600  0.02270  1.0000 0.0333112313
C   C50       1.0  0.67600  0.98280  0.97730  1.0000 0.0333112313
C   C51       1.0  0.03320  0.59940  0.04250  1.0000 -0.1916934578
C   C52       1.0  0.59940  0.03320  0.95750  1.0000 -0.1916934578
C   C53       1.0  0.14480  0.68360  0.06622  1.0000 0.0007277825
C   C54       1.0  0.68360  0.14480  0.93378  1.0000 0.0007277825
C   C55       1.0  0.19910  0.83990  0.06900  1.0000 -0.1591232025
C   C56       1.0  0.83990  0.19910  0.93100  1.0000 -0.1591232025
C   C57       1.0  0.14380  0.90740  0.04960  1.0000 0.0096581345
C   C58       1.0  0.90740  0.14380  0.95040  1.0000 0.0096581345
C   C59       1.0  0.20990  0.60230  0.08805  1.0000 0.5211005381
C   C60       1.0  0.60230  0.20990  0.91195  1.0000 0.5211005381
C   C61       1.0  0.91070  0.91250  0.27060  1.0000 0.0350304155
C   C62       1.0  0.91250  0.91070  0.72940  1.0000 0.0350304155
C   C63       1.0  0.98040  0.98360  0.24130  1.0000 -0.1591232025
C   C64       1.0  0.98360  0.98040  0.75870  1.0000 -0.1591232025
C   C65       1.0  0.97770  0.12010  0.23380  1.0000 0.0175265743
C   C66       1.0  0.12010  0.97770  0.76620  1.0000 0.0175265743
C   C67       1.0  0.89880  0.16780  0.25420  1.0000 -0.1778137588
C   C68       1.0  0.16780  0.89880  0.74580  1.0000 -0.1778137588
C   C69       1.0  0.82960  0.08360  0.28150  1.0000 0.0350304155
C   C70       1.0  0.08360  0.82960  0.71850  1.0000 0.0350304155
C   C71       1.0  0.05970  0.21950  0.20360  1.0000 0.5211005381
C   C72       1.0  0.21950  0.05970  0.79640  1.0000 0.5211005381
C   C73       1.0  0.48000  0.00880  0.23070  1.0000 0.2261799595
C   C74       1.0  0.00880  0.48000  0.76930  1.0000 0.2261799595
C   C75       1.0  0.56300  0.02260  0.20180  1.0000 -0.3107769468
C   C76       1.0  0.02260  0.56300  0.79820  1.0000 -0.3107769468
C   C77       1.0  0.51050  0.88770  0.18276  1.0000 0.2463047526
C   C78       1.0  0.88770  0.51050  0.81724  1.0000 0.2463047526
C   C79       1.0  0.39470  0.74570  0.19210  1.0000 -0.1985381224
C   C80       1.0  0.74570  0.39470  0.80790  1.0000 -0.1985381224
C   C81       1.0  0.31200  0.73200  0.22350  1.0000 -0.0786869505
C   C82       1.0  0.73200  0.31200  0.77650  1.0000 -0.0786869505
C   C83       1.0  0.35900  0.87180  0.24010  1.0000 -0.2096290083
C   C84       1.0  0.87180  0.35900  0.75990  1.0000 -0.2096290083
C   C85       1.0  0.84450  0.08610  0.05120  1.0000 0.0596050865
C   C86       1.0  0.08610  0.84450  0.94880  1.0000 0.0596050865
C   C87       1.0  0.77130  0.10330  0.08010  1.0000 -0.1488379815
C   C88       1.0  0.10330  0.77130  0.91990  1.0000 -0.1488379815
C   C89       1.0  0.69350  0.98050  0.09971  1.0000 0.0175265743
C   C90       1.0  0.98050  0.69350  0.90029  1.0000 0.0175265743
C   C91       1.0  0.68210  0.83310  0.09110  1.0000 -0.1725293991
C   C92       1.0  0.83310  0.68210  0.90890  1.0000 -0.1725293991
C   C93       1.0  0.75940  0.83460  0.06240  1.0000 0.0526772833
C   C94       1.0  0.83460  0.75940  0.93760  1.0000 0.0526772833
C   C95       1.0  0.60760  0.99000  0.13010  1.0000 0.5314679465
C   C96       1.0  0.99000  0.60760  0.86990  1.0000 0.5314679465
C   C97       1.0  0.53040  0.60560  0.28380  1.0000 0.0596050865
C   C98       1.0  0.60560  0.53040  0.71620  1.0000 0.0596050865
C   C99       1.0  0.46960  0.47400  0.26290  1.0000 -0.1725293991
C   C100      1.0  0.47400  0.46960  0.73710  1.0000 -0.1725293991
C   C101      1.0  0.52560  0.36880  0.26700  1.0000 -0.0048820393
C   C102      1.0  0.36880  0.52560  0.73300  1.0000 -0.0048820393
C   C103      1.0  0.63080  0.40160  0.29082  1.0000 -0.1725293991
C   C104      1.0  0.40160  0.63080  0.70918  1.0000 -0.1725293991
C   C105      1.0  0.69020  0.52720  0.31140  1.0000 0.0175265743
C   C106      1.0  0.52720  0.69020  0.68860  1.0000 0.0175265743
C   C107      1.0  0.46110  0.23130  0.24510  1.0000 0.4996027372
C   C108      1.0  0.23130  0.46110  0.75490  1.0000 0.4996027372
N   N1        1.0  0.71640  0.71100  0.62333  1.0000 -0.1916934578
N   N2        1.0  0.71100  0.71640  0.37667  1.0000 -0.1916934578
N   N3        1.0  0.84020  0.03560  0.35913  1.0000 -0.1916934578
N   N4        1.0  0.03560  0.84020  0.64087  1.0000 -0.1916934578
N   N5        1.0  0.03120  0.82900  0.02602  1.0000 -0.2277430349
N   N6        1.0  0.82900  0.03120  0.97398  1.0000 -0.2277430349
N   N7        1.0  0.83310  0.95670  0.29023  1.0000 -0.1916934578
N   N8        1.0  0.95670  0.83310  0.70977  1.0000 -0.1916934578
N   N9        1.0  0.83840  0.95700  0.04333  1.0000 -0.1778137588
N   N10       1.0  0.95700  0.83840  0.95667  1.0000 -0.1778137588
N   N11       1.0  0.63920  0.63240  0.30703  1.0000 -0.2096290083
N   N12       1.0  0.63240  0.63920  0.69297  1.0000 -0.2096290083
O   O1        1.0  0.53290  0.77830  0.51332  1.0000 -0.2495984414
O   O2        1.0  0.77830  0.53290  0.48668  1.0000 -0.2495984414
O   O3        1.0  0.31280  0.58920  0.53580  1.0000 -0.4609881767
O   O4        1.0  0.58920  0.31280  0.46420  1.0000 -0.4609881767
O   O5        1.0  0.21990  0.52370  0.41757  1.0000 -0.2688604274
O   O6        1.0  0.52370  0.21990  0.58243  1.0000 -0.2688604274
O   O7        1.0  0.99660  0.47460  0.44170  1.0000 -0.4510649198
O   O8        1.0  0.47460  0.99660  0.55830  1.0000 -0.4510649198
O   O9        1.0  0.14000  0.44960  0.08344  1.0000 -0.2639766761
O   O10       1.0  0.44960  0.14000  0.91656  1.0000 -0.2639766761
O   O11       1.0  0.30890  0.66970  0.10830  1.0000 -0.4094612875
O   O12       1.0  0.66970  0.30890  0.89170  1.0000 -0.4094612875
O   O13       1.0  0.10690  0.35910  0.20240  1.0000 -0.4510649198
O   O14       1.0  0.35910  0.10690  0.79760  1.0000 -0.4510649198
O   O15       1.0  0.08280  0.13660  0.17975  1.0000 -0.2398720511
O   O16       1.0  0.13660  0.08280  0.82025  1.0000 -0.2398720511
O   O17       1.0  0.59160  0.89180  0.15332  1.0000 -0.2688604274
O   O18       1.0  0.89180  0.59160  0.84668  1.0000 -0.2688604274
O   O19       1.0  0.55970  0.08510  0.13130  1.0000 -0.4945279339
O   O20       1.0  0.08510  0.55970  0.86870  1.0000 -0.4952709356
O   O21       1.0  0.53010  0.14430  0.25057  1.0000 -0.2688604274
O   O22       1.0  0.14430  0.53010  0.74943  1.0000 -0.2688604274
O   O23       1.0  0.36050  0.19690  0.22470  1.0000 -0.4094612875
O   O24       1.0  0.19690  0.36050  0.77530  1.0000 -0.4094612875
