# DDEC6 charges by PACMAN v1.1 (https://github.com/mtap-research/PACMAN-charge/)
data_2014[Zn][nan]3[ASR]9
_chemical_formula_sum              "Zn4 H20 C18 N32 O4"
_cell_length_a       11.1456
_cell_length_b       11.1456
_cell_length_c       10.986
_cell_angle_alpha    90
_cell_angle_beta     90
_cell_angle_gamma    128.422

_symmetry_space_group_name_H-M    "P 1"
_symmetry_Int_Tables_number       1

loop_
  _symmetry_equiv_pos_as_xyz
  'x, y, z'

loop_
  _atom_site_type_symbol
  _atom_site_label
  _atom_site_symmetry_multiplicity
  _atom_site_fract_x
  _atom_site_fract_y
  _atom_site_fract_z
  _atom_site_occupancy
  _atom_site_charge
Zn  Zn1       1.0  0.22035  0.51523  0.50703  1.0000 0.6801851464
Zn  Zn2       1.0  0.77965  0.48477  0.00703  1.0000 0.6801851464
Zn  Zn3       1.0  0.51523  0.22035  0.50703  1.0000 0.6801851464
Zn  Zn4       1.0  0.48477  0.77965  0.00703  1.0000 0.6801851464
H   H1        1.0  0.42520  0.91980  0.27200  1.0000 0.146790318
H   H2        1.0  0.57480  0.08020  0.77200  1.0000 0.146790318
H   H3        1.0  0.91980  0.42520  0.27200  1.0000 0.146790318
H   H4        1.0  0.08020  0.57480  0.77200  1.0000 0.146790318
H   H5        1.0  0.57050  0.03070  0.35280  1.0000 0.1407600576
H   H6        1.0  0.42950  0.96930  0.85280  1.0000 0.1407600576
H   H7        1.0  0.03070  0.57050  0.35280  1.0000 0.1407600576
H   H8        1.0  0.96930  0.42950  0.85280  1.0000 0.1407600576
H   H9        1.0  0.55160  0.80720  0.40650  1.0000 0.1407600576
H   H10       1.0  0.44840  0.19280  0.90650  1.0000 0.1407600576
H   H11       1.0  0.80720  0.55160  0.40650  1.0000 0.1407600576
H   H12       1.0  0.19280  0.44840  0.90650  1.0000 0.1407600576
H   H13       1.0  0.61360  0.87520  0.27630  1.0000 0.1407600576
H   H14       1.0  0.38640  0.12480  0.77630  1.0000 0.1407600576
H   H15       1.0  0.87520  0.61360  0.27630  1.0000 0.1407600576
H   H16       1.0  0.12480  0.38640  0.77630  1.0000 0.1407600576
H   H17       1.0  0.37390  0.37390  0.60730  1.0000 0.1338759882
H   H18       1.0  0.62610  0.62610  0.10730  1.0000 0.1338759882
H   H19       1.0  0.38120  0.38120  0.46620  1.0000 0.1407600576
H   H20       1.0  0.61880  0.61880  0.96620  1.0000 0.1407600576
C   C1        1.0  0.37823  0.88717  0.45180  1.0000 0.3312061427
C   C2        1.0  0.62177  0.11283  0.95180  1.0000 0.3312061427
C   C3        1.0  0.88717  0.37823  0.45180  1.0000 0.3312061427
C   C4        1.0  0.11283  0.62177  0.95180  1.0000 0.3312061427
C   C5        1.0  0.47795  0.92565  0.34480  1.0000 -0.2168838384
C   C6        1.0  0.52205  0.07435  0.84480  1.0000 -0.2168838384
C   C7        1.0  0.92565  0.47795  0.34480  1.0000 -0.2168838384
C   C8        1.0  0.07435  0.52205  0.84480  1.0000 -0.2168838384
C   C9        1.0  0.52353  0.82247  0.32780  1.0000 -0.2318274865
C   C10       1.0  0.47647  0.17753  0.82780  1.0000 -0.2318274865
C   C11       1.0  0.82247  0.52353  0.32780  1.0000 -0.2318274865
C   C12       1.0  0.17753  0.47647  0.82780  1.0000 -0.2318274865
C   C13       1.0  0.40222  0.66858  0.27310  1.0000 0.3312061427
C   C14       1.0  0.59778  0.33142  0.77310  1.0000 0.3247515483
C   C15       1.0  0.66858  0.40222  0.27310  1.0000 0.3247515483
C   C16       1.0  0.33142  0.59778  0.77310  1.0000 0.3312061427
C   C17       1.0  0.31760  0.31760  0.53430  1.0000 0.3312061427
C   C18       1.0  0.68240  0.68240  0.03430  1.0000 0.3312061427
N   N1        1.0  0.26743  0.74577  0.49330  1.0000 -0.2907775419
N   N2        1.0  0.73257  0.25423  0.99330  1.0000 -0.2907775419
N   N3        1.0  0.74577  0.26743  0.49330  1.0000 -0.2907775419
N   N4        1.0  0.25423  0.73257  0.99330  1.0000 -0.2907775419
N   N5        1.0  0.20387  0.76553  0.59040  1.0000 -0.0770476611
N   N6        1.0  0.79613  0.23447  0.09040  1.0000 -0.0770476611
N   N7        1.0  0.76553  0.20387  0.59040  1.0000 -0.0770476611
N   N8        1.0  0.23447  0.79613  0.09040  1.0000 -0.0770476611
N   N9        1.0  0.27261  0.91139  0.60370  1.0000 -0.0591387341
N   N10       1.0  0.72739  0.08861  0.10370  1.0000 -0.0591387341
N   N11       1.0  0.91139  0.27261  0.60370  1.0000 -0.0591387341
N   N12       1.0  0.08861  0.72739  0.10370  1.0000 -0.0591387341
N   N13       1.0  0.38367  0.99053  0.51680  1.0000 -0.2571600901
N   N14       1.0  0.61633  0.00947  0.01680  1.0000 -0.2571600901
N   N15       1.0  0.99053  0.38367  0.51680  1.0000 -0.2571600901
N   N16       1.0  0.00947  0.61633  0.01680  1.0000 -0.2571600901
N   N17       1.0  0.29570  0.54350  0.33380  1.0000 -0.2794054823
N   N18       1.0  0.70430  0.45650  0.83380  1.0000 -0.2794054823
N   N19       1.0  0.54350  0.29570  0.33380  1.0000 -0.2794054823
N   N20       1.0  0.45650  0.70430  0.83380  1.0000 -0.2794054823
N   N21       1.0  0.21047  0.43093  0.24830  1.0000 -0.0591387341
N   N22       1.0  0.78953  0.56907  0.74830  1.0000 -0.0591387341
N   N23       1.0  0.43093  0.21047  0.24830  1.0000 -0.0591387341
N   N24       1.0  0.56907  0.78953  0.74830  1.0000 -0.0591387341
N   N25       1.0  0.26580  0.48800  0.14200  1.0000 -0.0719439836
N   N26       1.0  0.73420  0.51200  0.64200  1.0000 -0.0719439836
N   N27       1.0  0.48800  0.26580  0.14200  1.0000 -0.0719439836
N   N28       1.0  0.51200  0.73420  0.64200  1.0000 -0.0719439836
N   N29       1.0  0.38827  0.63853  0.15480  1.0000 -0.2737849804
N   N30       1.0  0.61173  0.36147  0.65480  1.0000 -0.2737849804
N   N31       1.0  0.63853  0.38827  0.15480  1.0000 -0.2737849804
N   N32       1.0  0.36147  0.61173  0.65480  1.0000 -0.2737849804
O   O1        1.0  0.20423  0.31437  0.53200  1.0000 -0.3942531871
O   O2        1.0  0.79577  0.68563  0.03200  1.0000 -0.3942531871
O   O3        1.0  0.31437  0.20423  0.53200  1.0000 -0.3942531871
O   O4        1.0  0.68563  0.79577  0.03200  1.0000 -0.3942531871
