# DDEC6 charges by PACMAN v1.1 (https://github.com/mtap-research/PACMAN-charge/)
data_2014[Eu][pcu]3[ASR]1
_chemical_formula_sum              "Eu2 H18 C48 O16"
_cell_length_a       10.2187
_cell_length_b       11.5176
_cell_length_c       16.3127
_cell_angle_alpha    82.71
_cell_angle_beta     75.911
_cell_angle_gamma    77.542

_symmetry_space_group_name_H-M    "P 1"
_symmetry_Int_Tables_number       1

loop_
  _symmetry_equiv_pos_as_xyz
  'x, y, z'

loop_
  _atom_site_type_symbol
  _atom_site_label
  _atom_site_symmetry_multiplicity
  _atom_site_fract_x
  _atom_site_fract_y
  _atom_site_fract_z
  _atom_site_occupancy
  _atom_site_charge
Eu  Eu1       1.0  0.33850  0.12977  0.47841  1.0000 2.0787405355
Eu  Eu2       1.0  0.66150  0.87023  0.52159  1.0000 2.0787405355
H   H1        1.0  0.37660  0.98640  0.22760  1.0000 0.1305676322
H   H2        1.0  0.62340  0.01360  0.77240  1.0000 0.1305676322
H   H3        1.0  0.56380  0.74270  0.06180  1.0000 0.1305676322
H   H4        1.0  0.43620  0.25730  0.93820  1.0000 0.1305676322
H   H5        1.0  0.69400  0.73530  0.27340  1.0000 0.1120960323
H   H6        1.0  0.30600  0.26470  0.72660  1.0000 0.1120960323
H   H7        1.0  0.71530  0.52900  0.25060  1.0000 0.1237130894
H   H8        1.0  0.28470  0.47100  0.74940  1.0000 0.1237130894
H   H9        1.0  0.68340  0.31250  0.27720  1.0000 0.1305676322
H   H10       1.0  0.31660  0.68750  0.72280  1.0000 0.1305676322
H   H11       1.0  0.88710  0.09250  0.43520  1.0000 0.1440047754
H   H12       1.0  0.11290  0.90750  0.56480  1.0000 0.1440047754
H   H13       1.0  0.07560  0.31610  0.26250  1.0000 0.1305676322
H   H14       1.0  0.92440  0.68390  0.73750  1.0000 0.1305676322
H   H15       1.0  0.07050  0.23980  0.12520  1.0000 0.1305676322
H   H16       1.0  0.92950  0.76020  0.87480  1.0000 0.1305676322
H   H17       1.0  0.78280  0.77370  0.00210  1.0000 0.1305676322
H   H18       1.0  0.21720  0.22630  0.99790  1.0000 0.1305676322
C   C1        1.0  0.51430  0.91010  0.35030  1.0000 0.6589594169
C   C2        1.0  0.48570  0.08990  0.64970  1.0000 0.6589594169
C   C3        1.0  0.53130  0.86720  0.26600  1.0000 -0.0360667865
C   C4        1.0  0.46870  0.13280  0.73400  1.0000 -0.0360667865
C   C5        1.0  0.44370  0.91970  0.21180  1.0000 -0.0824923681
C   C6        1.0  0.55630  0.08030  0.78820  1.0000 -0.0824923681
C   C7        1.0  0.45520  0.87460  0.13580  1.0000 -0.0137109758
C   C8        1.0  0.54480  0.12540  0.86420  1.0000 -0.0137109758
C   C9        1.0  0.55760  0.77510  0.11230  1.0000 -0.1100290608
C   C10       1.0  0.44240  0.22490  0.88770  1.0000 -0.1100290608
C   C11       1.0  0.64800  0.72480  0.16090  1.0000 0.0547358005
C   C12       1.0  0.35200  0.27520  0.83910  1.0000 0.0547358005
C   C13       1.0  0.63360  0.77050  0.23900  1.0000 -0.1307982111
C   C14       1.0  0.36640  0.22950  0.76100  1.0000 -0.1307982111
C   C15       1.0  0.75990  0.61770  0.13700  1.0000 0.0421704336
C   C16       1.0  0.24010  0.38230  0.86300  1.0000 0.0421704336
C   C17       1.0  0.84900  0.60960  0.05730  1.0000 0.0318025334
C   C18       1.0  0.15100  0.39040  0.94270  1.0000 0.0318025334
C   C19       1.0  0.95320  0.50590  0.04090  1.0000 0.0076453094
C   C20       1.0  0.04680  0.49410  0.95910  1.0000 0.0076453094
C   C21       1.0  0.96530  0.40910  0.10480  1.0000 0.0318025334
C   C22       1.0  0.03470  0.59090  0.89520  1.0000 0.0318025334
C   C23       1.0  0.87610  0.42210  0.18500  1.0000 0.0318025334
C   C24       1.0  0.12390  0.57790  0.81500  1.0000 0.0318025334
C   C25       1.0  0.77590  0.52350  0.19790  1.0000 -0.1989646719
C   C26       1.0  0.22410  0.47650  0.80210  1.0000 -0.1989646719
C   C27       1.0  0.88060  0.32630  0.25660  1.0000 0.0592105931
C   C28       1.0  0.11940  0.67370  0.74340  1.0000 0.0592105931
C   C29       1.0  0.76400  0.28290  0.29600  1.0000 -0.1307982111
C   C30       1.0  0.23600  0.71710  0.70400  1.0000 -0.1307982111
C   C31       1.0  0.76330  0.19440  0.36450  1.0000 -0.0360667865
C   C32       1.0  0.23670  0.80560  0.63550  1.0000 -0.0346092244
C   C33       1.0  0.88420  0.15270  0.39150  1.0000 -0.0893602388
C   C34       1.0  0.11580  0.84730  0.60850  1.0000 -0.0893602388
C   C35       1.0  0.00030  0.19870  0.35520  1.0000 0.0076453094
C   C36       1.0  0.99970  0.80130  0.64480  1.0000 0.0076453094
C   C37       1.0  0.99690  0.28530  0.28740  1.0000 -0.1199092882
C   C38       1.0  0.00310  0.71470  0.71260  1.0000 -0.1199092882
C   C39       1.0  0.63320  0.15580  0.40510  1.0000 0.6353493316
C   C40       1.0  0.36680  0.84420  0.59490  1.0000 0.6353493316
C   C41       1.0  0.12470  0.16440  0.39190  1.0000 0.5731021448
C   C42       1.0  0.87530  0.83560  0.60810  1.0000 0.5731021448
C   C43       1.0  0.06530  0.30430  0.08480  1.0000 -0.1199092882
C   C44       1.0  0.93470  0.69570  0.91520  1.0000 -0.1199092882
C   C45       1.0  0.84720  0.70360  0.99170  1.0000 -0.1100290608
C   C46       1.0  0.15280  0.29640  0.00830  1.0000 -0.104342656
C   C47       1.0  0.35760  0.92960  0.08290  1.0000 0.5171603842
C   C48       1.0  0.64240  0.07040  0.91710  1.0000 0.5171603842
O   O1        1.0  0.43050  0.00480  0.36690  1.0000 -0.6371610181
O   O2        1.0  0.56950  0.99520  0.63310  1.0000 -0.6371610181
O   O3        1.0  0.58680  0.84960  0.39840  1.0000 -0.6887421624
O   O4        1.0  0.41320  0.15040  0.60160  1.0000 -0.6887421624
O   O5        1.0  0.26830  0.01740  0.10020  1.0000 -0.4624668674
O   O6        1.0  0.73170  0.98260  0.89980  1.0000 -0.4624668674
O   O7        1.0  0.37210  0.87860  0.01340  1.0000 -0.4110002236
O   O8        1.0  0.62790  0.12140  0.98660  1.0000 -0.415625395
O   O9        1.0  0.52400  0.21680  0.39300  1.0000 -0.5880514995
O   O10       1.0  0.47600  0.78320  0.60700  1.0000 -0.5880514995
O   O11       1.0  0.63600  0.06210  0.45320  1.0000 -0.7087200598
O   O12       1.0  0.36400  0.93790  0.54680  1.0000 -0.7087200598
O   O13       1.0  0.13730  0.07480  0.44220  1.0000 -0.5880514995
O   O14       1.0  0.86270  0.92520  0.55780  1.0000 -0.5880514995
O   O15       1.0  0.21350  0.23050  0.37220  1.0000 -0.6322776692
O   O16       1.0  0.78650  0.76950  0.62780  1.0000 -0.6322776692
