# DDEC6 charges by PACMAN v1.1 (https://github.com/mtap-research/PACMAN-charge/)
data_2014[Fe][nan]3[ASR]4
_chemical_formula_sum              "Fe6 H6 C24 O18"
_cell_length_a       15.2319
_cell_length_b       15.2319
_cell_length_c       15.2319
_cell_angle_alpha    117.776
_cell_angle_beta     117.776
_cell_angle_gamma    117.776

_symmetry_space_group_name_H-M    "P 1"
_symmetry_Int_Tables_number       1

loop_
  _symmetry_equiv_pos_as_xyz
  'x, y, z'

loop_
  _atom_site_type_symbol
  _atom_site_label
  _atom_site_symmetry_multiplicity
  _atom_site_fract_x
  _atom_site_fract_y
  _atom_site_fract_z
  _atom_site_occupancy
  _atom_site_charge
Fe  Fe1       1.0  0.10370  0.52040  0.77850  1.0000 0.9359782184
Fe  Fe2       1.0  0.52040  0.77850  0.10370  1.0000 0.9359782184
Fe  Fe3       1.0  0.77850  0.10370  0.52040  1.0000 0.9359782184
Fe  Fe4       1.0  0.89630  0.47960  0.22150  1.0000 0.9359782184
Fe  Fe5       1.0  0.47960  0.22150  0.89630  1.0000 0.9359782184
Fe  Fe6       1.0  0.22150  0.89630  0.47960  1.0000 0.9359782184
H   H1        1.0  0.66970  0.19950  0.64540  1.0000 0.1426811064
H   H2        1.0  0.19950  0.64540  0.66970  1.0000 0.1426811064
H   H3        1.0  0.64540  0.66970  0.19950  1.0000 0.1426811064
H   H4        1.0  0.33030  0.80050  0.35460  1.0000 0.1426811064
H   H5        1.0  0.80050  0.35460  0.33030  1.0000 0.1426811064
H   H6        1.0  0.35460  0.33030  0.80050  1.0000 0.1426811064
C   C1        1.0  0.34910  0.74090  0.17090  1.0000 0.624812071
C   C2        1.0  0.74090  0.17090  0.34910  1.0000 0.624812071
C   C3        1.0  0.17090  0.34910  0.74090  1.0000 0.624812071
C   C4        1.0  0.65090  0.25910  0.82910  1.0000 0.624812071
C   C5        1.0  0.25910  0.82910  0.65090  1.0000 0.624812071
C   C6        1.0  0.82910  0.65090  0.25910  1.0000 0.624812071
C   C7        1.0  0.99260  0.45820  0.90080  1.0000 0.2368729034
C   C8        1.0  0.45820  0.90080  0.99260  1.0000 0.2368729034
C   C9        1.0  0.90080  0.99260  0.45820  1.0000 0.2368729034
C   C10       1.0  0.00740  0.54180  0.09920  1.0000 0.2368729034
C   C11       1.0  0.54180  0.09920  0.00740  1.0000 0.2368729034
C   C12       1.0  0.09920  0.00740  0.54180  1.0000 0.2368729034
C   C13       1.0  0.18400  0.61600  0.10090  1.0000 -0.1303930015
C   C14       1.0  0.61600  0.10090  0.18400  1.0000 -0.1303930015
C   C15       1.0  0.10090  0.18400  0.61600  1.0000 -0.1303930015
C   C16       1.0  0.81600  0.38400  0.89910  1.0000 -0.1303930015
C   C17       1.0  0.38400  0.89910  0.81600  1.0000 -0.1303930015
C   C18       1.0  0.89910  0.81600  0.38400  1.0000 -0.1303930015
C   C19       1.0  0.81220  0.32060  0.79370  1.0000 -0.2022752618
C   C20       1.0  0.32060  0.79370  0.81220  1.0000 -0.2022752618
C   C21       1.0  0.79370  0.81220  0.32060  1.0000 -0.2022752618
C   C22       1.0  0.18780  0.67940  0.20630  1.0000 -0.2022752618
C   C23       1.0  0.67940  0.20630  0.18780  1.0000 -0.2022752618
C   C24       1.0  0.20630  0.18780  0.67940  1.0000 -0.2022752618
O   O1        1.0  0.34070  0.69530  0.07310  1.0000 -0.5482520119
O   O2        1.0  0.69530  0.07310  0.34070  1.0000 -0.5482520119
O   O3        1.0  0.07310  0.34070  0.69530  1.0000 -0.5482520119
O   O4        1.0  0.65930  0.30470  0.92690  1.0000 -0.5482520119
O   O5        1.0  0.30470  0.92690  0.65930  1.0000 -0.5482520119
O   O6        1.0  0.92690  0.65930  0.30470  1.0000 -0.5482520119
O   O7        1.0  0.91930  0.36710  0.74300  1.0000 -0.5482520119
O   O8        1.0  0.36710  0.74300  0.91930  1.0000 -0.5482520119
O   O9        1.0  0.74300  0.91930  0.36710  1.0000 -0.5482520119
O   O10       1.0  0.08070  0.63290  0.25700  1.0000 -0.5482520119
O   O11       1.0  0.63290  0.25700  0.08070  1.0000 -0.5482520119
O   O12       1.0  0.25700  0.08070  0.63290  1.0000 -0.5482520119
O   O13       1.0  0.89370  0.36100  0.51640  1.0000 -0.5111720121
O   O14       1.0  0.36100  0.51640  0.89370  1.0000 -0.5111720121
O   O15       1.0  0.51640  0.89370  0.36100  1.0000 -0.5111720121
O   O16       1.0  0.10630  0.63900  0.48360  1.0000 -0.5111720121
O   O17       1.0  0.63900  0.48360  0.10630  1.0000 -0.5111720121
O   O18       1.0  0.48360  0.10630  0.63900  1.0000 -0.5111720121
