# DDEC6 charges by PACMAN v1.1 (https://github.com/mtap-research/PACMAN-charge/)
data_2014[Cu][bcu]3[ASR]8
_chemical_formula_sum              "Cu6 H32 C48 N52"
_cell_length_a       13.261
_cell_length_b       15.134
_cell_length_c       19.8181
_cell_angle_alpha    90
_cell_angle_beta     128.458
_cell_angle_gamma    90

_symmetry_space_group_name_H-M    "P 1"
_symmetry_Int_Tables_number       1

loop_
  _symmetry_equiv_pos_as_xyz
  'x, y, z'

loop_
  _atom_site_type_symbol
  _atom_site_label
  _atom_site_symmetry_multiplicity
  _atom_site_fract_x
  _atom_site_fract_y
  _atom_site_fract_z
  _atom_site_occupancy
  _atom_site_charge
Cu  Cu1       1.0  0.00000  0.00000  0.00000  1.0000 0.5981778938
Cu  Cu2       1.0  0.00000  0.50000  0.50000  1.0000 0.5981778938
Cu  Cu3       1.0  0.15269  0.18875  0.10240  1.0000 0.5271125127
Cu  Cu4       1.0  0.84731  0.68875  0.39760  1.0000 0.5271125127
Cu  Cu5       1.0  0.84731  0.81125  0.89760  1.0000 0.5271125127
Cu  Cu6       1.0  0.15269  0.31125  0.60240  1.0000 0.5271125127
H   H1        1.0  0.20280  0.38060  0.76250  1.0000 0.1100129548
H   H2        1.0  0.79720  0.88060  0.73750  1.0000 0.1100129548
H   H3        1.0  0.79720  0.61940  0.23750  1.0000 0.1100129548
H   H4        1.0  0.20280  0.11940  0.26250  1.0000 0.1100129548
H   H5        1.0  0.19280  0.33280  0.86770  1.0000 0.1428081158
H   H6        1.0  0.80720  0.83280  0.63230  1.0000 0.1428081158
H   H7        1.0  0.80720  0.66720  0.13230  1.0000 0.1428081158
H   H8        1.0  0.19280  0.16720  0.36770  1.0000 0.1428081158
H   H9        1.0  0.07340  0.09780  0.75070  1.0000 0.1473224524
H   H10       1.0  0.92660  0.59780  0.74930  1.0000 0.1473224524
H   H11       1.0  0.92660  0.90220  0.24930  1.0000 0.1473224524
H   H12       1.0  0.07340  0.40220  0.25070  1.0000 0.1473224524
H   H13       1.0  0.08560  0.15310  0.64890  1.0000 0.1100129548
H   H14       1.0  0.91440  0.65310  0.85110  1.0000 0.1100129548
H   H15       1.0  0.91440  0.84690  0.35110  1.0000 0.1100129548
H   H16       1.0  0.08560  0.34690  0.14890  1.0000 0.1100129548
H   H17       1.0  0.42430  0.31290  0.75340  1.0000 0.1100129548
H   H18       1.0  0.57570  0.81290  0.74660  1.0000 0.1100129548
H   H19       1.0  0.57570  0.68710  0.24660  1.0000 0.1100129548
H   H20       1.0  0.42430  0.18710  0.25340  1.0000 0.1100129548
H   H21       1.0  0.60120  0.22480  0.82770  1.0000 0.1473224524
H   H22       1.0  0.39880  0.72480  0.67230  1.0000 0.1473224524
H   H23       1.0  0.39880  0.77520  0.17230  1.0000 0.1473224524
H   H24       1.0  0.60120  0.27520  0.32770  1.0000 0.1473224524
H   H25       1.0  0.39820  0.04280  0.64330  1.0000 0.1428081158
H   H26       1.0  0.60180  0.54280  0.85670  1.0000 0.1428081158
H   H27       1.0  0.60180  0.95720  0.35670  1.0000 0.1428081158
H   H28       1.0  0.39820  0.45720  0.14330  1.0000 0.1428081158
H   H29       1.0  0.22950  0.13850  0.57400  1.0000 0.1100129548
H   H30       1.0  0.77050  0.63850  0.92600  1.0000 0.1100129548
H   H31       1.0  0.77050  0.86150  0.42600  1.0000 0.1100129548
H   H32       1.0  0.22950  0.36150  0.07400  1.0000 0.1100129548
C   C1        1.0  0.17680  0.32290  0.76040  1.0000 0.0699822193
C   C2        1.0  0.82320  0.82290  0.73960  1.0000 0.0699822193
C   C3        1.0  0.82320  0.67710  0.23960  1.0000 0.0699822193
C   C4        1.0  0.17680  0.17710  0.26040  1.0000 0.0699822193
C   C5        1.0  0.17110  0.29440  0.82380  1.0000 -0.1662665468
C   C6        1.0  0.82890  0.79440  0.67620  1.0000 -0.1662665468
C   C7        1.0  0.82890  0.70560  0.17620  1.0000 -0.1662665468
C   C8        1.0  0.17110  0.20560  0.32380  1.0000 -0.1662665468
C   C9        1.0  0.13380  0.21010  0.82260  1.0000 0.0873060225
C   C10       1.0  0.86620  0.71010  0.67740  1.0000 0.0873060225
C   C11       1.0  0.86620  0.78990  0.17740  1.0000 0.0873060225
C   C12       1.0  0.13380  0.28990  0.32260  1.0000 0.0873060225
C   C13       1.0  0.10030  0.15560  0.75470  1.0000 -0.1609914035
C   C14       1.0  0.89970  0.65560  0.74530  1.0000 -0.1609914035
C   C15       1.0  0.89970  0.84440  0.24530  1.0000 -0.1609914035
C   C16       1.0  0.10030  0.34440  0.25470  1.0000 -0.1609914035
C   C17       1.0  0.10830  0.18960  0.69420  1.0000 0.061247335
C   C18       1.0  0.89170  0.68960  0.80580  1.0000 0.061247335
C   C19       1.0  0.89170  0.81040  0.30580  1.0000 0.061247335
C   C20       1.0  0.10830  0.31040  0.19420  1.0000 0.061247335
C   C21       1.0  0.12340  0.17680  0.88660  1.0000 0.2122258085
C   C22       1.0  0.87660  0.67680  0.61340  1.0000 0.2122258085
C   C23       1.0  0.87660  0.82320  0.11340  1.0000 0.2122258085
C   C24       1.0  0.12340  0.32320  0.38660  1.0000 0.2122258085
C   C25       1.0  0.41940  0.25800  0.73050  1.0000 0.061247335
C   C26       1.0  0.58060  0.75800  0.76950  1.0000 0.061247335
C   C27       1.0  0.58060  0.74200  0.26950  1.0000 0.061247335
C   C28       1.0  0.41940  0.24200  0.23050  1.0000 0.061247335
C   C29       1.0  0.52560  0.20470  0.77620  1.0000 -0.1609914035
C   C30       1.0  0.47440  0.70470  0.72380  1.0000 -0.1609914035
C   C31       1.0  0.47440  0.79530  0.22380  1.0000 -0.1609914035
C   C32       1.0  0.52560  0.29530  0.27620  1.0000 -0.1609914035
C   C33       1.0  0.52140  0.12200  0.74660  1.0000 0.0873060225
C   C34       1.0  0.47860  0.62200  0.75340  1.0000 0.0873060225
C   C35       1.0  0.47860  0.87800  0.25340  1.0000 0.0873060225
C   C36       1.0  0.52140  0.37800  0.24660  1.0000 0.0873060225
C   C37       1.0  0.40640  0.09760  0.66750  1.0000 -0.1846161943
C   C38       1.0  0.59360  0.59760  0.83250  1.0000 -0.1846161943
C   C39       1.0  0.59360  0.90240  0.33250  1.0000 -0.1846161943
C   C40       1.0  0.40640  0.40240  0.16750  1.0000 -0.1846161943
C   C41       1.0  0.30580  0.15620  0.62620  1.0000 0.0699822193
C   C42       1.0  0.69420  0.65620  0.87380  1.0000 0.0699822193
C   C43       1.0  0.69420  0.84380  0.37380  1.0000 0.0699822193
C   C44       1.0  0.30580  0.34380  0.12620  1.0000 0.0699822193
C   C45       1.0  0.63050  0.06250  0.79430  1.0000 0.2122258085
C   C46       1.0  0.36950  0.56250  0.70570  1.0000 0.2122258085
C   C47       1.0  0.36950  0.93750  0.20570  1.0000 0.2122258085
C   C48       1.0  0.63050  0.43750  0.29430  1.0000 0.2122258085
N   N1        1.0  0.14620  0.27090  0.69600  1.0000 -0.1934887182
N   N2        1.0  0.85380  0.77090  0.80400  1.0000 -0.1934887182
N   N3        1.0  0.85380  0.72910  0.30400  1.0000 -0.1934887182
N   N4        1.0  0.14620  0.22910  0.19600  1.0000 -0.1934887182
N   N5        1.0  0.16360  0.22140  0.95790  1.0000 -0.273322643
N   N6        1.0  0.83640  0.72140  0.54210  1.0000 -0.273322643
N   N7        1.0  0.83640  0.77860  0.04210  1.0000 -0.273322643
N   N8        1.0  0.16360  0.27860  0.45790  1.0000 -0.273322643
N   N9        1.0  0.13510  0.16670  0.99540  1.0000 -0.0205738868
N   N10       1.0  0.86490  0.66667  0.50460  1.0000 -0.0205738868
N   N11       1.0  0.86490  0.83330  0.00460  1.0000 -0.0205738868
N   N12       1.0  0.13510  0.33333  0.49540  1.0000 -0.0205738868
N   N13       1.0  0.07990  0.09300  0.95130  1.0000 -0.0516901177
N   N14       1.0  0.92010  0.59300  0.54870  1.0000 -0.0516901177
N   N15       1.0  0.92010  0.90700  0.04870  1.0000 -0.0516901177
N   N16       1.0  0.07990  0.40700  0.45130  1.0000 -0.0516901177
N   N17       1.0  0.07270  0.09800  0.88090  1.0000 -0.2619992283
N   N18       1.0  0.92730  0.59800  0.61910  1.0000 -0.2619992283
N   N19       1.0  0.92730  0.90200  0.11910  1.0000 -0.2619992283
N   N20       1.0  0.07270  0.40200  0.38090  1.0000 -0.2619992283
N   N21       1.0  0.30880  0.23520  0.65460  1.0000 -0.1959913384
N   N22       1.0  0.69120  0.73520  0.84540  1.0000 -0.1959913384
N   N23       1.0  0.69120  0.76480  0.34540  1.0000 -0.1959913384
N   N24       1.0  0.30880  0.26480  0.15460  1.0000 -0.1959913384
N   N25       1.0  0.74800  0.08730  0.86400  1.0000 -0.2503864031
N   N26       1.0  0.25200  0.58730  0.63600  1.0000 -0.2503864031
N   N27       1.0  0.25200  0.91270  0.13600  1.0000 -0.2503864031
N   N28       1.0  0.74800  0.41270  0.36400  1.0000 -0.2503864031
N   N29       1.0  0.81790  0.01420  0.89040  1.0000 -0.0205738868
N   N30       1.0  0.18210  0.51420  0.60960  1.0000 -0.0205738868
N   N31       1.0  0.18210  0.98580  0.10960  1.0000 -0.0205738868
N   N32       1.0  0.81790  0.48580  0.39040  1.0000 -0.0205738868
N   N33       1.0  0.74690  0.94690  0.84010  1.0000 -0.0925502267
N   N34       1.0  0.25310  0.44690  0.65990  1.0000 -0.0925502267
N   N35       1.0  0.25310  0.05310  0.15990  1.0000 -0.0925502267
N   N36       1.0  0.74690  0.55310  0.34010  1.0000 -0.0925502267
N   N37       1.0  0.62640  0.97580  0.77810  1.0000 -0.2822163266
N   N38       1.0  0.37360  0.47580  0.72190  1.0000 -0.2822163266
N   N39       1.0  0.37360  0.02420  0.22190  1.0000 -0.2822163266
N   N40       1.0  0.62640  0.52420  0.27810  1.0000 -0.2822163266
N   N41       1.0  0.99510  0.11710  0.05010  1.0000 -0.5038299721
N   N42       1.0  0.00490  0.61710  0.44990  1.0000 -0.5038299721
N   N43       1.0  0.00490  0.88290  0.94990  1.0000 -0.5038299721
N   N44       1.0  0.99510  0.38290  0.55010  1.0000 -0.5038299721
N   N45       1.0  0.91520  0.13370  0.05780  1.0000 0.4188173253
N   N46       1.0  0.08480  0.63370  0.44220  1.0000 0.4188173253
N   N47       1.0  0.08480  0.86630  0.94220  1.0000 0.4188173253
N   N48       1.0  0.91520  0.36630  0.55780  1.0000 0.4188173253
N   N49       1.0  0.83920  0.15170  0.06430  1.0000 -0.3073662158
N   N50       1.0  0.16080  0.65170  0.43570  1.0000 -0.3073662158
N   N51       1.0  0.16080  0.84830  0.93570  1.0000 -0.3073662158
N   N52       1.0  0.83920  0.34830  0.56430  1.0000 -0.3073662158
