# DDEC6 charges by PACMAN v1.1 (https://github.com/mtap-research/PACMAN-charge/)
data_2014[Zn][cds]3[ASR]1
_chemical_formula_sum              "Zn6 H56 C80 N12 O28"
_cell_length_a       14.8267
_cell_length_b       14.8267
_cell_length_c       13.514
_cell_angle_alpha    72.0905
_cell_angle_beta     107.909
_cell_angle_gamma    66.2515

_symmetry_space_group_name_H-M    "P 1"
_symmetry_Int_Tables_number       1

loop_
  _symmetry_equiv_pos_as_xyz
  'x, y, z'

loop_
  _atom_site_type_symbol
  _atom_site_label
  _atom_site_symmetry_multiplicity
  _atom_site_fract_x
  _atom_site_fract_y
  _atom_site_fract_z
  _atom_site_occupancy
  _atom_site_charge
Zn  Zn1       1.0  0.50000  0.50000  0.00000  1.0000 0.8743734432
Zn  Zn2       1.0  0.50000  0.50000  0.50000  1.0000 0.8743734432
Zn  Zn3       1.0  0.62498  0.27000  0.27160  1.0000 0.8532630278
Zn  Zn4       1.0  0.27000  0.62498  0.22840  1.0000 0.8532630278
Zn  Zn5       1.0  0.37502  0.73000  0.72840  1.0000 0.8532630278
Zn  Zn6       1.0  0.73000  0.37502  0.77160  1.0000 0.8532630278
H   H1        1.0  0.44090  0.43590  0.15520  1.0000 0.3746179042
H   H2        1.0  0.43590  0.44090  0.34480  1.0000 0.3746179042
H   H3        1.0  0.55910  0.56410  0.84480  1.0000 0.3746179042
H   H4        1.0  0.56410  0.55910  0.65520  1.0000 0.3746179042
H   H5        1.0  0.05050  0.76730  0.61700  1.0000 0.136925645
H   H6        1.0  0.76730  0.05050  0.88300  1.0000 0.136925645
H   H7        1.0  0.94950  0.23270  0.38300  1.0000 0.136925645
H   H8        1.0  0.23270  0.94950  0.11700  1.0000 0.136925645
H   H9        1.0  0.85910  0.70550  0.74830  1.0000 0.1301935537
H   H10       1.0  0.70550  0.85910  0.75170  1.0000 0.1301935537
H   H11       1.0  0.14090  0.29450  0.25170  1.0000 0.1301935537
H   H12       1.0  0.29450  0.14090  0.24830  1.0000 0.1301935537
H   H13       1.0  0.00030  0.63170  0.94040  1.0000 0.1198153326
H   H14       1.0  0.63170  0.00030  0.55960  1.0000 0.1198153326
H   H15       1.0  0.99970  0.36830  0.05960  1.0000 0.1198153326
H   H16       1.0  0.36830  0.99970  0.44040  1.0000 0.1198153326
H   H17       1.0  0.35570  0.39130  0.98620  1.0000 0.1130167225
H   H18       1.0  0.39130  0.35570  0.51380  1.0000 0.1130167225
H   H19       1.0  0.64430  0.60870  0.01380  1.0000 0.1130167225
H   H20       1.0  0.60870  0.64430  0.48620  1.0000 0.1130167225
H   H21       1.0  0.33750  0.26190  0.93720  1.0000 0.1198153326
H   H22       1.0  0.26190  0.33750  0.56280  1.0000 0.1198153326
H   H23       1.0  0.66250  0.73810  0.06280  1.0000 0.1198153326
H   H24       1.0  0.73810  0.66250  0.43720  1.0000 0.1198153326
H   H25       1.0  0.57130  0.23010  0.83570  1.0000 0.1301935537
H   H26       1.0  0.23010  0.57130  0.66430  1.0000 0.1301935537
H   H27       1.0  0.42870  0.76990  0.16430  1.0000 0.1301935537
H   H28       1.0  0.76990  0.42870  0.33570  1.0000 0.1301935537
H   H29       1.0  0.58100  0.36160  0.88540  1.0000 0.1130167225
H   H30       1.0  0.36160  0.58100  0.61460  1.0000 0.1130167225
H   H31       1.0  0.41900  0.63840  0.11460  1.0000 0.1130167225
H   H32       1.0  0.63840  0.41900  0.38540  1.0000 0.1130167225
H   H33       1.0  0.49830  0.11470  0.82010  1.0000 0.1130167225
H   H34       1.0  0.11470  0.49830  0.67990  1.0000 0.1130167225
H   H35       1.0  0.50170  0.88530  0.17990  1.0000 0.1130167225
H   H36       1.0  0.88530  0.50170  0.32010  1.0000 0.1130167225
H   H37       1.0  0.32950  0.14130  0.87330  1.0000 0.1198153326
H   H38       1.0  0.14130  0.32950  0.62670  1.0000 0.1198153326
H   H39       1.0  0.67050  0.85870  0.12670  1.0000 0.1198153326
H   H40       1.0  0.85870  0.67050  0.37330  1.0000 0.1198153326
H   H41       1.0  0.26660  0.87740  0.82160  1.0000 0.1198153326
H   H42       1.0  0.87740  0.26660  0.67840  1.0000 0.1198153326
H   H43       1.0  0.73340  0.12260  0.17840  1.0000 0.1198153326
H   H44       1.0  0.12260  0.73340  0.32160  1.0000 0.1198153326
H   H45       1.0  0.26570  0.01490  0.86430  1.0000 0.1301935537
H   H46       1.0  0.01490  0.26570  0.63570  1.0000 0.1301935537
H   H47       1.0  0.73430  0.98510  0.13570  1.0000 0.1301935537
H   H48       1.0  0.98510  0.73430  0.36430  1.0000 0.1301935537
H   H49       1.0  0.49060  0.99940  0.75470  1.0000 0.1301935537
H   H50       1.0  0.99940  0.49060  0.74530  1.0000 0.1301935537
H   H51       1.0  0.50940  0.00060  0.24530  1.0000 0.1301935537
H   H52       1.0  0.00060  0.50940  0.25470  1.0000 0.1301935537
H   H53       1.0  0.48760  0.86000  0.71740  1.0000 0.1130167225
H   H54       1.0  0.86000  0.48760  0.78260  1.0000 0.1130167225
H   H55       1.0  0.51240  0.14000  0.28260  1.0000 0.1130167225
H   H56       1.0  0.14000  0.51240  0.21740  1.0000 0.1130167225
C   C1        1.0  0.11104  0.65354  0.89552  1.0000 0.0088436359
C   C2        1.0  0.65354  0.11104  0.60448  1.0000 0.0088436359
C   C3        1.0  0.88896  0.34646  0.10448  1.0000 0.0088436359
C   C4        1.0  0.34646  0.88896  0.39552  1.0000 0.0088436359
C   C5        1.0  0.12684  0.69344  0.79814  1.0000 -0.0424839186
C   C6        1.0  0.69344  0.12684  0.70186  1.0000 -0.0424839186
C   C7        1.0  0.87316  0.30656  0.20186  1.0000 -0.0424839186
C   C8        1.0  0.30656  0.87316  0.29814  1.0000 -0.0424839186
C   C9        1.0  0.04165  0.73937  0.68260  1.0000 -0.1627069937
C   C10       1.0  0.73937  0.04165  0.81740  1.0000 -0.1627069937
C   C11       1.0  0.95835  0.26063  0.31740  1.0000 -0.1627069937
C   C12       1.0  0.26063  0.95835  0.18260  1.0000 -0.1627069937
C   C13       1.0  0.94351  0.74269  0.66720  1.0000 0.058551505
C   C14       1.0  0.74269  0.94351  0.83280  1.0000 0.058551505
C   C15       1.0  0.05649  0.25731  0.33280  1.0000 0.058551505
C   C16       1.0  0.25731  0.05649  0.16720  1.0000 0.058551505
C   C17       1.0  0.92578  0.70278  0.76130  1.0000 -0.1512148271
C   C18       1.0  0.70278  0.92578  0.73870  1.0000 -0.1512148271
C   C19       1.0  0.07422  0.29722  0.23870  1.0000 -0.1512148271
C   C20       1.0  0.29722  0.07422  0.26130  1.0000 -0.1512148271
C   C21       1.0  0.01044  0.65864  0.87560  1.0000 -0.1192291381
C   C22       1.0  0.65864  0.01044  0.62440  1.0000 -0.1192291381
C   C23       1.0  0.98956  0.34136  0.12440  1.0000 -0.1192291381
C   C24       1.0  0.34136  0.98956  0.37560  1.0000 -0.1192291381
C   C25       1.0  0.19689  0.60619  0.02403  1.0000 0.5730846001
C   C26       1.0  0.60619  0.19689  0.47597  1.0000 0.5730846001
C   C27       1.0  0.80311  0.39381  0.97597  1.0000 0.5730846001
C   C28       1.0  0.39381  0.80311  0.52403  1.0000 0.5730846001
C   C29       1.0  0.23672  0.68354  0.81645  1.0000 0.5755474491
C   C30       1.0  0.68354  0.23672  0.68355  1.0000 0.5755474491
C   C31       1.0  0.76328  0.31646  0.18355  1.0000 0.5755474491
C   C32       1.0  0.31646  0.76328  0.31645  1.0000 0.5755474491
C   C33       1.0  0.39916  0.35860  0.95517  1.0000 0.08727124
C   C34       1.0  0.35860  0.39916  0.54483  1.0000 0.08727124
C   C35       1.0  0.60084  0.64140  0.04483  1.0000 0.08727124
C   C36       1.0  0.64140  0.60084  0.45517  1.0000 0.08727124
C   C37       1.0  0.38793  0.28045  0.92610  1.0000 -0.2050317602
C   C38       1.0  0.28045  0.38793  0.57390  1.0000 -0.2050317602
C   C39       1.0  0.61207  0.71955  0.07390  1.0000 -0.2050317602
C   C40       1.0  0.71955  0.61207  0.42610  1.0000 -0.2050317602
C   C41       1.0  0.45310  0.22952  0.88000  1.0000 0.1548219619
C   C42       1.0  0.22952  0.45310  0.62000  1.0000 0.1548219619
C   C43       1.0  0.54690  0.77048  0.12000  1.0000 0.1548219619
C   C44       1.0  0.77048  0.54690  0.38000  1.0000 0.1548219619
C   C45       1.0  0.52616  0.26184  0.86580  1.0000 -0.2050317602
C   C46       1.0  0.26184  0.52616  0.63420  1.0000 -0.2050317602
C   C47       1.0  0.47384  0.73816  0.13420  1.0000 -0.2050317602
C   C48       1.0  0.73816  0.47384  0.36580  1.0000 -0.2050317602
C   C49       1.0  0.53184  0.34090  0.89620  1.0000 0.0996826866
C   C50       1.0  0.34090  0.53184  0.60380  1.0000 0.0996826866
C   C51       1.0  0.46816  0.65910  0.10380  1.0000 0.0996826866
C   C52       1.0  0.65910  0.46816  0.39620  1.0000 0.0996826866
C   C53       1.0  0.44852  0.14550  0.84610  1.0000 -0.1512148271
C   C54       1.0  0.14550  0.44852  0.65390  1.0000 -0.1512148271
C   C55       1.0  0.55148  0.85450  0.15390  1.0000 -0.1512148271
C   C56       1.0  0.85450  0.55148  0.34610  1.0000 -0.1512148271
C   C57       1.0  0.38066  0.10962  0.84910  1.0000 -0.1348556506
C   C58       1.0  0.10962  0.38066  0.65090  1.0000 -0.1348556506
C   C59       1.0  0.61934  0.89038  0.15090  1.0000 -0.1348556506
C   C60       1.0  0.89038  0.61934  0.34910  1.0000 -0.1348556506
C   C61       1.0  0.31273  0.90193  0.80850  1.0000 0.08727124
C   C62       1.0  0.90193  0.31273  0.69150  1.0000 0.08727124
C   C63       1.0  0.68727  0.09807  0.19150  1.0000 0.08727124
C   C64       1.0  0.09807  0.68727  0.30850  1.0000 0.08727124
C   C65       1.0  0.31195  0.98475  0.83460  1.0000 -0.1884535404
C   C66       1.0  0.98475  0.31195  0.66540  1.0000 -0.1884535404
C   C67       1.0  0.68805  0.01525  0.16540  1.0000 -0.1884535404
C   C68       1.0  0.01525  0.68805  0.33460  1.0000 -0.1884535404
C   C69       1.0  0.37935  0.02315  0.81710  1.0000 0.1615985294
C   C70       1.0  0.02315  0.37935  0.68290  1.0000 0.1615985294
C   C71       1.0  0.62065  0.97685  0.18290  1.0000 0.1615985294
C   C72       1.0  0.97685  0.62065  0.31710  1.0000 0.1615985294
C   C73       1.0  0.44502  0.97522  0.77020  1.0000 -0.1884535404
C   C74       1.0  0.97522  0.44502  0.72980  1.0000 -0.1884535404
C   C75       1.0  0.55498  0.02478  0.22980  1.0000 -0.1884535404
C   C76       1.0  0.02478  0.55498  0.27020  1.0000 -0.1884535404
C   C77       1.0  0.44201  0.89201  0.74700  1.0000 0.08727124
C   C78       1.0  0.89201  0.44201  0.75300  1.0000 0.08727124
C   C79       1.0  0.55799  0.10799  0.25300  1.0000 0.08727124
C   C80       1.0  0.10799  0.55799  0.24700  1.0000 0.08727124
N   N1        1.0  0.85425  0.78885  0.54510  1.0000 0.4910233689
N   N2        1.0  0.78885  0.85425  0.95490  1.0000 0.4910233689
N   N3        1.0  0.14575  0.21115  0.45490  1.0000 0.4910233689
N   N4        1.0  0.21115  0.14575  0.04510  1.0000 0.4910233689
N   N5        1.0  0.46969  0.38937  0.94068  1.0000 -0.2366251575
N   N6        1.0  0.38937  0.46969  0.55932  1.0000 -0.2366251575
N   N7        1.0  0.53031  0.61063  0.05932  1.0000 -0.2366251575
N   N8        1.0  0.61063  0.53031  0.44068  1.0000 -0.2366251575
N   N9        1.0  0.37694  0.85478  0.76500  1.0000 -0.2508906054
N   N10       1.0  0.85478  0.37694  0.73500  1.0000 -0.2508906054
N   N11       1.0  0.62306  0.14522  0.23500  1.0000 -0.2508906054
N   N12       1.0  0.14522  0.62306  0.26500  1.0000 -0.2508906054
O   O1        1.0  0.19572  0.67986  0.05421  1.0000 -0.5402320849
O   O2        1.0  0.67986  0.19572  0.44579  1.0000 -0.5402320849
O   O3        1.0  0.80428  0.32014  0.94579  1.0000 -0.5402320849
O   O4        1.0  0.32014  0.80428  0.55421  1.0000 -0.5402320849
O   O5        1.0  0.25476  0.50314  0.09242  1.0000 -0.5461091923
O   O6        1.0  0.50314  0.25476  0.40758  1.0000 -0.5461091923
O   O7        1.0  0.74524  0.49686  0.90758  1.0000 -0.5461091923
O   O8        1.0  0.49686  0.74524  0.59242  1.0000 -0.5461091923
O   O9        1.0  0.31889  0.62135  0.91909  1.0000 -0.5218488502
O   O10       1.0  0.62135  0.31889  0.58091  1.0000 -0.5218488502
O   O11       1.0  0.68111  0.37865  0.08091  1.0000 -0.5218488502
O   O12       1.0  0.37865  0.68111  0.41909  1.0000 -0.5218488502
O   O13       1.0  0.23581  0.73975  0.72329  1.0000 -0.5402320849
O   O14       1.0  0.73975  0.23581  0.77671  1.0000 -0.5402320849
O   O15       1.0  0.76419  0.26025  0.27671  1.0000 -0.5402320849
O   O16       1.0  0.26025  0.76419  0.22329  1.0000 -0.5402320849
O   O17       1.0  0.87372  0.81372  0.46390  1.0000 -0.3054900395
O   O18       1.0  0.81372  0.87372  0.03610  1.0000 -0.3054900395
O   O19       1.0  0.12628  0.18628  0.53610  1.0000 -0.3054900395
O   O20       1.0  0.18628  0.12628  0.96390  1.0000 -0.3054900395
O   O21       1.0  0.76599  0.79799  0.53090  1.0000 -0.3036552148
O   O22       1.0  0.79799  0.76599  0.96910  1.0000 -0.3036552148
O   O23       1.0  0.23401  0.20201  0.46910  1.0000 -0.3036552148
O   O24       1.0  0.20201  0.23401  0.03090  1.0000 -0.3036552148
O   O25       1.0  0.50258  0.42020  0.15488  1.0000 -0.845304005
O   O26       1.0  0.42020  0.50258  0.34512  1.0000 -0.845304005
O   O27       1.0  0.49742  0.57980  0.84512  1.0000 -0.845304005
O   O28       1.0  0.57980  0.49742  0.65488  1.0000 -0.845304005
