# DDEC6 charges by PACMAN v1.1 (https://github.com/mtap-research/PACMAN-charge/)
data_2014[Zn][ths]3[ASR]2
_chemical_formula_sum              "Zn4 H112 C132 O36"
_cell_length_a       18.9657
_cell_length_b       18.9657
_cell_length_c       36.94
_cell_angle_alpha    63.9638
_cell_angle_beta     116.036
_cell_angle_gamma    154.43

_symmetry_space_group_name_H-M    "P 1"
_symmetry_Int_Tables_number       1

loop_
  _symmetry_equiv_pos_as_xyz
  'x, y, z'

loop_
  _atom_site_type_symbol
  _atom_site_label
  _atom_site_symmetry_multiplicity
  _atom_site_fract_x
  _atom_site_fract_y
  _atom_site_fract_z
  _atom_site_occupancy
  _atom_site_charge
Zn  Zn1       1.0  0.79808  0.13658  0.67702  1.0000 0.930544812
Zn  Zn2       1.0  0.86342  0.20192  0.17702  1.0000 0.930544812
Zn  Zn3       1.0  0.13658  0.79808  0.82298  1.0000 0.930544812
Zn  Zn4       1.0  0.20192  0.86342  0.32298  1.0000 0.930544812
H   H1        1.0  0.42450  0.41450  0.39190  1.0000 0.1224231312
H   H2        1.0  0.58550  0.57550  0.89190  1.0000 0.1224231312
H   H3        1.0  0.56110  0.50310  0.42900  1.0000 0.1309069188
H   H4        1.0  0.49690  0.43890  0.92900  1.0000 0.1309069188
H   H5        1.0  0.41360  0.31920  0.42630  1.0000 0.1309069188
H   H6        1.0  0.68080  0.58640  0.92630  1.0000 0.1309069188
H   H7        1.0  0.04670  0.26270  0.39020  1.0000 0.1309069188
H   H8        1.0  0.73730  0.95330  0.89020  1.0000 0.1309069188
H   H9        1.0  0.91910  0.11450  0.42200  1.0000 0.138168755
H   H10       1.0  0.88550  0.08090  0.92200  1.0000 0.138168755
H   H11       1.0  0.06310  0.29350  0.42860  1.0000 0.1309069188
H   H12       1.0  0.70650  0.93690  0.92860  1.0000 0.1309069188
H   H13       1.0  0.33670  0.23730  0.56180  1.0000 0.1309069188
H   H14       1.0  0.76270  0.66330  0.06180  1.0000 0.1309069188
H   H15       1.0  0.28220  0.26640  0.56270  1.0000 0.138168755
H   H16       1.0  0.73360  0.71780  0.06270  1.0000 0.138168755
H   H17       1.0  0.14950  0.09030  0.55860  1.0000 0.1309069188
H   H18       1.0  0.90970  0.85050  0.05860  1.0000 0.1309069188
H   H19       1.0  0.53460  0.41480  0.53250  1.0000 0.1001034473
H   H20       1.0  0.58520  0.46540  0.03250  1.0000 0.1001034473
H   H21       1.0  0.56810  0.43930  0.49260  1.0000 0.1001034473
H   H22       1.0  0.56070  0.43190  0.99260  1.0000 0.1001034473
H   H23       1.0  0.28380  0.97800  0.55630  1.0000 0.138168755
H   H24       1.0  0.02200  0.71620  0.05630  1.0000 0.138168755
H   H25       1.0  0.41970  0.98110  0.59850  1.0000 0.1224231312
H   H26       1.0  0.01890  0.58030  0.09850  1.0000 0.1224231312
H   H27       1.0  0.84730  0.47150  0.58780  1.0000 0.1224231312
H   H28       1.0  0.52850  0.15270  0.08780  1.0000 0.1224231312
H   H29       1.0  0.71800  0.47300  0.54420  1.0000 0.1309069188
H   H30       1.0  0.52700  0.28200  0.04420  1.0000 0.1309069188
H   H31       1.0  0.31260  0.39960  0.36610  1.0000 0.0850351786
H   H32       1.0  0.60040  0.68740  0.86610  1.0000 0.0850351786
H   H33       1.0  0.15640  0.31140  0.36240  1.0000 0.1001034473
H   H34       1.0  0.68860  0.84360  0.86240  1.0000 0.1001034473
H   H35       1.0  0.57020  0.82380  0.37290  1.0000 0.138168755
H   H36       1.0  0.17620  0.42980  0.87290  1.0000 0.138168755
H   H37       1.0  0.72860  0.03340  0.32160  1.0000 0.1224231312
H   H38       1.0  0.96660  0.27140  0.82160  1.0000 0.1224231312
H   H39       1.0  0.50040  0.73780  0.25330  1.0000 0.138168755
H   H40       1.0  0.26220  0.49960  0.75330  1.0000 0.138168755
H   H41       1.0  0.34580  0.52540  0.30480  1.0000 0.1309069188
H   H42       1.0  0.47460  0.65420  0.80480  1.0000 0.1309069188
H   H43       1.0  0.98730  0.04870  0.52760  1.0000 0.1001034473
H   H44       1.0  0.95130  0.01270  0.02760  1.0000 0.1001034473
H   H45       1.0  0.92680  0.06840  0.48690  1.0000 0.1001034473
H   H46       1.0  0.93160  0.07320  0.98690  1.0000 0.1001034473
H   H47       1.0  0.79840  0.95340  0.53930  1.0000 0.1309069188
H   H48       1.0  0.04660  0.20160  0.03930  1.0000 0.1309069188
H   H49       1.0  0.67820  0.88920  0.58040  1.0000 0.1001034473
H   H50       1.0  0.11080  0.32180  0.08040  1.0000 0.1001034473
H   H51       1.0  0.10130  0.35670  0.60240  1.0000 0.1309069188
H   H52       1.0  0.64330  0.89870  0.10240  1.0000 0.1309069188
H   H53       1.0  0.22460  0.42480  0.56070  1.0000 0.138168755
H   H54       1.0  0.57520  0.77540  0.06070  1.0000 0.138168755
H   H55       1.0  0.57570  0.81770  0.62140  1.0000 0.3512939845
H   H56       1.0  0.18230  0.42430  0.12140  1.0000 0.3512939845
H   H57       1.0  0.41450  0.42450  0.10810  1.0000 0.1224231312
H   H58       1.0  0.57550  0.58550  0.60810  1.0000 0.1224231312
H   H59       1.0  0.50310  0.56110  0.07100  1.0000 0.1309069188
H   H60       1.0  0.43890  0.49690  0.57100  1.0000 0.1309069188
H   H61       1.0  0.31920  0.41360  0.07370  1.0000 0.1309069188
H   H62       1.0  0.58640  0.68080  0.57370  1.0000 0.1309069188
H   H63       1.0  0.26270  0.04670  0.10980  1.0000 0.1309069188
H   H64       1.0  0.95330  0.73730  0.60980  1.0000 0.1309069188
H   H65       1.0  0.11450  0.91910  0.07800  1.0000 0.138168755
H   H66       1.0  0.08090  0.88550  0.57800  1.0000 0.138168755
H   H67       1.0  0.29350  0.06310  0.07140  1.0000 0.1309069188
H   H68       1.0  0.93690  0.70650  0.57140  1.0000 0.1309069188
H   H69       1.0  0.23730  0.33670  0.93820  1.0000 0.1309069188
H   H70       1.0  0.66330  0.76270  0.43820  1.0000 0.1309069188
H   H71       1.0  0.26640  0.28220  0.93730  1.0000 0.138168755
H   H72       1.0  0.71780  0.73360  0.43730  1.0000 0.138168755
H   H73       1.0  0.09030  0.14950  0.94140  1.0000 0.1309069188
H   H74       1.0  0.85050  0.90970  0.44140  1.0000 0.1309069188
H   H75       1.0  0.41480  0.53460  0.96750  1.0000 0.1001034473
H   H76       1.0  0.46540  0.58520  0.46750  1.0000 0.1001034473
H   H77       1.0  0.43930  0.56810  0.00740  1.0000 0.1001034473
H   H78       1.0  0.43190  0.56070  0.50740  1.0000 0.1001034473
H   H79       1.0  0.97800  0.28380  0.94370  1.0000 0.138168755
H   H80       1.0  0.71620  0.02200  0.44370  1.0000 0.138168755
H   H81       1.0  0.98110  0.41970  0.90150  1.0000 0.1224231312
H   H82       1.0  0.58030  0.01890  0.40150  1.0000 0.1224231312
H   H83       1.0  0.47150  0.84730  0.91220  1.0000 0.1224231312
H   H84       1.0  0.15270  0.52850  0.41220  1.0000 0.1224231312
H   H85       1.0  0.47300  0.71800  0.95580  1.0000 0.1309069188
H   H86       1.0  0.28200  0.52700  0.45580  1.0000 0.1309069188
H   H87       1.0  0.39960  0.31260  0.13390  1.0000 0.0850351786
H   H88       1.0  0.68740  0.60040  0.63390  1.0000 0.0850351786
H   H89       1.0  0.31140  0.15640  0.13760  1.0000 0.1001034473
H   H90       1.0  0.84360  0.68860  0.63760  1.0000 0.1001034473
H   H91       1.0  0.82380  0.57020  0.12710  1.0000 0.138168755
H   H92       1.0  0.42980  0.17620  0.62710  1.0000 0.138168755
H   H93       1.0  0.03340  0.72860  0.17840  1.0000 0.1224231312
H   H94       1.0  0.27140  0.96660  0.67840  1.0000 0.1224231312
H   H95       1.0  0.73780  0.50040  0.24670  1.0000 0.138168755
H   H96       1.0  0.49960  0.26220  0.74670  1.0000 0.138168755
H   H97       1.0  0.52540  0.34580  0.19520  1.0000 0.1309069188
H   H98       1.0  0.65420  0.47460  0.69520  1.0000 0.1309069188
H   H99       1.0  0.04870  0.98730  0.97240  1.0000 0.1001034473
H   H100      1.0  0.01270  0.95130  0.47240  1.0000 0.1001034473
H   H101      1.0  0.06840  0.92680  0.01310  1.0000 0.1001034473
H   H102      1.0  0.07320  0.93160  0.51310  1.0000 0.1001034473
H   H103      1.0  0.95340  0.79840  0.96070  1.0000 0.1309069188
H   H104      1.0  0.20160  0.04660  0.46070  1.0000 0.1309069188
H   H105      1.0  0.88920  0.67820  0.91960  1.0000 0.1001034473
H   H106      1.0  0.32180  0.11080  0.41960  1.0000 0.1001034473
H   H107      1.0  0.35670  0.10130  0.89760  1.0000 0.1309069188
H   H108      1.0  0.89870  0.64330  0.39760  1.0000 0.1309069188
H   H109      1.0  0.42480  0.22460  0.93930  1.0000 0.138168755
H   H110      1.0  0.77540  0.57520  0.43930  1.0000 0.138168755
H   H111      1.0  0.81770  0.57570  0.87860  1.0000 0.3512939845
H   H112      1.0  0.42430  0.18230  0.37860  1.0000 0.3512939845
C   C1        1.0  0.34791  0.34469  0.44336  1.0000 0.0820815219
C   C2        1.0  0.65531  0.65209  0.94336  1.0000 0.0820815219
C   C3        1.0  0.24326  0.31734  0.42191  1.0000 -0.0419319014
C   C4        1.0  0.68266  0.75674  0.92191  1.0000 -0.0419319014
C   C5        1.0  0.13900  0.25000  0.44164  1.0000 0.0820815219
C   C6        1.0  0.75000  0.86100  0.94164  1.0000 0.0820815219
C   C7        1.0  0.13858  0.20742  0.48378  1.0000 -0.0610522362
C   C8        1.0  0.79258  0.86142  0.98378  1.0000 -0.0610522362
C   C9        1.0  0.24922  0.24318  0.50574  1.0000 0.0820815219
C   C10       1.0  0.75682  0.75078  0.00574  1.0000 0.0820815219
C   C11       1.0  0.35841  0.31719  0.48485  1.0000 -0.0519836287
C   C12       1.0  0.68281  0.64159  0.98485  1.0000 -0.0519836287
C   C13       1.0  0.44580  0.40060  0.42050  1.0000 -0.4637200798
C   C14       1.0  0.59940  0.55420  0.92050  1.0000 -0.4637200798
C   C15       1.0  0.03223  0.22817  0.41849  1.0000 -0.4801454778
C   C16       1.0  0.77183  0.96777  0.91849  1.0000 -0.4801454778
C   C17       1.0  0.25492  0.20588  0.55139  1.0000 -0.4801454778
C   C18       1.0  0.79412  0.74508  0.05139  1.0000 -0.4801454778
C   C19       1.0  0.48324  0.36296  0.50913  1.0000 -0.0610522362
C   C20       1.0  0.63704  0.51676  0.00913  1.0000 -0.0610522362
C   C21       1.0  0.48681  0.22559  0.54721  1.0000 0.2593928014
C   C22       1.0  0.77441  0.51319  0.04721  1.0000 0.2593928014
C   C23       1.0  0.39701  0.07719  0.56288  1.0000 -0.2285631134
C   C24       1.0  0.92281  0.60299  0.06288  1.0000 -0.2285631134
C   C25       1.0  0.47863  0.07957  0.58839  1.0000 -0.0795777954
C   C26       1.0  0.92043  0.52137  0.08839  1.0000 -0.0795777954
C   C27       1.0  0.64607  0.22593  0.59905  1.0000 -0.0136252451
C   C28       1.0  0.77407  0.35393  0.09905  1.0000 -0.0136252451
C   C29       1.0  0.73369  0.37231  0.58166  1.0000 -0.0795777954
C   C30       1.0  0.62769  0.26631  0.08166  1.0000 -0.0701537511
C   C31       1.0  0.65707  0.37373  0.55589  1.0000 -0.2285631134
C   C32       1.0  0.62627  0.34293  0.05589  1.0000 -0.2285631134
C   C33       1.0  0.73858  0.23162  0.62749  1.0000 0.541249532
C   C34       1.0  0.76838  0.26142  0.12749  1.0000 0.541249532
C   C35       1.0  0.26203  0.38437  0.37780  1.0000 -0.0610522362
C   C36       1.0  0.61563  0.73797  0.87780  1.0000 -0.0610522362
C   C37       1.0  0.44747  0.65453  0.34462  1.0000 0.2494434153
C   C38       1.0  0.34547  0.55253  0.84462  1.0000 0.2494434153
C   C39       1.0  0.55850  0.80670  0.34930  1.0000 -0.1995795055
C   C40       1.0  0.19330  0.44150  0.84930  1.0000 -0.1995795055
C   C41       1.0  0.64920  0.92960  0.31820  1.0000 -0.0795777954
C   C42       1.0  0.07040  0.35080  0.81820  1.0000 -0.0795777954
C   C43       1.0  0.62759  0.90521  0.28223  1.0000 -0.0272658763
C   C44       1.0  0.09479  0.37241  0.78223  1.0000 -0.0272658763
C   C45       1.0  0.51550  0.75530  0.27765  1.0000 -0.0610522362
C   C46       1.0  0.24470  0.48450  0.77765  1.0000 -0.0610522362
C   C47       1.0  0.42350  0.62830  0.30850  1.0000 -0.2108577157
C   C48       1.0  0.37170  0.57650  0.80850  1.0000 -0.2108577157
C   C49       1.0  0.72940  0.04200  0.24780  1.0000 0.5240652
C   C50       1.0  0.95800  0.27060  0.74780  1.0000 0.5240652
C   C51       1.0  0.02289  0.12691  0.50534  1.0000 -0.0701537511
C   C52       1.0  0.87309  0.97711  0.00534  1.0000 -0.0701537511
C   C53       1.0  0.02273  0.19627  0.54511  1.0000 0.2593928014
C   C54       1.0  0.80373  0.97727  0.04511  1.0000 0.2593928014
C   C55       1.0  0.85993  0.03527  0.55169  1.0000 -0.2185639965
C   C56       1.0  0.96473  0.14007  0.05169  1.0000 -0.2185639965
C   C57       1.0  0.78890  0.99650  0.57690  1.0000 -0.1132300331
C   C58       1.0  0.00350  0.21110  0.07690  1.0000 -0.1132300331
C   C59       1.0  0.88280  0.11800  0.59710  1.0000 -0.0610522362
C   C60       1.0  0.88200  0.11720  0.09710  1.0000 -0.0610522362
C   C61       1.0  0.04070  0.27510  0.59020  1.0000 -0.0701537511
C   C62       1.0  0.72490  0.95930  0.09020  1.0000 -0.0701537511
C   C63       1.0  0.11450  0.31670  0.56460  1.0000 -0.2185639965
C   C64       1.0  0.68330  0.88550  0.06460  1.0000 -0.2185639965
C   C65       1.0  0.80290  0.07050  0.62540  1.0000 0.5687112098
C   C66       1.0  0.92950  0.19710  0.12540  1.0000 0.5687112098
C   C67       1.0  0.34469  0.34791  0.05664  1.0000 0.0820815219
C   C68       1.0  0.65209  0.65531  0.55664  1.0000 0.0820815219
C   C69       1.0  0.31734  0.24326  0.07809  1.0000 -0.0419319014
C   C70       1.0  0.75674  0.68266  0.57809  1.0000 -0.0419319014
C   C71       1.0  0.25000  0.13900  0.05836  1.0000 0.0820815219
C   C72       1.0  0.86100  0.75000  0.55836  1.0000 0.0820815219
C   C73       1.0  0.20742  0.13858  0.01622  1.0000 -0.0610522362
C   C74       1.0  0.86142  0.79258  0.51622  1.0000 -0.0610522362
C   C75       1.0  0.24318  0.24922  0.99426  1.0000 0.0820815219
C   C76       1.0  0.75078  0.75682  0.49426  1.0000 0.0820815219
C   C77       1.0  0.31719  0.35841  0.01515  1.0000 -0.0519836287
C   C78       1.0  0.64159  0.68281  0.51515  1.0000 -0.0519836287
C   C79       1.0  0.40060  0.44580  0.07950  1.0000 -0.4637200798
C   C80       1.0  0.55420  0.59940  0.57950  1.0000 -0.4637200798
C   C81       1.0  0.22817  0.03223  0.08151  1.0000 -0.4801454778
C   C82       1.0  0.96777  0.77183  0.58151  1.0000 -0.4801454778
C   C83       1.0  0.20588  0.25492  0.94861  1.0000 -0.4801454778
C   C84       1.0  0.74508  0.79412  0.44861  1.0000 -0.4801454778
C   C85       1.0  0.36296  0.48324  0.99087  1.0000 -0.0610522362
C   C86       1.0  0.51676  0.63704  0.49087  1.0000 -0.0610522362
C   C87       1.0  0.22559  0.48681  0.95279  1.0000 0.2593928014
C   C88       1.0  0.51319  0.77441  0.45279  1.0000 0.2593928014
C   C89       1.0  0.07719  0.39701  0.93712  1.0000 -0.2285631134
C   C90       1.0  0.60299  0.92281  0.43712  1.0000 -0.2285631134
C   C91       1.0  0.07957  0.47863  0.91161  1.0000 -0.0795777954
C   C92       1.0  0.52137  0.92043  0.41161  1.0000 -0.0795777954
C   C93       1.0  0.22593  0.64607  0.90095  1.0000 -0.0136252451
C   C94       1.0  0.35393  0.77407  0.40095  1.0000 -0.0136252451
C   C95       1.0  0.37231  0.73369  0.91834  1.0000 -0.0795777954
C   C96       1.0  0.26631  0.62769  0.41834  1.0000 -0.0795777954
C   C97       1.0  0.37373  0.65707  0.94411  1.0000 -0.2285631134
C   C98       1.0  0.34293  0.62627  0.44411  1.0000 -0.2285631134
C   C99       1.0  0.23162  0.73858  0.87251  1.0000 0.541249532
C   C100      1.0  0.26142  0.76838  0.37251  1.0000 0.541249532
C   C101      1.0  0.38437  0.26203  0.12220  1.0000 -0.0610522362
C   C102      1.0  0.73797  0.61563  0.62220  1.0000 -0.0610522362
C   C103      1.0  0.65453  0.44747  0.15538  1.0000 0.2494434153
C   C104      1.0  0.55253  0.34547  0.65538  1.0000 0.2494434153
C   C105      1.0  0.80670  0.55850  0.15070  1.0000 -0.1995795055
C   C106      1.0  0.44150  0.19330  0.65070  1.0000 -0.1995795055
C   C107      1.0  0.92960  0.64920  0.18180  1.0000 -0.0795777954
C   C108      1.0  0.35080  0.07040  0.68180  1.0000 -0.0795777954
C   C109      1.0  0.90521  0.62759  0.21777  1.0000 -0.0272658763
C   C110      1.0  0.37241  0.09479  0.71777  1.0000 -0.0272658763
C   C111      1.0  0.75530  0.51550  0.22235  1.0000 -0.0610522362
C   C112      1.0  0.48450  0.24470  0.72235  1.0000 -0.0610522362
C   C113      1.0  0.62830  0.42350  0.19150  1.0000 -0.2108577157
C   C114      1.0  0.57650  0.37170  0.69150  1.0000 -0.2108577157
C   C115      1.0  0.04200  0.72940  0.25220  1.0000 0.5251143013
C   C116      1.0  0.27060  0.95800  0.75220  1.0000 0.5251143013
C   C117      1.0  0.12691  0.02289  0.99466  1.0000 -0.0701537511
C   C118      1.0  0.97711  0.87309  0.49466  1.0000 -0.0701537511
C   C119      1.0  0.19627  0.02273  0.95489  1.0000 0.2593928014
C   C120      1.0  0.97727  0.80373  0.45489  1.0000 0.2593928014
C   C121      1.0  0.03527  0.85993  0.94831  1.0000 -0.2185639965
C   C122      1.0  0.14007  0.96473  0.44831  1.0000 -0.2185639965
C   C123      1.0  0.99650  0.78890  0.92310  1.0000 -0.1132300331
C   C124      1.0  0.21110  0.00350  0.42310  1.0000 -0.1132300331
C   C125      1.0  0.11800  0.88280  0.90290  1.0000 -0.0610522362
C   C126      1.0  0.11720  0.88200  0.40290  1.0000 -0.0610522362
C   C127      1.0  0.27510  0.04070  0.90980  1.0000 -0.0701537511
C   C128      1.0  0.95930  0.72490  0.40980  1.0000 -0.0701537511
C   C129      1.0  0.31670  0.11450  0.93540  1.0000 -0.2185639965
C   C130      1.0  0.88550  0.68330  0.43540  1.0000 -0.2185639965
C   C131      1.0  0.07050  0.80290  0.87460  1.0000 0.5687112098
C   C132      1.0  0.19710  0.92950  0.37460  1.0000 0.5687112098
O   O1        1.0  0.39534  0.21066  0.52214  1.0000 -0.1995795055
O   O2        1.0  0.78934  0.60466  0.02214  1.0000 -0.1995795055
O   O3        1.0  0.36712  0.53988  0.37831  1.0000 -0.1912931542
O   O4        1.0  0.46012  0.63288  0.87831  1.0000 -0.1912931542
O   O5        1.0  0.10640  0.25180  0.52048  1.0000 -0.1912931542
O   O6        1.0  0.74820  0.89360  0.02048  1.0000 -0.1912931542
O   O7        1.0  0.88640  0.36100  0.63257  1.0000 -0.4916590765
O   O8        1.0  0.63900  0.11360  0.13257  1.0000 -0.4916590765
O   O9        1.0  0.64662  0.08938  0.64470  1.0000 -0.5777896012
O   O10       1.0  0.91062  0.35338  0.14470  1.0000 -0.5777896012
O   O11       1.0  0.70898  0.01602  0.21711  1.0000 -0.4801454778
O   O12       1.0  0.98398  0.29102  0.71711  1.0000 -0.4801454778
O   O13       1.0  0.81020  0.16600  0.25030  1.0000 -0.4801454778
O   O14       1.0  0.83400  0.18980  0.75030  1.0000 -0.4801454778
O   O15       1.0  0.89582  0.18478  0.64270  1.0000 -0.4801454778
O   O16       1.0  0.81522  0.10418  0.14270  1.0000 -0.4801454778
O   O17       1.0  0.64530  0.91810  0.62770  1.0000 -0.495454591
O   O18       1.0  0.08190  0.35470  0.12770  1.0000 -0.495454591
O   O19       1.0  0.21066  0.39534  0.97786  1.0000 -0.1995795055
O   O20       1.0  0.60466  0.78934  0.47786  1.0000 -0.1995795055
O   O21       1.0  0.53988  0.36712  0.12169  1.0000 -0.1912931542
O   O22       1.0  0.63288  0.46012  0.62169  1.0000 -0.1912931542
O   O23       1.0  0.25180  0.10640  0.97952  1.0000 -0.1912931542
O   O24       1.0  0.89360  0.74820  0.47952  1.0000 -0.1912931542
O   O25       1.0  0.36100  0.88640  0.86743  1.0000 -0.4916590765
O   O26       1.0  0.11360  0.63900  0.36743  1.0000 -0.4916590765
O   O27       1.0  0.08938  0.64662  0.85530  1.0000 -0.5777896012
O   O28       1.0  0.35338  0.91062  0.35530  1.0000 -0.5777896012
O   O29       1.0  0.01602  0.70898  0.28289  1.0000 -0.4801454778
O   O30       1.0  0.29102  0.98398  0.78289  1.0000 -0.4801454778
O   O31       1.0  0.16600  0.81020  0.24970  1.0000 -0.4801454778
O   O32       1.0  0.18980  0.83400  0.74970  1.0000 -0.4801454778
O   O33       1.0  0.18478  0.89582  0.85730  1.0000 -0.4801454778
O   O34       1.0  0.10418  0.81522  0.35730  1.0000 -0.4801454778
O   O35       1.0  0.91810  0.64530  0.87230  1.0000 -0.4916590765
O   O36       1.0  0.35470  0.08190  0.37230  1.0000 -0.4916590765
