# DDEC6 charges by PACMAN v1.1 (https://github.com/mtap-research/PACMAN-charge/)
data_2014[Ni][nan]3[ASR]3
_chemical_formula_sum              "Ni4 H56 C88 N12 O16"
_cell_length_a       11.7437
_cell_length_b       11.7437
_cell_length_c       16.74
_cell_angle_alpha    76.6126
_cell_angle_beta     103.387
_cell_angle_gamma    94.4549

_symmetry_space_group_name_H-M    "P 1"
_symmetry_Int_Tables_number       1

loop_
  _symmetry_equiv_pos_as_xyz
  'x, y, z'

loop_
  _atom_site_type_symbol
  _atom_site_label
  _atom_site_symmetry_multiplicity
  _atom_site_fract_x
  _atom_site_fract_y
  _atom_site_fract_z
  _atom_site_occupancy
  _atom_site_charge
Ni  Ni1       1.0  0.43925  0.93445  0.85150  1.0000 0.713086476
Ni  Ni2       1.0  0.93445  0.43925  0.64850  1.0000 0.713086476
Ni  Ni3       1.0  0.56075  0.06555  0.14850  1.0000 0.713086476
Ni  Ni4       1.0  0.06555  0.56075  0.35150  1.0000 0.713086476
H   H1        1.0  0.23110  0.29070  0.58410  1.0000 0.1210770707
H   H2        1.0  0.29070  0.23110  0.91590  1.0000 0.1210770707
H   H3        1.0  0.76890  0.70930  0.41590  1.0000 0.1210770707
H   H4        1.0  0.70930  0.76890  0.08410  1.0000 0.1210770707
H   H5        1.0  0.07970  0.14530  0.39020  1.0000 0.1210770707
H   H6        1.0  0.14530  0.07970  0.10980  1.0000 0.1210770707
H   H7        1.0  0.92030  0.85470  0.60980  1.0000 0.1210770707
H   H8        1.0  0.85470  0.92030  0.89020  1.0000 0.1210770707
H   H9        1.0  0.25830  0.94910  0.60430  1.0000 0.1120187243
H   H10       1.0  0.94910  0.25830  0.89570  1.0000 0.1120187243
H   H11       1.0  0.74170  0.05090  0.39570  1.0000 0.1120187243
H   H12       1.0  0.05090  0.74170  0.10430  1.0000 0.1120187243
H   H13       1.0  0.23200  0.81080  0.55090  1.0000 0.1321504595
H   H14       1.0  0.81080  0.23200  0.94910  1.0000 0.1321504595
H   H15       1.0  0.76800  0.18920  0.44910  1.0000 0.1321504595
H   H16       1.0  0.18920  0.76800  0.05090  1.0000 0.1321504595
H   H17       1.0  0.18620  0.64780  0.50030  1.0000 0.1210770707
H   H18       1.0  0.64780  0.18620  0.99970  1.0000 0.1210770707
H   H19       1.0  0.81380  0.35220  0.49970  1.0000 0.1210770707
H   H20       1.0  0.35220  0.81380  0.00030  1.0000 0.1210770707
H   H21       1.0  0.98680  0.81820  0.30230  1.0000 0.1120187243
H   H22       1.0  0.81820  0.98680  0.19770  1.0000 0.1120187243
H   H23       1.0  0.01320  0.18180  0.69770  1.0000 0.1120187243
H   H24       1.0  0.18180  0.01320  0.80230  1.0000 0.1120187243
H   H25       1.0  0.02460  0.98540  0.34870  1.0000 0.1371118626
H   H26       1.0  0.98540  0.02460  0.15130  1.0000 0.1371118626
H   H27       1.0  0.97540  0.01460  0.65130  1.0000 0.1371118626
H   H28       1.0  0.01460  0.97540  0.84870  1.0000 0.1371118626
H   H29       1.0  0.24520  0.71860  0.83290  1.0000 0.1210770707
H   H30       1.0  0.71860  0.24520  0.66710  1.0000 0.1210770707
H   H31       1.0  0.75480  0.28140  0.16710  1.0000 0.1210770707
H   H32       1.0  0.28140  0.75480  0.33290  1.0000 0.1210770707
H   H33       1.0  0.23390  0.60070  0.72820  1.0000 0.1468718624
H   H34       1.0  0.60070  0.23390  0.77180  1.0000 0.1468718624
H   H35       1.0  0.76610  0.39930  0.27180  1.0000 0.1468718624
H   H36       1.0  0.39930  0.76610  0.22820  1.0000 0.1468718624
H   H37       1.0  0.53170  0.77910  0.75140  1.0000 0.1210770707
H   H38       1.0  0.77910  0.53170  0.74860  1.0000 0.1210770707
H   H39       1.0  0.46830  0.22090  0.24860  1.0000 0.1210770707
H   H40       1.0  0.22090  0.46830  0.25140  1.0000 0.1210770707
H   H41       1.0  0.51770  0.75990  0.60740  1.0000 0.1371118626
H   H42       1.0  0.75990  0.51770  0.89260  1.0000 0.1371118626
H   H43       1.0  0.48230  0.24010  0.39260  1.0000 0.1371118626
H   H44       1.0  0.24010  0.48230  0.10740  1.0000 0.1371118626
H   H45       1.0  0.56590  0.68030  0.50630  1.0000 0.1210770707
H   H46       1.0  0.68030  0.56590  0.99370  1.0000 0.1210770707
H   H47       1.0  0.43410  0.31970  0.49370  1.0000 0.1210770707
H   H48       1.0  0.31970  0.43410  0.00630  1.0000 0.1210770707
H   H49       1.0  0.40200  0.38740  0.58700  1.0000 0.1210770707
H   H50       1.0  0.38740  0.40200  0.91300  1.0000 0.1210770707
H   H51       1.0  0.59800  0.61260  0.41300  1.0000 0.1210770707
H   H52       1.0  0.61260  0.59800  0.08700  1.0000 0.1210770707
H   H53       1.0  0.35160  0.46560  0.68590  1.0000 0.1468718624
H   H54       1.0  0.46560  0.35160  0.81410  1.0000 0.1468718624
H   H55       1.0  0.64840  0.53440  0.31410  1.0000 0.1468718624
H   H56       1.0  0.53440  0.64840  0.18590  1.0000 0.1468718624
C   C1        1.0  0.33310  0.10730  0.69460  1.0000 0.5419727465
C   C2        1.0  0.10730  0.33310  0.80540  1.0000 0.5419727465
C   C3        1.0  0.66690  0.89270  0.30540  1.0000 0.5419727465
C   C4        1.0  0.89270  0.66690  0.19460  1.0000 0.5419727465
C   C5        1.0  0.25820  0.11880  0.60730  1.0000 -0.0235395172
C   C6        1.0  0.11880  0.25820  0.89270  1.0000 -0.0235395172
C   C7        1.0  0.74180  0.88120  0.39270  1.0000 -0.0235395172
C   C8        1.0  0.88120  0.74180  0.10730  1.0000 -0.0235395172
C   C9        1.0  0.21570  0.22530  0.56060  1.0000 -0.1290551225
C   C10       1.0  0.22530  0.21570  0.93940  1.0000 -0.1290551225
C   C11       1.0  0.78430  0.77470  0.43940  1.0000 -0.1290551225
C   C12       1.0  0.77470  0.78430  0.06060  1.0000 -0.1290551225
C   C13       1.0  0.15010  0.23690  0.47890  1.0000 -0.0087298114
C   C14       1.0  0.23690  0.15010  0.02110  1.0000 -0.0087298114
C   C15       1.0  0.84990  0.76310  0.52110  1.0000 -0.0087298114
C   C16       1.0  0.76310  0.84990  0.97890  1.0000 -0.0087298114
C   C17       1.0  0.12370  0.13790  0.44500  1.0000 -0.1599310288
C   C18       1.0  0.13790  0.12370  0.05500  1.0000 -0.1599310288
C   C19       1.0  0.87630  0.86210  0.55500  1.0000 -0.1599310288
C   C20       1.0  0.86210  0.87630  0.94500  1.0000 -0.1599310288
C   C21       1.0  0.16220  0.02820  0.49160  1.0000 0.0703935562
C   C22       1.0  0.02820  0.16220  0.00840  1.0000 0.0703935562
C   C23       1.0  0.83780  0.97180  0.50840  1.0000 0.0703935562
C   C24       1.0  0.97180  0.83780  0.99160  1.0000 0.0703935562
C   C25       1.0  0.23050  0.02150  0.57260  1.0000 -0.1599310288
C   C26       1.0  0.02150  0.23050  0.92740  1.0000 -0.1599310288
C   C27       1.0  0.76950  0.97850  0.42740  1.0000 -0.1599310288
C   C28       1.0  0.97850  0.76950  0.07260  1.0000 -0.1599310288
C   C29       1.0  0.11370  0.35750  0.42890  1.0000 0.5300968191
C   C30       1.0  0.35750  0.11370  0.07110  1.0000 0.5300968191
C   C31       1.0  0.88630  0.64250  0.57110  1.0000 0.5300968191
C   C32       1.0  0.64250  0.88630  0.92890  1.0000 0.5300968191
C   C33       1.0  0.13280  0.92060  0.45700  1.0000 0.1210770707
C   C34       1.0  0.92060  0.13280  0.04300  1.0000 0.1210770707
C   C35       1.0  0.86720  0.07940  0.54300  1.0000 0.1210770707
C   C36       1.0  0.07940  0.86720  0.95700  1.0000 0.1210770707
C   C37       1.0  0.17990  0.81570  0.49910  1.0000 -0.2173226202
C   C38       1.0  0.81570  0.17990  0.00090  1.0000 -0.2173226202
C   C39       1.0  0.82010  0.18430  0.50090  1.0000 -0.2173226202
C   C40       1.0  0.18430  0.82010  0.99910  1.0000 -0.2173226202
C   C41       1.0  0.15300  0.71740  0.46740  1.0000 0.0868658474
C   C42       1.0  0.71740  0.15300  0.03260  1.0000 0.0868658474
C   C43       1.0  0.84700  0.28260  0.53260  1.0000 0.0868658474
C   C44       1.0  0.28260  0.84700  0.96740  1.0000 0.0868658474
C   C45       1.0  0.03830  0.81570  0.35410  1.0000 0.0598505432
C   C46       1.0  0.81570  0.03830  0.14590  1.0000 0.0598505432
C   C47       1.0  0.96170  0.18430  0.64590  1.0000 0.0598505432
C   C48       1.0  0.18430  0.96170  0.85410  1.0000 0.0598505432
C   C49       1.0  0.06030  0.91710  0.38190  1.0000 -0.2035543421
C   C50       1.0  0.91710  0.06030  0.11810  1.0000 -0.2035543421
C   C51       1.0  0.93970  0.08290  0.61810  1.0000 -0.2035543421
C   C52       1.0  0.08290  0.93970  0.88190  1.0000 -0.2035543421
C   C53       1.0  0.30280  0.71600  0.80350  1.0000 -0.0261842111
C   C54       1.0  0.71600  0.30280  0.69650  1.0000 -0.0261842111
C   C55       1.0  0.69720  0.28400  0.19650  1.0000 -0.0261842111
C   C56       1.0  0.28400  0.69720  0.30350  1.0000 -0.0261842111
C   C57       1.0  0.29580  0.65000  0.74580  1.0000 -0.0763282484
C   C58       1.0  0.65000  0.29580  0.75420  1.0000 -0.0763282484
C   C59       1.0  0.70420  0.35000  0.25420  1.0000 -0.0763282484
C   C60       1.0  0.35000  0.70420  0.24580  1.0000 -0.0763282484
C   C61       1.0  0.45870  0.74850  0.75960  1.0000 0.1210770707
C   C62       1.0  0.74850  0.45870  0.74040  1.0000 0.1210770707
C   C63       1.0  0.54130  0.25150  0.24040  1.0000 0.1210770707
C   C64       1.0  0.25150  0.54130  0.25960  1.0000 0.1210770707
C   C65       1.0  0.42880  0.62180  0.65620  1.0000 0.1321504595
C   C66       1.0  0.62180  0.42880  0.84380  1.0000 0.1321504595
C   C67       1.0  0.57120  0.37820  0.34380  1.0000 0.1321504595
C   C68       1.0  0.37820  0.57120  0.15620  1.0000 0.1321504595
C   C69       1.0  0.49250  0.68390  0.60320  1.0000 -0.1852286855
C   C70       1.0  0.68390  0.49250  0.89680  1.0000 -0.1852286855
C   C71       1.0  0.50750  0.31610  0.39680  1.0000 -0.1852286855
C   C72       1.0  0.31610  0.50750  0.10320  1.0000 -0.1852286855
C   C73       1.0  0.52120  0.63580  0.54200  1.0000 -0.1387855211
C   C74       1.0  0.63580  0.52120  0.95800  1.0000 -0.1387855211
C   C75       1.0  0.47880  0.36420  0.45800  1.0000 -0.1387855211
C   C76       1.0  0.36420  0.47880  0.04200  1.0000 -0.1387855211
C   C77       1.0  0.48560  0.52600  0.53300  1.0000 0.0703935562
C   C78       1.0  0.52600  0.48560  0.96700  1.0000 0.0703935562
C   C79       1.0  0.51440  0.47400  0.46700  1.0000 0.0703935562
C   C80       1.0  0.47400  0.51440  0.03300  1.0000 0.0703935562
C   C81       1.0  0.42460  0.46440  0.58940  1.0000 -0.1111361483
C   C82       1.0  0.46440  0.42460  0.91060  1.0000 -0.1111361483
C   C83       1.0  0.57540  0.53560  0.41060  1.0000 -0.1111361483
C   C84       1.0  0.53560  0.57540  0.08940  1.0000 -0.1111361483
C   C85       1.0  0.39500  0.51060  0.64950  1.0000 -0.1599310288
C   C86       1.0  0.51060  0.39500  0.85050  1.0000 -0.1599310288
C   C87       1.0  0.60500  0.48940  0.35050  1.0000 -0.1599310288
C   C88       1.0  0.48940  0.60500  0.14950  1.0000 -0.1599310288
N   N1        1.0  0.08500  0.71340  0.39540  1.0000 -0.2173226202
N   N2        1.0  0.71340  0.08500  0.10460  1.0000 -0.2173226202
N   N3        1.0  0.91500  0.28660  0.60460  1.0000 -0.2173226202
N   N4        1.0  0.28660  0.91500  0.89540  1.0000 -0.2173226202
N   N5        1.0  0.40550  0.77750  0.81200  1.0000 -0.2644437426
N   N6        1.0  0.77750  0.40550  0.68800  1.0000 -0.2644437426
N   N7        1.0  0.59450  0.22250  0.18800  1.0000 -0.2644437426
N   N8        1.0  0.22250  0.59450  0.31200  1.0000 -0.2644437426
N   N9        1.0  0.39760  0.67060  0.71910  1.0000 0.0028520547
N   N10       1.0  0.67060  0.39760  0.78090  1.0000 0.0028520547
N   N11       1.0  0.60240  0.32940  0.28090  1.0000 0.0028520547
N   N12       1.0  0.32940  0.60240  0.21910  1.0000 0.0028520547
O   O1        1.0  0.37170  0.00630  0.72978  1.0000 -0.5494905958
O   O2        1.0  0.00630  0.37170  0.77022  1.0000 -0.5494905958
O   O3        1.0  0.62830  0.99370  0.27022  1.0000 -0.5494905958
O   O4        1.0  0.99370  0.62830  0.22978  1.0000 -0.5494905958
O   O5        1.0  0.35120  0.19360  0.72620  1.0000 -0.52971771
O   O6        1.0  0.19360  0.35120  0.77380  1.0000 -0.52971771
O   O7        1.0  0.64880  0.80640  0.27380  1.0000 -0.52971771
O   O8        1.0  0.80640  0.64880  0.22620  1.0000 -0.52971771
O   O9        1.0  0.12850  0.44190  0.46587  1.0000 -0.52971771
O   O10       1.0  0.44190  0.12850  0.03413  1.0000 -0.52971771
O   O11       1.0  0.87150  0.55810  0.53413  1.0000 -0.52971771
O   O12       1.0  0.55810  0.87150  0.96587  1.0000 -0.52971771
O   O13       1.0  0.07170  0.37470  0.35065  1.0000 -0.5354923109
O   O14       1.0  0.37470  0.07170  0.14935  1.0000 -0.52971771
O   O15       1.0  0.92830  0.62530  0.64935  1.0000 -0.52971771
O   O16       1.0  0.62530  0.92830  0.85065  1.0000 -0.52971771
