# DDEC6 charges by PACMAN v1.1 (https://github.com/mtap-research/PACMAN-charge/)
data_2014[Cu][nan]3[ASR]23
_chemical_formula_sum              "Cu12 H120 C216 O48"
_cell_length_a       23.3628
_cell_length_b       23.3628
_cell_length_c       23.3628
_cell_angle_alpha    109.471
_cell_angle_beta     109.471
_cell_angle_gamma    109.471

_symmetry_space_group_name_H-M    "P 1"
_symmetry_Int_Tables_number       1

loop_
  _symmetry_equiv_pos_as_xyz
  'x, y, z'

loop_
  _atom_site_type_symbol
  _atom_site_label
  _atom_site_symmetry_multiplicity
  _atom_site_fract_x
  _atom_site_fract_y
  _atom_site_fract_z
  _atom_site_occupancy
  _atom_site_charge
Cu  Cu1       1.0  0.14425  0.64425  0.50000  1.0000 0.844394182
Cu  Cu2       1.0  0.50000  0.14425  0.64425  1.0000 0.844394182
Cu  Cu3       1.0  0.64425  0.50000  0.14425  1.0000 0.844394182
Cu  Cu4       1.0  0.35575  0.50000  0.85575  1.0000 0.844394182
Cu  Cu5       1.0  0.50000  0.85575  0.35575  1.0000 0.844394182
Cu  Cu6       1.0  0.85575  0.35575  0.50000  1.0000 0.844394182
Cu  Cu7       1.0  0.24014  0.74014  0.50000  1.0000 0.8626818705
Cu  Cu8       1.0  0.50000  0.24014  0.74014  1.0000 0.8626818705
Cu  Cu9       1.0  0.74014  0.50000  0.24014  1.0000 0.8626818705
Cu  Cu10      1.0  0.25986  0.50000  0.75986  1.0000 0.8626818705
Cu  Cu11      1.0  0.50000  0.75986  0.25986  1.0000 0.8626818705
Cu  Cu12      1.0  0.75986  0.25986  0.50000  1.0000 0.8626818705
H   H1        1.0  0.21670  0.49160  0.47170  1.0000 0.1257077935
H   H2        1.0  0.47170  0.21670  0.49160  1.0000 0.1257077935
H   H3        1.0  0.49160  0.47170  0.21670  1.0000 0.1257077935
H   H4        1.0  0.25500  0.27490  0.78330  1.0000 0.1257077935
H   H5        1.0  0.52830  0.01990  0.74500  1.0000 0.1257077935
H   H6        1.0  0.74500  0.52830  0.01990  1.0000 0.1257077935
H   H7        1.0  0.72510  0.98010  0.50840  1.0000 0.1257077935
H   H8        1.0  0.27490  0.78330  0.25500  1.0000 0.1257077935
H   H9        1.0  0.50840  0.72510  0.98010  1.0000 0.1257077935
H   H10       1.0  0.01990  0.74500  0.52830  1.0000 0.1257077935
H   H11       1.0  0.78330  0.25500  0.27490  1.0000 0.1257077935
H   H12       1.0  0.98010  0.50840  0.72510  1.0000 0.1257077935
H   H13       1.0  0.78330  0.50840  0.52830  1.0000 0.1257077935
H   H14       1.0  0.52830  0.78330  0.50840  1.0000 0.1257077935
H   H15       1.0  0.50840  0.52830  0.78330  1.0000 0.1257077935
H   H16       1.0  0.74500  0.72510  0.21670  1.0000 0.1257077935
H   H17       1.0  0.47170  0.98010  0.25500  1.0000 0.1257077935
H   H18       1.0  0.25500  0.47170  0.98010  1.0000 0.1257077935
H   H19       1.0  0.27490  0.01990  0.49160  1.0000 0.1257077935
H   H20       1.0  0.72510  0.21670  0.74500  1.0000 0.1257077935
H   H21       1.0  0.49160  0.27490  0.01990  1.0000 0.1257077935
H   H22       1.0  0.98010  0.25500  0.47170  1.0000 0.1257077935
H   H23       1.0  0.21670  0.74500  0.72510  1.0000 0.1257077935
H   H24       1.0  0.01990  0.49160  0.27490  1.0000 0.1257077935
H   H25       1.0  0.40960  0.57850  0.44310  1.0000 0.1123741193
H   H26       1.0  0.44310  0.40960  0.57850  1.0000 0.1123741193
H   H27       1.0  0.57850  0.44310  0.40960  1.0000 0.1123741193
H   H28       1.0  0.03350  0.16890  0.59040  1.0000 0.1123741193
H   H29       1.0  0.55690  0.13540  0.96650  1.0000 0.1123741193
H   H30       1.0  0.96650  0.55690  0.13540  1.0000 0.1123741193
H   H31       1.0  0.83110  0.86460  0.42150  1.0000 0.1123741193
H   H32       1.0  0.16890  0.59040  0.03350  1.0000 0.1123741193
H   H33       1.0  0.42150  0.83110  0.86460  1.0000 0.1123741193
H   H34       1.0  0.13540  0.96650  0.55690  1.0000 0.1123741193
H   H35       1.0  0.59040  0.03350  0.16890  1.0000 0.1123741193
H   H36       1.0  0.86460  0.42150  0.83110  1.0000 0.1123741193
H   H37       1.0  0.59040  0.42150  0.55690  1.0000 0.1123741193
H   H38       1.0  0.55690  0.59040  0.42150  1.0000 0.1123741193
H   H39       1.0  0.42150  0.55690  0.59040  1.0000 0.1123741193
H   H40       1.0  0.96650  0.83110  0.40960  1.0000 0.1123741193
H   H41       1.0  0.44310  0.86460  0.03350  1.0000 0.1123741193
H   H42       1.0  0.03350  0.44310  0.86460  1.0000 0.1123741193
H   H43       1.0  0.16890  0.13540  0.57850  1.0000 0.1123741193
H   H44       1.0  0.83110  0.40960  0.96650  1.0000 0.1123741193
H   H45       1.0  0.57850  0.16890  0.13540  1.0000 0.1123741193
H   H46       1.0  0.86460  0.03350  0.44310  1.0000 0.1123741193
H   H47       1.0  0.40960  0.96650  0.83110  1.0000 0.1123741193
H   H48       1.0  0.13540  0.57850  0.16890  1.0000 0.1123741193
H   H49       1.0  0.26710  0.42230  0.44440  1.0000 0.1180980162
H   H50       1.0  0.44440  0.26710  0.42230  1.0000 0.1180980162
H   H51       1.0  0.42230  0.44440  0.26710  1.0000 0.1180980162
H   H52       1.0  0.17730  0.15520  0.73290  1.0000 0.1180980162
H   H53       1.0  0.55560  0.97790  0.82270  1.0000 0.1180980162
H   H54       1.0  0.82270  0.55560  0.97790  1.0000 0.1180980162
H   H55       1.0  0.84480  0.02210  0.57770  1.0000 0.1180980162
H   H56       1.0  0.15520  0.73290  0.17730  1.0000 0.1180980162
H   H57       1.0  0.57770  0.84480  0.02210  1.0000 0.1180980162
H   H58       1.0  0.97790  0.82270  0.55560  1.0000 0.1180980162
H   H59       1.0  0.73290  0.17730  0.15520  1.0000 0.1180980162
H   H60       1.0  0.02210  0.57770  0.84480  1.0000 0.1180980162
H   H61       1.0  0.73290  0.57770  0.55560  1.0000 0.1180980162
H   H62       1.0  0.55560  0.73290  0.57770  1.0000 0.1180980162
H   H63       1.0  0.57770  0.55560  0.73290  1.0000 0.1180980162
H   H64       1.0  0.82270  0.84480  0.26710  1.0000 0.1180980162
H   H65       1.0  0.44440  0.02210  0.17730  1.0000 0.1180980162
H   H66       1.0  0.17730  0.44440  0.02210  1.0000 0.1180980162
H   H67       1.0  0.15520  0.97790  0.42230  1.0000 0.1180980162
H   H68       1.0  0.84480  0.26710  0.82270  1.0000 0.1180980162
H   H69       1.0  0.42230  0.15520  0.97790  1.0000 0.1180980162
H   H70       1.0  0.02210  0.17730  0.44440  1.0000 0.1180980162
H   H71       1.0  0.26710  0.82270  0.84480  1.0000 0.1180980162
H   H72       1.0  0.97790  0.42230  0.15520  1.0000 0.1180980162
H   H73       1.0  0.36190  0.64770  0.47520  1.0000 0.1257077935
H   H74       1.0  0.47520  0.36190  0.64770  1.0000 0.1257077935
H   H75       1.0  0.64770  0.47520  0.36190  1.0000 0.1257077935
H   H76       1.0  0.11330  0.28580  0.63810  1.0000 0.1257077935
H   H77       1.0  0.52480  0.17250  0.88670  1.0000 0.1257077935
H   H78       1.0  0.88670  0.52480  0.17250  1.0000 0.1257077935
H   H79       1.0  0.71420  0.82750  0.35230  1.0000 0.1257077935
H   H80       1.0  0.28580  0.63810  0.11330  1.0000 0.1257077935
H   H81       1.0  0.35230  0.71420  0.82750  1.0000 0.1257077935
H   H82       1.0  0.17250  0.88670  0.52480  1.0000 0.1257077935
H   H83       1.0  0.63810  0.11330  0.28580  1.0000 0.1257077935
H   H84       1.0  0.82750  0.35230  0.71420  1.0000 0.1180980162
H   H85       1.0  0.63810  0.35230  0.52480  1.0000 0.1257077935
H   H86       1.0  0.52480  0.63810  0.35230  1.0000 0.1257077935
H   H87       1.0  0.35230  0.52480  0.63810  1.0000 0.1257077935
H   H88       1.0  0.88670  0.71420  0.36190  1.0000 0.1257077935
H   H89       1.0  0.47520  0.82750  0.11330  1.0000 0.1257077935
H   H90       1.0  0.11330  0.47520  0.82750  1.0000 0.1257077935
H   H91       1.0  0.28580  0.17250  0.64770  1.0000 0.1257077935
H   H92       1.0  0.71420  0.36190  0.88670  1.0000 0.1180980162
H   H93       1.0  0.64770  0.28580  0.17250  1.0000 0.1257077935
H   H94       1.0  0.82750  0.11330  0.47520  1.0000 0.1257077935
H   H95       1.0  0.36190  0.88670  0.71420  1.0000 0.1257077935
H   H96       1.0  0.17250  0.64770  0.28580  1.0000 0.1257077935
H   H97       1.0  0.40630  0.48460  0.36430  1.0000 0.1123741193
H   H98       1.0  0.36430  0.40630  0.48460  1.0000 0.1123741193
H   H99       1.0  0.48460  0.36430  0.40630  1.0000 0.1123741193
H   H100      1.0  0.95800  0.07830  0.59370  1.0000 0.1123741193
H   H101      1.0  0.63570  0.12030  0.04200  1.0000 0.1123741193
H   H102      1.0  0.04200  0.63570  0.12030  1.0000 0.1123741193
H   H103      1.0  0.92170  0.87970  0.51540  1.0000 0.1123741193
H   H104      1.0  0.07830  0.59370  0.95800  1.0000 0.1123741193
H   H105      1.0  0.51540  0.92170  0.87970  1.0000 0.1123741193
H   H106      1.0  0.12030  0.04200  0.63570  1.0000 0.1123741193
H   H107      1.0  0.59370  0.95800  0.07830  1.0000 0.1123741193
H   H108      1.0  0.87970  0.51540  0.92170  1.0000 0.1123741193
H   H109      1.0  0.59370  0.51540  0.63570  1.0000 0.1123741193
H   H110      1.0  0.63570  0.59370  0.51540  1.0000 0.1123741193
H   H111      1.0  0.51540  0.63570  0.59370  1.0000 0.1123741193
H   H112      1.0  0.04200  0.92170  0.40630  1.0000 0.1123741193
H   H113      1.0  0.36430  0.87970  0.95800  1.0000 0.1123741193
H   H114      1.0  0.95800  0.36430  0.87970  1.0000 0.1123741193
H   H115      1.0  0.07830  0.12030  0.48460  1.0000 0.1123741193
H   H116      1.0  0.92170  0.40630  0.04200  1.0000 0.1123741193
H   H117      1.0  0.48460  0.07830  0.12030  1.0000 0.1123741193
H   H118      1.0  0.87970  0.95800  0.36430  1.0000 0.1123741193
H   H119      1.0  0.40630  0.04200  0.92170  1.0000 0.1123741193
H   H120      1.0  0.12030  0.48460  0.07830  1.0000 0.1123741193
C   C1        1.0  0.34331  0.49240  0.44011  1.0000 0.0783743632
C   C2        1.0  0.44011  0.34331  0.49240  1.0000 0.0783743632
C   C3        1.0  0.49240  0.44011  0.34331  1.0000 0.0783743632
C   C4        1.0  0.09680  0.14909  0.65669  1.0000 0.0783743632
C   C5        1.0  0.55989  0.05229  0.90320  1.0000 0.0783743632
C   C6        1.0  0.90320  0.55989  0.05229  1.0000 0.0783743632
C   C7        1.0  0.85091  0.94771  0.50760  1.0000 0.0783743632
C   C8        1.0  0.14909  0.65669  0.09680  1.0000 0.0783743632
C   C9        1.0  0.50760  0.85091  0.94771  1.0000 0.0783743632
C   C10       1.0  0.05229  0.90320  0.55989  1.0000 0.0783743632
C   C11       1.0  0.65669  0.09680  0.14909  1.0000 0.0783743632
C   C12       1.0  0.94771  0.50760  0.85091  1.0000 0.0783743632
C   C13       1.0  0.65669  0.50760  0.55989  1.0000 0.0783743632
C   C14       1.0  0.55989  0.65669  0.50760  1.0000 0.0783743632
C   C15       1.0  0.50760  0.55989  0.65669  1.0000 0.0783743632
C   C16       1.0  0.90320  0.85091  0.34331  1.0000 0.0783743632
C   C17       1.0  0.44011  0.94771  0.09680  1.0000 0.0783743632
C   C18       1.0  0.09680  0.44011  0.94771  1.0000 0.0783743632
C   C19       1.0  0.14909  0.05229  0.49240  1.0000 0.0783743632
C   C20       1.0  0.85091  0.34331  0.90320  1.0000 0.0783743632
C   C21       1.0  0.49240  0.14909  0.05229  1.0000 0.0783743632
C   C22       1.0  0.94771  0.09680  0.44011  1.0000 0.0783743632
C   C23       1.0  0.34331  0.90320  0.85091  1.0000 0.0783743632
C   C24       1.0  0.05229  0.49240  0.14909  1.0000 0.0783743632
C   C25       1.0  0.25253  0.62107  0.49260  1.0000 0.5871699004
C   C26       1.0  0.49260  0.25253  0.62107  1.0000 0.5871699004
C   C27       1.0  0.62107  0.49260  0.25253  1.0000 0.5871699004
C   C28       1.0  0.24007  0.36854  0.74747  1.0000 0.5871699004
C   C29       1.0  0.50740  0.12847  0.75993  1.0000 0.5871699004
C   C30       1.0  0.75993  0.50740  0.12847  1.0000 0.5871699004
C   C31       1.0  0.63146  0.87153  0.37893  1.0000 0.5871699004
C   C32       1.0  0.36854  0.74747  0.24007  1.0000 0.5871699004
C   C33       1.0  0.37893  0.63146  0.87153  1.0000 0.5871699004
C   C34       1.0  0.12847  0.75993  0.50740  1.0000 0.5871699004
C   C35       1.0  0.74747  0.24007  0.36854  1.0000 0.5871699004
C   C36       1.0  0.87153  0.37893  0.63146  1.0000 0.5871699004
C   C37       1.0  0.74747  0.37893  0.50740  1.0000 0.5871699004
C   C38       1.0  0.50740  0.74747  0.37893  1.0000 0.5871699004
C   C39       1.0  0.37893  0.50740  0.74747  1.0000 0.5871699004
C   C40       1.0  0.75993  0.63146  0.25253  1.0000 0.5871699004
C   C41       1.0  0.49260  0.87153  0.24007  1.0000 0.5871699004
C   C42       1.0  0.24007  0.49260  0.87153  1.0000 0.5871699004
C   C43       1.0  0.36854  0.12847  0.62107  1.0000 0.5871699004
C   C44       1.0  0.63146  0.25253  0.75993  1.0000 0.5871699004
C   C45       1.0  0.62107  0.36854  0.12847  1.0000 0.5871699004
C   C46       1.0  0.87153  0.24007  0.49260  1.0000 0.5871699004
C   C47       1.0  0.25253  0.75993  0.63146  1.0000 0.5871699004
C   C48       1.0  0.12847  0.62107  0.36854  1.0000 0.5871699004
C   C49       1.0  0.25620  0.50930  0.46690  1.0000 -0.0903965457
C   C50       1.0  0.46690  0.25620  0.50930  1.0000 -0.0903965457
C   C51       1.0  0.50930  0.46690  0.25620  1.0000 -0.0903965457
C   C52       1.0  0.21070  0.25310  0.74380  1.0000 -0.0903965457
C   C53       1.0  0.53310  0.04240  0.78930  1.0000 -0.0903965457
C   C54       1.0  0.78930  0.53310  0.04240  1.0000 -0.0903965457
C   C55       1.0  0.74690  0.95760  0.49070  1.0000 -0.0903965457
C   C56       1.0  0.25310  0.74380  0.21070  1.0000 -0.0903965457
C   C57       1.0  0.49070  0.74690  0.95760  1.0000 -0.0903965457
C   C58       1.0  0.04240  0.78930  0.53310  1.0000 -0.0903965457
C   C59       1.0  0.74380  0.21070  0.25310  1.0000 -0.0903965457
C   C60       1.0  0.95760  0.49070  0.74690  1.0000 -0.0903965457
C   C61       1.0  0.74380  0.49070  0.53310  1.0000 -0.0903965457
C   C62       1.0  0.53310  0.74380  0.49070  1.0000 -0.0903965457
C   C63       1.0  0.49070  0.53310  0.74380  1.0000 -0.0903965457
C   C64       1.0  0.78930  0.74690  0.25620  1.0000 -0.0903965457
C   C65       1.0  0.46690  0.95760  0.21070  1.0000 -0.0903965457
C   C66       1.0  0.21070  0.46690  0.95760  1.0000 -0.0903965457
C   C67       1.0  0.25310  0.04240  0.50930  1.0000 -0.0903965457
C   C68       1.0  0.74690  0.25620  0.78930  1.0000 -0.0903965457
C   C69       1.0  0.50930  0.25310  0.04240  1.0000 -0.0903965457
C   C70       1.0  0.95760  0.21070  0.46690  1.0000 -0.0903965457
C   C71       1.0  0.25620  0.78930  0.74690  1.0000 -0.0903965457
C   C72       1.0  0.04240  0.50930  0.25310  1.0000 -0.0903965457
C   C73       1.0  0.37110  0.56080  0.44950  1.0000 -0.162148685
C   C74       1.0  0.44950  0.37110  0.56080  1.0000 -0.162148685
C   C75       1.0  0.56080  0.44950  0.37110  1.0000 -0.162148685
C   C76       1.0  0.07840  0.18970  0.62890  1.0000 -0.162148685
C   C77       1.0  0.55050  0.11130  0.92160  1.0000 -0.162148685
C   C78       1.0  0.92160  0.55050  0.11130  1.0000 -0.162148685
C   C79       1.0  0.81030  0.88870  0.43920  1.0000 -0.162148685
C   C80       1.0  0.18970  0.62890  0.07840  1.0000 -0.162148685
C   C81       1.0  0.43920  0.81030  0.88870  1.0000 -0.162148685
C   C82       1.0  0.11130  0.92160  0.55050  1.0000 -0.162148685
C   C83       1.0  0.62890  0.07840  0.18970  1.0000 -0.162148685
C   C84       1.0  0.88870  0.43920  0.81030  1.0000 -0.162148685
C   C85       1.0  0.62890  0.43920  0.55050  1.0000 -0.162148685
C   C86       1.0  0.55050  0.62890  0.43920  1.0000 -0.162148685
C   C87       1.0  0.43920  0.55050  0.62890  1.0000 -0.162148685
C   C88       1.0  0.92160  0.81030  0.37110  1.0000 -0.162148685
C   C89       1.0  0.44950  0.88870  0.07840  1.0000 -0.162148685
C   C90       1.0  0.07840  0.44950  0.88870  1.0000 -0.162148685
C   C91       1.0  0.18970  0.11130  0.56080  1.0000 -0.162148685
C   C92       1.0  0.81030  0.37110  0.92160  1.0000 -0.162148685
C   C93       1.0  0.56080  0.18970  0.11130  1.0000 -0.162148685
C   C94       1.0  0.88870  0.07840  0.44950  1.0000 -0.162148685
C   C95       1.0  0.37110  0.92160  0.81030  1.0000 -0.162148685
C   C96       1.0  0.11130  0.56080  0.18970  1.0000 -0.162148685
C   C97       1.0  0.28590  0.46720  0.44950  1.0000 -0.162148685
C   C98       1.0  0.44950  0.28590  0.46720  1.0000 -0.162148685
C   C99       1.0  0.46720  0.44950  0.28590  1.0000 -0.162148685
C   C100      1.0  0.16360  0.18130  0.71410  1.0000 -0.162148685
C   C101      1.0  0.55050  0.01770  0.83640  1.0000 -0.162148685
C   C102      1.0  0.83640  0.55050  0.01770  1.0000 -0.162148685
C   C103      1.0  0.81870  0.98230  0.53280  1.0000 -0.162148685
C   C104      1.0  0.18130  0.71410  0.16360  1.0000 -0.162148685
C   C105      1.0  0.53280  0.81870  0.98230  1.0000 -0.162148685
C   C106      1.0  0.01770  0.83640  0.55050  1.0000 -0.162148685
C   C107      1.0  0.71410  0.16360  0.18130  1.0000 -0.162148685
C   C108      1.0  0.98230  0.53280  0.81870  1.0000 -0.162148685
C   C109      1.0  0.71410  0.53280  0.55050  1.0000 -0.162148685
C   C110      1.0  0.55050  0.71410  0.53280  1.0000 -0.162148685
C   C111      1.0  0.53280  0.55050  0.71410  1.0000 -0.162148685
C   C112      1.0  0.83640  0.81870  0.28590  1.0000 -0.162148685
C   C113      1.0  0.44950  0.98230  0.16360  1.0000 -0.162148685
C   C114      1.0  0.16360  0.44950  0.98230  1.0000 -0.162148685
C   C115      1.0  0.18130  0.01770  0.46720  1.0000 -0.162148685
C   C116      1.0  0.81870  0.28590  0.83640  1.0000 -0.162148685
C   C117      1.0  0.46720  0.18130  0.01770  1.0000 -0.162148685
C   C118      1.0  0.98230  0.16360  0.44950  1.0000 -0.162148685
C   C119      1.0  0.28590  0.83640  0.81870  1.0000 -0.162148685
C   C120      1.0  0.01770  0.46720  0.18130  1.0000 -0.162148685
C   C121      1.0  0.34230  0.60200  0.46830  1.0000 -0.0903965457
C   C122      1.0  0.46830  0.34230  0.60200  1.0000 -0.0903965457
C   C123      1.0  0.60200  0.46830  0.34230  1.0000 -0.0903965457
C   C124      1.0  0.12600  0.25970  0.65770  1.0000 -0.0903965457
C   C125      1.0  0.53170  0.13370  0.87400  1.0000 -0.0903965457
C   C126      1.0  0.87400  0.53170  0.13370  1.0000 -0.0903965457
C   C127      1.0  0.74030  0.86630  0.39800  1.0000 -0.0903965457
C   C128      1.0  0.25970  0.65770  0.12600  1.0000 -0.0903965457
C   C129      1.0  0.39800  0.74030  0.86630  1.0000 -0.0903965457
C   C130      1.0  0.13370  0.87400  0.53170  1.0000 -0.0903965457
C   C131      1.0  0.65770  0.12600  0.25970  1.0000 -0.0903965457
C   C132      1.0  0.86630  0.39800  0.74030  1.0000 -0.0903965457
C   C133      1.0  0.65770  0.39800  0.53170  1.0000 -0.0903965457
C   C134      1.0  0.53170  0.65770  0.39800  1.0000 -0.0903965457
C   C135      1.0  0.39800  0.53170  0.65770  1.0000 -0.0903965457
C   C136      1.0  0.87400  0.74030  0.34230  1.0000 -0.0903965457
C   C137      1.0  0.46830  0.86630  0.12600  1.0000 -0.0903965457
C   C138      1.0  0.12600  0.46830  0.86630  1.0000 -0.0903965457
C   C139      1.0  0.25970  0.13370  0.60200  1.0000 -0.0903965457
C   C140      1.0  0.74030  0.34230  0.87400  1.0000 -0.0903965457
C   C141      1.0  0.60200  0.25970  0.13370  1.0000 -0.0903965457
C   C142      1.0  0.86630  0.12600  0.46830  1.0000 -0.0903965457
C   C143      1.0  0.34230  0.87400  0.74030  1.0000 -0.0903965457
C   C144      1.0  0.13370  0.60200  0.25970  1.0000 -0.0903965457
C   C145      1.0  0.41166  0.45844  0.38658  1.0000 -0.1975452039
C   C146      1.0  0.38658  0.41166  0.45844  1.0000 -0.1975452039
C   C147      1.0  0.45844  0.38658  0.41166  1.0000 -0.1975452039
C   C148      1.0  0.97492  0.04678  0.58834  1.0000 -0.1975452039
C   C149      1.0  0.61342  0.07186  0.02508  1.0000 -0.1975452039
C   C150      1.0  0.02508  0.61342  0.07186  1.0000 -0.1975452039
C   C151      1.0  0.95322  0.92814  0.54156  1.0000 -0.1975452039
C   C152      1.0  0.04678  0.58834  0.97492  1.0000 -0.1975452039
C   C153      1.0  0.54156  0.95322  0.92814  1.0000 -0.1975452039
C   C154      1.0  0.07186  0.02508  0.61342  1.0000 -0.1975452039
C   C155      1.0  0.58834  0.97492  0.04678  1.0000 -0.1975452039
C   C156      1.0  0.92814  0.54156  0.95322  1.0000 -0.1975452039
C   C157      1.0  0.58834  0.54156  0.61342  1.0000 -0.1975452039
C   C158      1.0  0.61342  0.58834  0.54156  1.0000 -0.1975452039
C   C159      1.0  0.54156  0.61342  0.58834  1.0000 -0.1975452039
C   C160      1.0  0.02508  0.95322  0.41166  1.0000 -0.1975452039
C   C161      1.0  0.38658  0.92814  0.97492  1.0000 -0.1975452039
C   C162      1.0  0.97492  0.38658  0.92814  1.0000 -0.1975452039
C   C163      1.0  0.04678  0.07186  0.45844  1.0000 -0.1975452039
C   C164      1.0  0.95322  0.41166  0.02508  1.0000 -0.1975452039
C   C165      1.0  0.45844  0.04678  0.07186  1.0000 -0.1975452039
C   C166      1.0  0.92814  0.97492  0.38658  1.0000 -0.1975452039
C   C167      1.0  0.41166  0.02508  0.95322  1.0000 -0.1975452039
C   C168      1.0  0.07186  0.45844  0.04678  1.0000 -0.1975452039
C   C169      1.0  0.28493  0.57650  0.47693  1.0000 -0.0345216085
C   C170      1.0  0.47693  0.28493  0.57650  1.0000 -0.0345216085
C   C171      1.0  0.57650  0.47693  0.28493  1.0000 -0.0345216085
C   C172      1.0  0.19200  0.29157  0.71507  1.0000 -0.0345216085
C   C173      1.0  0.52307  0.09957  0.80800  1.0000 -0.0345216085
C   C174      1.0  0.80800  0.52307  0.09957  1.0000 -0.0345216085
C   C175      1.0  0.70843  0.90043  0.42350  1.0000 -0.0345216085
C   C176      1.0  0.29157  0.71507  0.19200  1.0000 -0.0345216085
C   C177      1.0  0.42350  0.70843  0.90043  1.0000 -0.0345216085
C   C178      1.0  0.09957  0.80800  0.52307  1.0000 -0.0345216085
C   C179      1.0  0.71507  0.19200  0.29157  1.0000 -0.0345216085
C   C180      1.0  0.90043  0.42350  0.70843  1.0000 -0.0345216085
C   C181      1.0  0.71507  0.42350  0.52307  1.0000 -0.0345216085
C   C182      1.0  0.52307  0.71507  0.42350  1.0000 -0.0345216085
C   C183      1.0  0.42350  0.52307  0.71507  1.0000 -0.0345216085
C   C184      1.0  0.80800  0.70843  0.28493  1.0000 -0.0345216085
C   C185      1.0  0.47693  0.90043  0.19200  1.0000 -0.0345216085
C   C186      1.0  0.19200  0.47693  0.90043  1.0000 -0.0345216085
C   C187      1.0  0.29157  0.09957  0.57650  1.0000 -0.0345216085
C   C188      1.0  0.70843  0.28493  0.80800  1.0000 -0.0345216085
C   C189      1.0  0.57650  0.29157  0.09957  1.0000 -0.0345216085
C   C190      1.0  0.90043  0.19200  0.47693  1.0000 -0.0345216085
C   C191      1.0  0.28493  0.80800  0.70843  1.0000 -0.0345216085
C   C192      1.0  0.09957  0.57650  0.29157  1.0000 -0.0345216085
C   C193      1.0  0.37939  0.45185  0.42656  1.0000 0.0783743632
C   C194      1.0  0.42656  0.37939  0.45185  1.0000 0.0783743632
C   C195      1.0  0.45185  0.42656  0.37939  1.0000 0.0783743632
C   C196      1.0  0.04717  0.07246  0.62061  1.0000 0.0783743632
C   C197      1.0  0.57344  0.02529  0.95283  1.0000 0.0783743632
C   C198      1.0  0.95283  0.57344  0.02529  1.0000 0.0783743632
C   C199      1.0  0.92754  0.97471  0.54815  1.0000 0.0783743632
C   C200      1.0  0.07246  0.62061  0.04717  1.0000 0.0783743632
C   C201      1.0  0.54815  0.92754  0.97471  1.0000 0.0783743632
C   C202      1.0  0.02529  0.95283  0.57344  1.0000 0.0783743632
C   C203      1.0  0.62061  0.04717  0.07246  1.0000 0.0783743632
C   C204      1.0  0.97471  0.54815  0.92754  1.0000 0.0783743632
C   C205      1.0  0.62061  0.54815  0.57344  1.0000 0.0783743632
C   C206      1.0  0.57344  0.62061  0.54815  1.0000 0.0783743632
C   C207      1.0  0.54815  0.57344  0.62061  1.0000 0.0783743632
C   C208      1.0  0.95283  0.92754  0.37939  1.0000 0.0783743632
C   C209      1.0  0.42656  0.97471  0.04717  1.0000 0.0783743632
C   C210      1.0  0.04717  0.42656  0.97471  1.0000 0.0783743632
C   C211      1.0  0.07246  0.02529  0.45185  1.0000 0.0783743632
C   C212      1.0  0.92754  0.37939  0.95283  1.0000 0.0783743632
C   C213      1.0  0.45185  0.07246  0.02529  1.0000 0.0783743632
C   C214      1.0  0.97471  0.04717  0.42656  1.0000 0.0783743632
C   C215      1.0  0.37939  0.95283  0.92754  1.0000 0.0783743632
C   C216      1.0  0.02529  0.45185  0.07246  1.0000 0.0783743632
O   O1        1.0  0.19909  0.59649  0.49786  1.0000 -0.5078215179
O   O2        1.0  0.49786  0.19909  0.59649  1.0000 -0.5078215179
O   O3        1.0  0.59649  0.49786  0.19909  1.0000 -0.5078215179
O   O4        1.0  0.29877  0.39740  0.80091  1.0000 -0.5078215179
O   O5        1.0  0.50214  0.09863  0.70123  1.0000 -0.5078215179
O   O6        1.0  0.70123  0.50214  0.09863  1.0000 -0.5078215179
O   O7        1.0  0.60260  0.90137  0.40351  1.0000 -0.5078215179
O   O8        1.0  0.39740  0.80091  0.29877  1.0000 -0.5078215179
O   O9        1.0  0.40351  0.60260  0.90137  1.0000 -0.5078215179
O   O10       1.0  0.09863  0.70123  0.50214  1.0000 -0.5078215179
O   O11       1.0  0.80091  0.29877  0.39740  1.0000 -0.5078215179
O   O12       1.0  0.90137  0.40351  0.60260  1.0000 -0.5078215179
O   O13       1.0  0.80091  0.40351  0.50214  1.0000 -0.5078215179
O   O14       1.0  0.50214  0.80091  0.40351  1.0000 -0.5078215179
O   O15       1.0  0.40351  0.50214  0.80091  1.0000 -0.5078215179
O   O16       1.0  0.70123  0.60260  0.19909  1.0000 -0.5078215179
O   O17       1.0  0.49786  0.90137  0.29877  1.0000 -0.5078215179
O   O18       1.0  0.29877  0.49786  0.90137  1.0000 -0.5078215179
O   O19       1.0  0.39740  0.09863  0.59649  1.0000 -0.5078215179
O   O20       1.0  0.60260  0.19909  0.70123  1.0000 -0.5078215179
O   O21       1.0  0.59649  0.39740  0.09863  1.0000 -0.5078215179
O   O22       1.0  0.90137  0.29877  0.49786  1.0000 -0.5078215179
O   O23       1.0  0.19909  0.70123  0.60260  1.0000 -0.5078215179
O   O24       1.0  0.09863  0.59649  0.39740  1.0000 -0.5078215179
O   O25       1.0  0.28042  0.67961  0.49771  1.0000 -0.5193365417
O   O26       1.0  0.49771  0.28042  0.67961  1.0000 -0.5193365417
O   O27       1.0  0.67961  0.49771  0.28042  1.0000 -0.5193365417
O   O28       1.0  0.21729  0.39919  0.71958  1.0000 -0.5193365417
O   O29       1.0  0.50229  0.18190  0.78271  1.0000 -0.5193365417
O   O30       1.0  0.78271  0.50229  0.18190  1.0000 -0.5193365417
O   O31       1.0  0.60081  0.81810  0.32039  1.0000 -0.5193365417
O   O32       1.0  0.39919  0.71958  0.21729  1.0000 -0.5193365417
O   O33       1.0  0.32039  0.60081  0.81810  1.0000 -0.5193365417
O   O34       1.0  0.18190  0.78271  0.50229  1.0000 -0.5193365417
O   O35       1.0  0.71958  0.21729  0.39919  1.0000 -0.5193365417
O   O36       1.0  0.81810  0.32039  0.60081  1.0000 -0.5193365417
O   O37       1.0  0.71958  0.32039  0.50229  1.0000 -0.5193365417
O   O38       1.0  0.50229  0.71958  0.32039  1.0000 -0.5193365417
O   O39       1.0  0.32039  0.50229  0.71958  1.0000 -0.5193365417
O   O40       1.0  0.78271  0.60081  0.28042  1.0000 -0.5193365417
O   O41       1.0  0.49771  0.81810  0.21729  1.0000 -0.5193365417
O   O42       1.0  0.21729  0.49771  0.81810  1.0000 -0.5193365417
O   O43       1.0  0.39919  0.18190  0.67961  1.0000 -0.5193365417
O   O44       1.0  0.60081  0.28042  0.78271  1.0000 -0.5193365417
O   O45       1.0  0.67961  0.39919  0.18190  1.0000 -0.5193365417
O   O46       1.0  0.81810  0.21729  0.49771  1.0000 -0.5193365417
O   O47       1.0  0.28042  0.78271  0.60081  1.0000 -0.5193365417
O   O48       1.0  0.18190  0.67961  0.39919  1.0000 -0.5193365417
