# DDEC6 charges by PACMAN v1.1 (https://github.com/mtap-research/PACMAN-charge/)
data_2014[Cu][nan]3[ASR]24
_chemical_formula_sum              "Cu12 H120 C216 O48"
_cell_length_a       23.3593
_cell_length_b       23.3593
_cell_length_c       23.3593
_cell_angle_alpha    109.471
_cell_angle_beta     109.471
_cell_angle_gamma    109.471

_symmetry_space_group_name_H-M    "P 1"
_symmetry_Int_Tables_number       1

loop_
  _symmetry_equiv_pos_as_xyz
  'x, y, z'

loop_
  _atom_site_type_symbol
  _atom_site_label
  _atom_site_symmetry_multiplicity
  _atom_site_fract_x
  _atom_site_fract_y
  _atom_site_fract_z
  _atom_site_occupancy
  _atom_site_charge
Cu  Cu1       1.0  0.14412  0.64412  0.50000  1.0000 0.8401917631
Cu  Cu2       1.0  0.50000  0.14412  0.64412  1.0000 0.8401917631
Cu  Cu3       1.0  0.64412  0.50000  0.14412  1.0000 0.8401917631
Cu  Cu4       1.0  0.35588  0.50000  0.85588  1.0000 0.8401917631
Cu  Cu5       1.0  0.50000  0.85588  0.35588  1.0000 0.8401917631
Cu  Cu6       1.0  0.85588  0.35588  0.50000  1.0000 0.8401917631
Cu  Cu7       1.0  0.24011  0.74011  0.50000  1.0000 0.8620220338
Cu  Cu8       1.0  0.50000  0.24011  0.74011  1.0000 0.8620220338
Cu  Cu9       1.0  0.74011  0.50000  0.24011  1.0000 0.8620220338
Cu  Cu10      1.0  0.25989  0.50000  0.75989  1.0000 0.8620220338
Cu  Cu11      1.0  0.50000  0.75989  0.25989  1.0000 0.8620220338
Cu  Cu12      1.0  0.75989  0.25989  0.50000  1.0000 0.8620220338
H   H1        1.0  0.21620  0.49110  0.47110  1.0000 0.1259139456
H   H2        1.0  0.47110  0.21620  0.49110  1.0000 0.1259139456
H   H3        1.0  0.49110  0.47110  0.21620  1.0000 0.1259139456
H   H4        1.0  0.25490  0.27490  0.78380  1.0000 0.1259139456
H   H5        1.0  0.52890  0.02000  0.74510  1.0000 0.1259139456
H   H6        1.0  0.74510  0.52890  0.02000  1.0000 0.1259139456
H   H7        1.0  0.72510  0.98000  0.50890  1.0000 0.1259139456
H   H8        1.0  0.27490  0.78380  0.25490  1.0000 0.1259139456
H   H9        1.0  0.50890  0.72510  0.98000  1.0000 0.1259139456
H   H10       1.0  0.02000  0.74510  0.52890  1.0000 0.1259139456
H   H11       1.0  0.78380  0.25490  0.27490  1.0000 0.1259139456
H   H12       1.0  0.98000  0.50890  0.72510  1.0000 0.1259139456
H   H13       1.0  0.78380  0.50890  0.52890  1.0000 0.1259139456
H   H14       1.0  0.52890  0.78380  0.50890  1.0000 0.1259139456
H   H15       1.0  0.50890  0.52890  0.78380  1.0000 0.1259139456
H   H16       1.0  0.74510  0.72510  0.21620  1.0000 0.1259139456
H   H17       1.0  0.47110  0.98000  0.25490  1.0000 0.1259139456
H   H18       1.0  0.25490  0.47110  0.98000  1.0000 0.1259139456
H   H19       1.0  0.27490  0.02000  0.49110  1.0000 0.1259139456
H   H20       1.0  0.72510  0.21620  0.74510  1.0000 0.1259139456
H   H21       1.0  0.49110  0.27490  0.02000  1.0000 0.1259139456
H   H22       1.0  0.98000  0.25490  0.47110  1.0000 0.1259139456
H   H23       1.0  0.21620  0.74510  0.72510  1.0000 0.1259139456
H   H24       1.0  0.02000  0.49110  0.27490  1.0000 0.1259139456
H   H25       1.0  0.40930  0.57840  0.44270  1.0000 0.1119292432
H   H26       1.0  0.44270  0.40930  0.57840  1.0000 0.1119292432
H   H27       1.0  0.57840  0.44270  0.40930  1.0000 0.1119292432
H   H28       1.0  0.03340  0.16910  0.59070  1.0000 0.1119292432
H   H29       1.0  0.55730  0.13570  0.96660  1.0000 0.1119292432
H   H30       1.0  0.96660  0.55730  0.13570  1.0000 0.1119292432
H   H31       1.0  0.83090  0.86430  0.42160  1.0000 0.1119292432
H   H32       1.0  0.16910  0.59070  0.03340  1.0000 0.1119292432
H   H33       1.0  0.42160  0.83090  0.86430  1.0000 0.1119292432
H   H34       1.0  0.13570  0.96660  0.55730  1.0000 0.1119292432
H   H35       1.0  0.59070  0.03340  0.16910  1.0000 0.1119292432
H   H36       1.0  0.86430  0.42160  0.83090  1.0000 0.1119292432
H   H37       1.0  0.59070  0.42160  0.55730  1.0000 0.1119292432
H   H38       1.0  0.55730  0.59070  0.42160  1.0000 0.1119292432
H   H39       1.0  0.42160  0.55730  0.59070  1.0000 0.1119292432
H   H40       1.0  0.96660  0.83090  0.40930  1.0000 0.1119292432
H   H41       1.0  0.44270  0.86430  0.03340  1.0000 0.1119292432
H   H42       1.0  0.03340  0.44270  0.86430  1.0000 0.1119292432
H   H43       1.0  0.16910  0.13570  0.57840  1.0000 0.1119292432
H   H44       1.0  0.83090  0.40930  0.96660  1.0000 0.1119292432
H   H45       1.0  0.57840  0.16910  0.13570  1.0000 0.1119292432
H   H46       1.0  0.86430  0.03340  0.44270  1.0000 0.1119292432
H   H47       1.0  0.40930  0.96660  0.83090  1.0000 0.1119292432
H   H48       1.0  0.13570  0.57840  0.16910  1.0000 0.1119292432
H   H49       1.0  0.26660  0.42200  0.44360  1.0000 0.1178047026
H   H50       1.0  0.44360  0.26660  0.42200  1.0000 0.1178047026
H   H51       1.0  0.42200  0.44360  0.26660  1.0000 0.1178047026
H   H52       1.0  0.17700  0.15540  0.73340  1.0000 0.1178047026
H   H53       1.0  0.55640  0.97840  0.82300  1.0000 0.1178047026
H   H54       1.0  0.82300  0.55640  0.97840  1.0000 0.1178047026
H   H55       1.0  0.84460  0.02160  0.57800  1.0000 0.1178047026
H   H56       1.0  0.15540  0.73340  0.17700  1.0000 0.1178047026
H   H57       1.0  0.57800  0.84460  0.02160  1.0000 0.1178047026
H   H58       1.0  0.97840  0.82300  0.55640  1.0000 0.1178047026
H   H59       1.0  0.73340  0.17700  0.15540  1.0000 0.1178047026
H   H60       1.0  0.02160  0.57800  0.84460  1.0000 0.1178047026
H   H61       1.0  0.73340  0.57800  0.55640  1.0000 0.1178047026
H   H62       1.0  0.55640  0.73340  0.57800  1.0000 0.1178047026
H   H63       1.0  0.57800  0.55640  0.73340  1.0000 0.1178047026
H   H64       1.0  0.82300  0.84460  0.26660  1.0000 0.1178047026
H   H65       1.0  0.44360  0.02160  0.17700  1.0000 0.1178047026
H   H66       1.0  0.17700  0.44360  0.02160  1.0000 0.1178047026
H   H67       1.0  0.15540  0.97840  0.42200  1.0000 0.1178047026
H   H68       1.0  0.84460  0.26660  0.82300  1.0000 0.1178047026
H   H69       1.0  0.42200  0.15540  0.97840  1.0000 0.1178047026
H   H70       1.0  0.02160  0.17700  0.44360  1.0000 0.1178047026
H   H71       1.0  0.26660  0.82300  0.84460  1.0000 0.1178047026
H   H72       1.0  0.97840  0.42200  0.15540  1.0000 0.1178047026
H   H73       1.0  0.36170  0.64770  0.47540  1.0000 0.1259139456
H   H74       1.0  0.47540  0.36170  0.64770  1.0000 0.1259139456
H   H75       1.0  0.64770  0.47540  0.36170  1.0000 0.1259139456
H   H76       1.0  0.11370  0.28600  0.63830  1.0000 0.1259139456
H   H77       1.0  0.52460  0.17230  0.88630  1.0000 0.1259139456
H   H78       1.0  0.88630  0.52460  0.17230  1.0000 0.1259139456
H   H79       1.0  0.71400  0.82770  0.35230  1.0000 0.1259139456
H   H80       1.0  0.28600  0.63830  0.11370  1.0000 0.1259139456
H   H81       1.0  0.35230  0.71400  0.82770  1.0000 0.1259139456
H   H82       1.0  0.17230  0.88630  0.52460  1.0000 0.1259139456
H   H83       1.0  0.63830  0.11370  0.28600  1.0000 0.1259139456
H   H84       1.0  0.82770  0.35230  0.71400  1.0000 0.1259139456
H   H85       1.0  0.63830  0.35230  0.52460  1.0000 0.1259139456
H   H86       1.0  0.52460  0.63830  0.35230  1.0000 0.1259139456
H   H87       1.0  0.35230  0.52460  0.63830  1.0000 0.1259139456
H   H88       1.0  0.88630  0.71400  0.36170  1.0000 0.1259139456
H   H89       1.0  0.47540  0.82770  0.11370  1.0000 0.1259139456
H   H90       1.0  0.11370  0.47540  0.82770  1.0000 0.1259139456
H   H91       1.0  0.28600  0.17230  0.64770  1.0000 0.1259139456
H   H92       1.0  0.71400  0.36170  0.88630  1.0000 0.1259139456
H   H93       1.0  0.64770  0.28600  0.17230  1.0000 0.1259139456
H   H94       1.0  0.82770  0.11370  0.47540  1.0000 0.1259139456
H   H95       1.0  0.36170  0.88630  0.71400  1.0000 0.1259139456
H   H96       1.0  0.17230  0.64770  0.28600  1.0000 0.1259139456
H   H97       1.0  0.40600  0.48420  0.36380  1.0000 0.1119292432
H   H98       1.0  0.36380  0.40600  0.48420  1.0000 0.1119292432
H   H99       1.0  0.48420  0.36380  0.40600  1.0000 0.1119292432
H   H100      1.0  0.95780  0.07820  0.59400  1.0000 0.1119292432
H   H101      1.0  0.63620  0.12040  0.04220  1.0000 0.1119292432
H   H102      1.0  0.04220  0.63620  0.12040  1.0000 0.1119292432
H   H103      1.0  0.92180  0.87960  0.51580  1.0000 0.1119292432
H   H104      1.0  0.07820  0.59400  0.95780  1.0000 0.1119292432
H   H105      1.0  0.51580  0.92180  0.87960  1.0000 0.1119292432
H   H106      1.0  0.12040  0.04220  0.63620  1.0000 0.1119292432
H   H107      1.0  0.59400  0.95780  0.07820  1.0000 0.1119292432
H   H108      1.0  0.87960  0.51580  0.92180  1.0000 0.1119292432
H   H109      1.0  0.59400  0.51580  0.63620  1.0000 0.1119292432
H   H110      1.0  0.63620  0.59400  0.51580  1.0000 0.1119292432
H   H111      1.0  0.51580  0.63620  0.59400  1.0000 0.1119292432
H   H112      1.0  0.04220  0.92180  0.40600  1.0000 0.1119292432
H   H113      1.0  0.36380  0.87960  0.95780  1.0000 0.1119292432
H   H114      1.0  0.95780  0.36380  0.87960  1.0000 0.1119292432
H   H115      1.0  0.07820  0.12040  0.48420  1.0000 0.1119292432
H   H116      1.0  0.92180  0.40600  0.04220  1.0000 0.1119292432
H   H117      1.0  0.48420  0.07820  0.12040  1.0000 0.1119292432
H   H118      1.0  0.87960  0.95780  0.36380  1.0000 0.1119292432
H   H119      1.0  0.40600  0.04220  0.92180  1.0000 0.1119292432
H   H120      1.0  0.12040  0.48420  0.07820  1.0000 0.1119292432
C   C1        1.0  0.34309  0.49200  0.44009  1.0000 0.0795000455
C   C2        1.0  0.44009  0.34309  0.49200  1.0000 0.0795000455
C   C3        1.0  0.49200  0.44009  0.34309  1.0000 0.0795000455
C   C4        1.0  0.09700  0.14891  0.65691  1.0000 0.0795000455
C   C5        1.0  0.55991  0.05191  0.90300  1.0000 0.0795000455
C   C6        1.0  0.90300  0.55991  0.05191  1.0000 0.0795000455
C   C7        1.0  0.85109  0.94809  0.50800  1.0000 0.0795000455
C   C8        1.0  0.14891  0.65691  0.09700  1.0000 0.0795000455
C   C9        1.0  0.50800  0.85109  0.94809  1.0000 0.0795000455
C   C10       1.0  0.05191  0.90300  0.55991  1.0000 0.0795000455
C   C11       1.0  0.65691  0.09700  0.14891  1.0000 0.0795000455
C   C12       1.0  0.94809  0.50800  0.85109  1.0000 0.0795000455
C   C13       1.0  0.65691  0.50800  0.55991  1.0000 0.0795000455
C   C14       1.0  0.55991  0.65691  0.50800  1.0000 0.0795000455
C   C15       1.0  0.50800  0.55991  0.65691  1.0000 0.0795000455
C   C16       1.0  0.90300  0.85109  0.34309  1.0000 0.0795000455
C   C17       1.0  0.44009  0.94809  0.09700  1.0000 0.0795000455
C   C18       1.0  0.09700  0.44009  0.94809  1.0000 0.0795000455
C   C19       1.0  0.14891  0.05191  0.49200  1.0000 0.0795000455
C   C20       1.0  0.85109  0.34309  0.90300  1.0000 0.0795000455
C   C21       1.0  0.49200  0.14891  0.05191  1.0000 0.0795000455
C   C22       1.0  0.94809  0.09700  0.44009  1.0000 0.0795000455
C   C23       1.0  0.34309  0.90300  0.85109  1.0000 0.0795000455
C   C24       1.0  0.05191  0.49200  0.14891  1.0000 0.0795000455
C   C25       1.0  0.25246  0.62087  0.49253  1.0000 0.5857895429
C   C26       1.0  0.49253  0.25246  0.62087  1.0000 0.5857895429
C   C27       1.0  0.62087  0.49253  0.25246  1.0000 0.5857895429
C   C28       1.0  0.24007  0.36841  0.74754  1.0000 0.5857895429
C   C29       1.0  0.50747  0.12834  0.75993  1.0000 0.5857895429
C   C30       1.0  0.75993  0.50747  0.12834  1.0000 0.5857895429
C   C31       1.0  0.63159  0.87166  0.37913  1.0000 0.5857895429
C   C32       1.0  0.36841  0.74754  0.24007  1.0000 0.5857895429
C   C33       1.0  0.37913  0.63159  0.87166  1.0000 0.5857895429
C   C34       1.0  0.12834  0.75993  0.50747  1.0000 0.5857895429
C   C35       1.0  0.74754  0.24007  0.36841  1.0000 0.5857895429
C   C36       1.0  0.87166  0.37913  0.63159  1.0000 0.5848417694
C   C37       1.0  0.74754  0.37913  0.50747  1.0000 0.5857895429
C   C38       1.0  0.50747  0.74754  0.37913  1.0000 0.5857895429
C   C39       1.0  0.37913  0.50747  0.74754  1.0000 0.5857895429
C   C40       1.0  0.75993  0.63159  0.25246  1.0000 0.5848417694
C   C41       1.0  0.49253  0.87166  0.24007  1.0000 0.5857895429
C   C42       1.0  0.24007  0.49253  0.87166  1.0000 0.5857895429
C   C43       1.0  0.36841  0.12834  0.62087  1.0000 0.5857895429
C   C44       1.0  0.63159  0.25246  0.75993  1.0000 0.5857895429
C   C45       1.0  0.62087  0.36841  0.12834  1.0000 0.5857895429
C   C46       1.0  0.87166  0.24007  0.49253  1.0000 0.5857895429
C   C47       1.0  0.25246  0.75993  0.63159  1.0000 0.5857895429
C   C48       1.0  0.12834  0.62087  0.36841  1.0000 0.5848417694
C   C49       1.0  0.25590  0.50900  0.46650  1.0000 -0.0876520652
C   C50       1.0  0.46650  0.25590  0.50900  1.0000 -0.0876520652
C   C51       1.0  0.50900  0.46650  0.25590  1.0000 -0.0876520652
C   C52       1.0  0.21060  0.25310  0.74410  1.0000 -0.0876520652
C   C53       1.0  0.53350  0.04250  0.78940  1.0000 -0.0876520652
C   C54       1.0  0.78940  0.53350  0.04250  1.0000 -0.0876520652
C   C55       1.0  0.74690  0.95750  0.49100  1.0000 -0.0876520652
C   C56       1.0  0.25310  0.74410  0.21060  1.0000 -0.0876520652
C   C57       1.0  0.49100  0.74690  0.95750  1.0000 -0.0876520652
C   C58       1.0  0.04250  0.78940  0.53350  1.0000 -0.0876520652
C   C59       1.0  0.74410  0.21060  0.25310  1.0000 -0.0876520652
C   C60       1.0  0.95750  0.49100  0.74690  1.0000 -0.0876520652
C   C61       1.0  0.74410  0.49100  0.53350  1.0000 -0.0876520652
C   C62       1.0  0.53350  0.74410  0.49100  1.0000 -0.0876520652
C   C63       1.0  0.49100  0.53350  0.74410  1.0000 -0.0876520652
C   C64       1.0  0.78940  0.74690  0.25590  1.0000 -0.0876520652
C   C65       1.0  0.46650  0.95750  0.21060  1.0000 -0.0876520652
C   C66       1.0  0.21060  0.46650  0.95750  1.0000 -0.0876520652
C   C67       1.0  0.25310  0.04250  0.50900  1.0000 -0.0876520652
C   C68       1.0  0.74690  0.25590  0.78940  1.0000 -0.0876520652
C   C69       1.0  0.50900  0.25310  0.04250  1.0000 -0.0876520652
C   C70       1.0  0.95750  0.21060  0.46650  1.0000 -0.0876520652
C   C71       1.0  0.25590  0.78940  0.74690  1.0000 -0.0876520652
C   C72       1.0  0.04250  0.50900  0.25310  1.0000 -0.0876520652
C   C73       1.0  0.37100  0.56080  0.44940  1.0000 -0.1624663103
C   C74       1.0  0.44940  0.37100  0.56080  1.0000 -0.1624663103
C   C75       1.0  0.56080  0.44940  0.37100  1.0000 -0.1624663103
C   C76       1.0  0.07840  0.18980  0.62900  1.0000 -0.1624663103
C   C77       1.0  0.55060  0.11140  0.92160  1.0000 -0.1624663103
C   C78       1.0  0.92160  0.55060  0.11140  1.0000 -0.1624663103
C   C79       1.0  0.81020  0.88860  0.43920  1.0000 -0.1624663103
C   C80       1.0  0.18980  0.62900  0.07840  1.0000 -0.1624663103
C   C81       1.0  0.43920  0.81020  0.88860  1.0000 -0.1624663103
C   C82       1.0  0.11140  0.92160  0.55060  1.0000 -0.1624663103
C   C83       1.0  0.62900  0.07840  0.18980  1.0000 -0.1624663103
C   C84       1.0  0.88860  0.43920  0.81020  1.0000 -0.1624663103
C   C85       1.0  0.62900  0.43920  0.55060  1.0000 -0.1624663103
C   C86       1.0  0.55060  0.62900  0.43920  1.0000 -0.1624663103
C   C87       1.0  0.43920  0.55060  0.62900  1.0000 -0.1624663103
C   C88       1.0  0.92160  0.81020  0.37100  1.0000 -0.1624663103
C   C89       1.0  0.44940  0.88860  0.07840  1.0000 -0.1624663103
C   C90       1.0  0.07840  0.44940  0.88860  1.0000 -0.1624663103
C   C91       1.0  0.18980  0.11140  0.56080  1.0000 -0.1624663103
C   C92       1.0  0.81020  0.37100  0.92160  1.0000 -0.1624663103
C   C93       1.0  0.56080  0.18980  0.11140  1.0000 -0.1624663103
C   C94       1.0  0.88860  0.07840  0.44940  1.0000 -0.1624663103
C   C95       1.0  0.37100  0.92160  0.81020  1.0000 -0.1624663103
C   C96       1.0  0.11140  0.56080  0.18980  1.0000 -0.1624663103
C   C97       1.0  0.28570  0.46710  0.44920  1.0000 -0.1624663103
C   C98       1.0  0.44920  0.28570  0.46710  1.0000 -0.1624663103
C   C99       1.0  0.46710  0.44920  0.28570  1.0000 -0.1624663103
C   C100      1.0  0.16350  0.18140  0.71430  1.0000 -0.1624663103
C   C101      1.0  0.55080  0.01790  0.83650  1.0000 -0.1624663103
C   C102      1.0  0.83650  0.55080  0.01790  1.0000 -0.1624663103
C   C103      1.0  0.81860  0.98210  0.53290  1.0000 -0.1624663103
C   C104      1.0  0.18140  0.71430  0.16350  1.0000 -0.1624663103
C   C105      1.0  0.53290  0.81860  0.98210  1.0000 -0.1624663103
C   C106      1.0  0.01790  0.83650  0.55080  1.0000 -0.1624663103
C   C107      1.0  0.71430  0.16350  0.18140  1.0000 -0.1624663103
C   C108      1.0  0.98210  0.53290  0.81860  1.0000 -0.1624663103
C   C109      1.0  0.71430  0.53290  0.55080  1.0000 -0.1624663103
C   C110      1.0  0.55080  0.71430  0.53290  1.0000 -0.1624663103
C   C111      1.0  0.53290  0.55080  0.71430  1.0000 -0.1624663103
C   C112      1.0  0.83650  0.81860  0.28570  1.0000 -0.1624663103
C   C113      1.0  0.44920  0.98210  0.16350  1.0000 -0.1624663103
C   C114      1.0  0.16350  0.44920  0.98210  1.0000 -0.1624663103
C   C115      1.0  0.18140  0.01790  0.46710  1.0000 -0.1624663103
C   C116      1.0  0.81860  0.28570  0.83650  1.0000 -0.1624663103
C   C117      1.0  0.46710  0.18140  0.01790  1.0000 -0.1624663103
C   C118      1.0  0.98210  0.16350  0.44920  1.0000 -0.1624663103
C   C119      1.0  0.28570  0.83650  0.81860  1.0000 -0.1624663103
C   C120      1.0  0.01790  0.46710  0.18140  1.0000 -0.1624663103
C   C121      1.0  0.34210  0.60200  0.46830  1.0000 -0.0876520652
C   C122      1.0  0.46830  0.34210  0.60200  1.0000 -0.0876520652
C   C123      1.0  0.60200  0.46830  0.34210  1.0000 -0.0876520652
C   C124      1.0  0.12620  0.25990  0.65790  1.0000 -0.0876520652
C   C125      1.0  0.53170  0.13370  0.87380  1.0000 -0.0876520652
C   C126      1.0  0.87380  0.53170  0.13370  1.0000 -0.0876520652
C   C127      1.0  0.74010  0.86630  0.39800  1.0000 -0.0876520652
C   C128      1.0  0.25990  0.65790  0.12620  1.0000 -0.0876520652
C   C129      1.0  0.39800  0.74010  0.86630  1.0000 -0.0876520652
C   C130      1.0  0.13370  0.87380  0.53170  1.0000 -0.0876520652
C   C131      1.0  0.65790  0.12620  0.25990  1.0000 -0.0876520652
C   C132      1.0  0.86630  0.39800  0.74010  1.0000 -0.0876520652
C   C133      1.0  0.65790  0.39800  0.53170  1.0000 -0.0876520652
C   C134      1.0  0.53170  0.65790  0.39800  1.0000 -0.0876520652
C   C135      1.0  0.39800  0.53170  0.65790  1.0000 -0.0876520652
C   C136      1.0  0.87380  0.74010  0.34210  1.0000 -0.0876520652
C   C137      1.0  0.46830  0.86630  0.12620  1.0000 -0.0876520652
C   C138      1.0  0.12620  0.46830  0.86630  1.0000 -0.0876520652
C   C139      1.0  0.25990  0.13370  0.60200  1.0000 -0.0876520652
C   C140      1.0  0.74010  0.34210  0.87380  1.0000 -0.0876520652
C   C141      1.0  0.60200  0.25990  0.13370  1.0000 -0.0876520652
C   C142      1.0  0.86630  0.12620  0.46830  1.0000 -0.0876520652
C   C143      1.0  0.34210  0.87380  0.74010  1.0000 -0.0876520652
C   C144      1.0  0.13370  0.60200  0.25990  1.0000 -0.0876520652
C   C145      1.0  0.41160  0.45825  0.38645  1.0000 -0.1996202392
C   C146      1.0  0.38645  0.41160  0.45825  1.0000 -0.1996202392
C   C147      1.0  0.45825  0.38645  0.41160  1.0000 -0.1996202392
C   C148      1.0  0.97485  0.04665  0.58840  1.0000 -0.1996202392
C   C149      1.0  0.61355  0.07180  0.02515  1.0000 -0.1996202392
C   C150      1.0  0.02515  0.61355  0.07180  1.0000 -0.1996202392
C   C151      1.0  0.95335  0.92820  0.54175  1.0000 -0.1996202392
C   C152      1.0  0.04665  0.58840  0.97485  1.0000 -0.1996202392
C   C153      1.0  0.54175  0.95335  0.92820  1.0000 -0.1996202392
C   C154      1.0  0.07180  0.02515  0.61355  1.0000 -0.1996202392
C   C155      1.0  0.58840  0.97485  0.04665  1.0000 -0.1996202392
C   C156      1.0  0.92820  0.54175  0.95335  1.0000 -0.1996202392
C   C157      1.0  0.58840  0.54175  0.61355  1.0000 -0.1996202392
C   C158      1.0  0.61355  0.58840  0.54175  1.0000 -0.1996202392
C   C159      1.0  0.54175  0.61355  0.58840  1.0000 -0.1996202392
C   C160      1.0  0.02515  0.95335  0.41160  1.0000 -0.1996202392
C   C161      1.0  0.38645  0.92820  0.97485  1.0000 -0.1996202392
C   C162      1.0  0.97485  0.38645  0.92820  1.0000 -0.1996202392
C   C163      1.0  0.04665  0.07180  0.45825  1.0000 -0.1996202392
C   C164      1.0  0.95335  0.41160  0.02515  1.0000 -0.1996202392
C   C165      1.0  0.45825  0.04665  0.07180  1.0000 -0.1996202392
C   C166      1.0  0.92820  0.97485  0.38645  1.0000 -0.1996202392
C   C167      1.0  0.41160  0.02515  0.95335  1.0000 -0.1996202392
C   C168      1.0  0.07180  0.45825  0.04665  1.0000 -0.1996202392
C   C169      1.0  0.28479  0.57666  0.47689  1.0000 -0.038893972
C   C170      1.0  0.47689  0.28479  0.57666  1.0000 -0.038893972
C   C171      1.0  0.57666  0.47689  0.28479  1.0000 -0.038893972
C   C172      1.0  0.19210  0.29187  0.71521  1.0000 -0.038893972
C   C173      1.0  0.52311  0.09977  0.80790  1.0000 -0.038893972
C   C174      1.0  0.80790  0.52311  0.09977  1.0000 -0.038893972
C   C175      1.0  0.70813  0.90023  0.42334  1.0000 -0.038893972
C   C176      1.0  0.29187  0.71521  0.19210  1.0000 -0.038893972
C   C177      1.0  0.42334  0.70813  0.90023  1.0000 -0.038893972
C   C178      1.0  0.09977  0.80790  0.52311  1.0000 -0.038893972
C   C179      1.0  0.71521  0.19210  0.29187  1.0000 -0.038893972
C   C180      1.0  0.90023  0.42334  0.70813  1.0000 -0.038893972
C   C181      1.0  0.71521  0.42334  0.52311  1.0000 -0.038893972
C   C182      1.0  0.52311  0.71521  0.42334  1.0000 -0.038893972
C   C183      1.0  0.42334  0.52311  0.71521  1.0000 -0.038893972
C   C184      1.0  0.80790  0.70813  0.28479  1.0000 -0.038893972
C   C185      1.0  0.47689  0.90023  0.19210  1.0000 -0.038893972
C   C186      1.0  0.19210  0.47689  0.90023  1.0000 -0.038893972
C   C187      1.0  0.29187  0.09977  0.57666  1.0000 -0.038893972
C   C188      1.0  0.70813  0.28479  0.80790  1.0000 -0.038893972
C   C189      1.0  0.57666  0.29187  0.09977  1.0000 -0.038893972
C   C190      1.0  0.90023  0.19210  0.47689  1.0000 -0.038893972
C   C191      1.0  0.28479  0.80790  0.70813  1.0000 -0.038893972
C   C192      1.0  0.09977  0.57666  0.29187  1.0000 -0.038893972
C   C193      1.0  0.37943  0.45193  0.42670  1.0000 0.0795000455
C   C194      1.0  0.42670  0.37943  0.45193  1.0000 0.0795000455
C   C195      1.0  0.45193  0.42670  0.37943  1.0000 0.0795000455
C   C196      1.0  0.04727  0.07250  0.62057  1.0000 0.0795000455
C   C197      1.0  0.57330  0.02523  0.95273  1.0000 0.0795000455
C   C198      1.0  0.95273  0.57330  0.02523  1.0000 0.0795000455
C   C199      1.0  0.92750  0.97477  0.54807  1.0000 0.0795000455
C   C200      1.0  0.07250  0.62057  0.04727  1.0000 0.0795000455
C   C201      1.0  0.54807  0.92750  0.97477  1.0000 0.0795000455
C   C202      1.0  0.02523  0.95273  0.57330  1.0000 0.0795000455
C   C203      1.0  0.62057  0.04727  0.07250  1.0000 0.0795000455
C   C204      1.0  0.97477  0.54807  0.92750  1.0000 0.0795000455
C   C205      1.0  0.62057  0.54807  0.57330  1.0000 0.0795000455
C   C206      1.0  0.57330  0.62057  0.54807  1.0000 0.0795000455
C   C207      1.0  0.54807  0.57330  0.62057  1.0000 0.0795000455
C   C208      1.0  0.95273  0.92750  0.37943  1.0000 0.0795000455
C   C209      1.0  0.42670  0.97477  0.04727  1.0000 0.0795000455
C   C210      1.0  0.04727  0.42670  0.97477  1.0000 0.0795000455
C   C211      1.0  0.07250  0.02523  0.45193  1.0000 0.0795000455
C   C212      1.0  0.92750  0.37943  0.95273  1.0000 0.0795000455
C   C213      1.0  0.45193  0.07250  0.02523  1.0000 0.0795000455
C   C214      1.0  0.97477  0.04727  0.42670  1.0000 0.0795000455
C   C215      1.0  0.37943  0.95273  0.92750  1.0000 0.0795000455
C   C216      1.0  0.02523  0.45193  0.07250  1.0000 0.0795000455
O   O1        1.0  0.19910  0.59638  0.49794  1.0000 -0.5049000203
O   O2        1.0  0.49794  0.19910  0.59638  1.0000 -0.5049000203
O   O3        1.0  0.59638  0.49794  0.19910  1.0000 -0.5049000203
O   O4        1.0  0.29884  0.39728  0.80090  1.0000 -0.5049000203
O   O5        1.0  0.50206  0.09844  0.70116  1.0000 -0.5049000203
O   O6        1.0  0.70116  0.50206  0.09844  1.0000 -0.5049000203
O   O7        1.0  0.60272  0.90156  0.40362  1.0000 -0.5049000203
O   O8        1.0  0.39728  0.80090  0.29884  1.0000 -0.5049000203
O   O9        1.0  0.40362  0.60272  0.90156  1.0000 -0.5049000203
O   O10       1.0  0.09844  0.70116  0.50206  1.0000 -0.5049000203
O   O11       1.0  0.80090  0.29884  0.39728  1.0000 -0.5049000203
O   O12       1.0  0.90156  0.40362  0.60272  1.0000 -0.5049000203
O   O13       1.0  0.80090  0.40362  0.50206  1.0000 -0.5049000203
O   O14       1.0  0.50206  0.80090  0.40362  1.0000 -0.5049000203
O   O15       1.0  0.40362  0.50206  0.80090  1.0000 -0.5049000203
O   O16       1.0  0.70116  0.60272  0.19910  1.0000 -0.5049000203
O   O17       1.0  0.49794  0.90156  0.29884  1.0000 -0.5049000203
O   O18       1.0  0.29884  0.49794  0.90156  1.0000 -0.5049000203
O   O19       1.0  0.39728  0.09844  0.59638  1.0000 -0.5049000203
O   O20       1.0  0.60272  0.19910  0.70116  1.0000 -0.5049000203
O   O21       1.0  0.59638  0.39728  0.09844  1.0000 -0.5049000203
O   O22       1.0  0.90156  0.29884  0.49794  1.0000 -0.5056349819
O   O23       1.0  0.19910  0.70116  0.60272  1.0000 -0.5049000203
O   O24       1.0  0.09844  0.59638  0.39728  1.0000 -0.5049000203
O   O25       1.0  0.28028  0.67953  0.49745  1.0000 -0.5200340857
O   O26       1.0  0.49745  0.28028  0.67953  1.0000 -0.5200340857
O   O27       1.0  0.67953  0.49745  0.28028  1.0000 -0.5200340857
O   O28       1.0  0.21717  0.39925  0.71972  1.0000 -0.5200340857
O   O29       1.0  0.50255  0.18208  0.78283  1.0000 -0.5200340857
O   O30       1.0  0.78283  0.50255  0.18208  1.0000 -0.5200340857
O   O31       1.0  0.60075  0.81792  0.32047  1.0000 -0.5200340857
O   O32       1.0  0.39925  0.71972  0.21717  1.0000 -0.5200340857
O   O33       1.0  0.32047  0.60075  0.81792  1.0000 -0.5200340857
O   O34       1.0  0.18208  0.78283  0.50255  1.0000 -0.5200340857
O   O35       1.0  0.71972  0.21717  0.39925  1.0000 -0.5200340857
O   O36       1.0  0.81792  0.32047  0.60075  1.0000 -0.5200340857
O   O37       1.0  0.71972  0.32047  0.50255  1.0000 -0.5200340857
O   O38       1.0  0.50255  0.71972  0.32047  1.0000 -0.5200340857
O   O39       1.0  0.32047  0.50255  0.71972  1.0000 -0.5200340857
O   O40       1.0  0.78283  0.60075  0.28028  1.0000 -0.5200340857
O   O41       1.0  0.49745  0.81792  0.21717  1.0000 -0.5200340857
O   O42       1.0  0.21717  0.49745  0.81792  1.0000 -0.5200340857
O   O43       1.0  0.39925  0.18208  0.67953  1.0000 -0.5200340857
O   O44       1.0  0.60075  0.28028  0.78283  1.0000 -0.5200340857
O   O45       1.0  0.67953  0.39925  0.18208  1.0000 -0.5200340857
O   O46       1.0  0.81792  0.21717  0.49745  1.0000 -0.5200340857
O   O47       1.0  0.28028  0.78283  0.60075  1.0000 -0.5200340857
O   O48       1.0  0.18208  0.67953  0.39925  1.0000 -0.5200340857
