# DDEC6 charges by PACMAN v1.1 (https://github.com/mtap-research/PACMAN-charge/)
data_2014[Cu][nan]3[ASR]19
_chemical_formula_sum              "Cu12 H120 C216 O48"
_cell_length_a       23.374
_cell_length_b       23.374
_cell_length_c       23.374
_cell_angle_alpha    109.471
_cell_angle_beta     109.471
_cell_angle_gamma    109.471

_symmetry_space_group_name_H-M    "P 1"
_symmetry_Int_Tables_number       1

loop_
  _symmetry_equiv_pos_as_xyz
  'x, y, z'

loop_
  _atom_site_type_symbol
  _atom_site_label
  _atom_site_symmetry_multiplicity
  _atom_site_fract_x
  _atom_site_fract_y
  _atom_site_fract_z
  _atom_site_occupancy
  _atom_site_charge
Cu  Cu1       1.0  0.14438  0.64438  0.50000  1.0000 0.8501233584
Cu  Cu2       1.0  0.50000  0.14438  0.64438  1.0000 0.8501233584
Cu  Cu3       1.0  0.64438  0.50000  0.14438  1.0000 0.8501233584
Cu  Cu4       1.0  0.35562  0.50000  0.85562  1.0000 0.8501233584
Cu  Cu5       1.0  0.50000  0.85562  0.35562  1.0000 0.8501233584
Cu  Cu6       1.0  0.85562  0.35562  0.50000  1.0000 0.8501233584
Cu  Cu7       1.0  0.24026  0.74026  0.50000  1.0000 0.8625669008
Cu  Cu8       1.0  0.50000  0.24026  0.74026  1.0000 0.8625669008
Cu  Cu9       1.0  0.74026  0.50000  0.24026  1.0000 0.8625669008
Cu  Cu10      1.0  0.25974  0.50000  0.75974  1.0000 0.8625669008
Cu  Cu11      1.0  0.50000  0.75974  0.25974  1.0000 0.8625669008
Cu  Cu12      1.0  0.75974  0.25974  0.50000  1.0000 0.8625669008
H   H1        1.0  0.21700  0.49190  0.47270  1.0000 0.1261118589
H   H2        1.0  0.47270  0.21700  0.49190  1.0000 0.1261118589
H   H3        1.0  0.49190  0.47270  0.21700  1.0000 0.1261118589
H   H4        1.0  0.25570  0.27490  0.78300  1.0000 0.1261118589
H   H5        1.0  0.52730  0.01920  0.74430  1.0000 0.1261118589
H   H6        1.0  0.74430  0.52730  0.01920  1.0000 0.1261118589
H   H7        1.0  0.72510  0.98080  0.50810  1.0000 0.1261118589
H   H8        1.0  0.27490  0.78300  0.25570  1.0000 0.1261118589
H   H9        1.0  0.50810  0.72510  0.98080  1.0000 0.1261118589
H   H10       1.0  0.01920  0.74430  0.52730  1.0000 0.1261118589
H   H11       1.0  0.78300  0.25570  0.27490  1.0000 0.1261118589
H   H12       1.0  0.98080  0.50810  0.72510  1.0000 0.1261118589
H   H13       1.0  0.78300  0.50810  0.52730  1.0000 0.1261118589
H   H14       1.0  0.52730  0.78300  0.50810  1.0000 0.1261118589
H   H15       1.0  0.50810  0.52730  0.78300  1.0000 0.1261118589
H   H16       1.0  0.74430  0.72510  0.21700  1.0000 0.1261118589
H   H17       1.0  0.47270  0.98080  0.25570  1.0000 0.1261118589
H   H18       1.0  0.25570  0.47270  0.98080  1.0000 0.1261118589
H   H19       1.0  0.27490  0.01920  0.49190  1.0000 0.1261118589
H   H20       1.0  0.72510  0.21700  0.74430  1.0000 0.1261118589
H   H21       1.0  0.49190  0.27490  0.01920  1.0000 0.1261118589
H   H22       1.0  0.98080  0.25570  0.47270  1.0000 0.1261118589
H   H23       1.0  0.21700  0.74430  0.72510  1.0000 0.1261118589
H   H24       1.0  0.01920  0.49190  0.27490  1.0000 0.1261118589
H   H25       1.0  0.41020  0.57880  0.44300  1.0000 0.112368577
H   H26       1.0  0.44300  0.41020  0.57880  1.0000 0.112368577
H   H27       1.0  0.57880  0.44300  0.41020  1.0000 0.112368577
H   H28       1.0  0.03280  0.16860  0.58980  1.0000 0.112368577
H   H29       1.0  0.55700  0.13580  0.96720  1.0000 0.112368577
H   H30       1.0  0.96720  0.55700  0.13580  1.0000 0.112368577
H   H31       1.0  0.83140  0.86420  0.42120  1.0000 0.112368577
H   H32       1.0  0.16860  0.58980  0.03280  1.0000 0.112368577
H   H33       1.0  0.42120  0.83140  0.86420  1.0000 0.112368577
H   H34       1.0  0.13580  0.96720  0.55700  1.0000 0.112368577
H   H35       1.0  0.58980  0.03280  0.16860  1.0000 0.112368577
H   H36       1.0  0.86420  0.42120  0.83140  1.0000 0.112368577
H   H37       1.0  0.58980  0.42120  0.55700  1.0000 0.112368577
H   H38       1.0  0.55700  0.58980  0.42120  1.0000 0.112368577
H   H39       1.0  0.42120  0.55700  0.58980  1.0000 0.112368577
H   H40       1.0  0.96720  0.83140  0.41020  1.0000 0.112368577
H   H41       1.0  0.44300  0.86420  0.03280  1.0000 0.112368577
H   H42       1.0  0.03280  0.44300  0.86420  1.0000 0.112368577
H   H43       1.0  0.16860  0.13580  0.57880  1.0000 0.112368577
H   H44       1.0  0.83140  0.41020  0.96720  1.0000 0.112368577
H   H45       1.0  0.57880  0.16860  0.13580  1.0000 0.112368577
H   H46       1.0  0.86420  0.03280  0.44300  1.0000 0.112368577
H   H47       1.0  0.41020  0.96720  0.83140  1.0000 0.112368577
H   H48       1.0  0.13580  0.57880  0.16860  1.0000 0.112368577
H   H49       1.0  0.26740  0.42240  0.44500  1.0000 0.1181802825
H   H50       1.0  0.44500  0.26740  0.42240  1.0000 0.1181802825
H   H51       1.0  0.42240  0.44500  0.26740  1.0000 0.1181802825
H   H52       1.0  0.17760  0.15500  0.73260  1.0000 0.1181802825
H   H53       1.0  0.55500  0.97740  0.82240  1.0000 0.1181802825
H   H54       1.0  0.82240  0.55500  0.97740  1.0000 0.1181802825
H   H55       1.0  0.84500  0.02260  0.57760  1.0000 0.1181802825
H   H56       1.0  0.15500  0.73260  0.17760  1.0000 0.1181802825
H   H57       1.0  0.57760  0.84500  0.02260  1.0000 0.1181802825
H   H58       1.0  0.97740  0.82240  0.55500  1.0000 0.1181802825
H   H59       1.0  0.73260  0.17760  0.15500  1.0000 0.1181802825
H   H60       1.0  0.02260  0.57760  0.84500  1.0000 0.1181802825
H   H61       1.0  0.73260  0.57760  0.55500  1.0000 0.1181802825
H   H62       1.0  0.55500  0.73260  0.57760  1.0000 0.1181802825
H   H63       1.0  0.57760  0.55500  0.73260  1.0000 0.1181802825
H   H64       1.0  0.82240  0.84500  0.26740  1.0000 0.1181802825
H   H65       1.0  0.44500  0.02260  0.17760  1.0000 0.1181802825
H   H66       1.0  0.17760  0.44500  0.02260  1.0000 0.1181802825
H   H67       1.0  0.15500  0.97740  0.42240  1.0000 0.1181802825
H   H68       1.0  0.84500  0.26740  0.82240  1.0000 0.1181802825
H   H69       1.0  0.42240  0.15500  0.97740  1.0000 0.1181802825
H   H70       1.0  0.02260  0.17760  0.44500  1.0000 0.1181802825
H   H71       1.0  0.26740  0.82240  0.84500  1.0000 0.1181802825
H   H72       1.0  0.97740  0.42240  0.15500  1.0000 0.1181802825
H   H73       1.0  0.36220  0.64830  0.47490  1.0000 0.1261118589
H   H74       1.0  0.47490  0.36220  0.64830  1.0000 0.1261118589
H   H75       1.0  0.64830  0.47490  0.36220  1.0000 0.1261118589
H   H76       1.0  0.11270  0.28610  0.63780  1.0000 0.1261118589
H   H77       1.0  0.52510  0.17340  0.88730  1.0000 0.1261118589
H   H78       1.0  0.88730  0.52510  0.17340  1.0000 0.1261118589
H   H79       1.0  0.71390  0.82660  0.35170  1.0000 0.1261118589
H   H80       1.0  0.28610  0.63780  0.11270  1.0000 0.1261118589
H   H81       1.0  0.35170  0.71390  0.82660  1.0000 0.1261118589
H   H82       1.0  0.17340  0.88730  0.52510  1.0000 0.1261118589
H   H83       1.0  0.63780  0.11270  0.28610  1.0000 0.1261118589
H   H84       1.0  0.82660  0.35170  0.71390  1.0000 0.1261118589
H   H85       1.0  0.63780  0.35170  0.52510  1.0000 0.1261118589
H   H86       1.0  0.52510  0.63780  0.35170  1.0000 0.1261118589
H   H87       1.0  0.35170  0.52510  0.63780  1.0000 0.1261118589
H   H88       1.0  0.88730  0.71390  0.36220  1.0000 0.1261118589
H   H89       1.0  0.47490  0.82660  0.11270  1.0000 0.1261118589
H   H90       1.0  0.11270  0.47490  0.82660  1.0000 0.1261118589
H   H91       1.0  0.28610  0.17340  0.64830  1.0000 0.1261118589
H   H92       1.0  0.71390  0.36220  0.88730  1.0000 0.1261118589
H   H93       1.0  0.64830  0.28610  0.17340  1.0000 0.1261118589
H   H94       1.0  0.82660  0.11270  0.47490  1.0000 0.1261118589
H   H95       1.0  0.36220  0.88730  0.71390  1.0000 0.1261118589
H   H96       1.0  0.17340  0.64830  0.28610  1.0000 0.1261118589
H   H97       1.0  0.40700  0.48530  0.36450  1.0000 0.112368577
H   H98       1.0  0.36450  0.40700  0.48530  1.0000 0.112368577
H   H99       1.0  0.48530  0.36450  0.40700  1.0000 0.112368577
H   H100      1.0  0.95750  0.07830  0.59300  1.0000 0.112368577
H   H101      1.0  0.63550  0.12080  0.04250  1.0000 0.112368577
H   H102      1.0  0.04250  0.63550  0.12080  1.0000 0.112368577
H   H103      1.0  0.92170  0.87920  0.51470  1.0000 0.112368577
H   H104      1.0  0.07830  0.59300  0.95750  1.0000 0.112368577
H   H105      1.0  0.51470  0.92170  0.87920  1.0000 0.112368577
H   H106      1.0  0.12080  0.04250  0.63550  1.0000 0.112368577
H   H107      1.0  0.59300  0.95750  0.07830  1.0000 0.112368577
H   H108      1.0  0.87920  0.51470  0.92170  1.0000 0.112368577
H   H109      1.0  0.59300  0.51470  0.63550  1.0000 0.112368577
H   H110      1.0  0.63550  0.59300  0.51470  1.0000 0.112368577
H   H111      1.0  0.51470  0.63550  0.59300  1.0000 0.112368577
H   H112      1.0  0.04250  0.92170  0.40700  1.0000 0.112368577
H   H113      1.0  0.36450  0.87920  0.95750  1.0000 0.112368577
H   H114      1.0  0.95750  0.36450  0.87920  1.0000 0.112368577
H   H115      1.0  0.07830  0.12080  0.48530  1.0000 0.112368577
H   H116      1.0  0.92170  0.40700  0.04250  1.0000 0.112368577
H   H117      1.0  0.48530  0.07830  0.12080  1.0000 0.112368577
H   H118      1.0  0.87920  0.95750  0.36450  1.0000 0.112368577
H   H119      1.0  0.40700  0.04250  0.92170  1.0000 0.112368577
H   H120      1.0  0.12080  0.48530  0.07830  1.0000 0.112368577
C   C1        1.0  0.34394  0.49279  0.44071  1.0000 0.0800412459
C   C2        1.0  0.44071  0.34394  0.49279  1.0000 0.0800412459
C   C3        1.0  0.49279  0.44071  0.34394  1.0000 0.0800412459
C   C4        1.0  0.09677  0.14885  0.65606  1.0000 0.0800412459
C   C5        1.0  0.55929  0.05208  0.90323  1.0000 0.0800412459
C   C6        1.0  0.90323  0.55929  0.05208  1.0000 0.0800412459
C   C7        1.0  0.85115  0.94792  0.50721  1.0000 0.0800412459
C   C8        1.0  0.14885  0.65606  0.09677  1.0000 0.0800412459
C   C9        1.0  0.50721  0.85115  0.94792  1.0000 0.0800412459
C   C10       1.0  0.05208  0.90323  0.55929  1.0000 0.0800412459
C   C11       1.0  0.65606  0.09677  0.14885  1.0000 0.0800412459
C   C12       1.0  0.94792  0.50721  0.85115  1.0000 0.0800412459
C   C13       1.0  0.65606  0.50721  0.55929  1.0000 0.0800412459
C   C14       1.0  0.55929  0.65606  0.50721  1.0000 0.0800412459
C   C15       1.0  0.50721  0.55929  0.65606  1.0000 0.0800412459
C   C16       1.0  0.90323  0.85115  0.34394  1.0000 0.0800412459
C   C17       1.0  0.44071  0.94792  0.09677  1.0000 0.0800412459
C   C18       1.0  0.09677  0.44071  0.94792  1.0000 0.0800412459
C   C19       1.0  0.14885  0.05208  0.49279  1.0000 0.0800412459
C   C20       1.0  0.85115  0.34394  0.90323  1.0000 0.0800412459
C   C21       1.0  0.49279  0.14885  0.05208  1.0000 0.0800412459
C   C22       1.0  0.94792  0.09677  0.44071  1.0000 0.0800412459
C   C23       1.0  0.34394  0.90323  0.85115  1.0000 0.0800412459
C   C24       1.0  0.05208  0.49279  0.14885  1.0000 0.0800412459
C   C25       1.0  0.25311  0.62152  0.49299  1.0000 0.5841145864
C   C26       1.0  0.49299  0.25311  0.62152  1.0000 0.5841145864
C   C27       1.0  0.62152  0.49299  0.25311  1.0000 0.5841145864
C   C28       1.0  0.23988  0.36841  0.74689  1.0000 0.5841145864
C   C29       1.0  0.50701  0.12853  0.76012  1.0000 0.5841145864
C   C30       1.0  0.76012  0.50701  0.12853  1.0000 0.5841145864
C   C31       1.0  0.63159  0.87147  0.37848  1.0000 0.5841145864
C   C32       1.0  0.36841  0.74689  0.23988  1.0000 0.5841145864
C   C33       1.0  0.37848  0.63159  0.87147  1.0000 0.5841145864
C   C34       1.0  0.12853  0.76012  0.50701  1.0000 0.5841145864
C   C35       1.0  0.74689  0.23988  0.36841  1.0000 0.5841145864
C   C36       1.0  0.87147  0.37848  0.63159  1.0000 0.5841145864
C   C37       1.0  0.74689  0.37848  0.50701  1.0000 0.5841145864
C   C38       1.0  0.50701  0.74689  0.37848  1.0000 0.5841145864
C   C39       1.0  0.37848  0.50701  0.74689  1.0000 0.5841145864
C   C40       1.0  0.76012  0.63159  0.25311  1.0000 0.5841145864
C   C41       1.0  0.49299  0.87147  0.23988  1.0000 0.5841145864
C   C42       1.0  0.23988  0.49299  0.87147  1.0000 0.5841145864
C   C43       1.0  0.36841  0.12853  0.62152  1.0000 0.5841145864
C   C44       1.0  0.63159  0.25311  0.76012  1.0000 0.5841145864
C   C45       1.0  0.62152  0.36841  0.12853  1.0000 0.5841145864
C   C46       1.0  0.87147  0.23988  0.49299  1.0000 0.5841145864
C   C47       1.0  0.25311  0.76012  0.63159  1.0000 0.5841145864
C   C48       1.0  0.12853  0.62152  0.36841  1.0000 0.5841145864
C   C49       1.0  0.25673  0.50965  0.46752  1.0000 -0.088393432
C   C50       1.0  0.46752  0.25673  0.50965  1.0000 -0.088393432
C   C51       1.0  0.50965  0.46752  0.25673  1.0000 -0.088393432
C   C52       1.0  0.21079  0.25292  0.74327  1.0000 -0.088393432
C   C53       1.0  0.53248  0.04213  0.78921  1.0000 -0.088393432
C   C54       1.0  0.78921  0.53248  0.04213  1.0000 -0.088393432
C   C55       1.0  0.74708  0.95787  0.49035  1.0000 -0.088393432
C   C56       1.0  0.25292  0.74327  0.21079  1.0000 -0.088393432
C   C57       1.0  0.49035  0.74708  0.95787  1.0000 -0.088393432
C   C58       1.0  0.04213  0.78921  0.53248  1.0000 -0.088393432
C   C59       1.0  0.74327  0.21079  0.25292  1.0000 -0.088393432
C   C60       1.0  0.95787  0.49035  0.74708  1.0000 -0.088393432
C   C61       1.0  0.74327  0.49035  0.53248  1.0000 -0.088393432
C   C62       1.0  0.53248  0.74327  0.49035  1.0000 -0.088393432
C   C63       1.0  0.49035  0.53248  0.74327  1.0000 -0.088393432
C   C64       1.0  0.78921  0.74708  0.25673  1.0000 -0.088393432
C   C65       1.0  0.46752  0.95787  0.21079  1.0000 -0.088393432
C   C66       1.0  0.21079  0.46752  0.95787  1.0000 -0.088393432
C   C67       1.0  0.25292  0.04213  0.50965  1.0000 -0.088393432
C   C68       1.0  0.74708  0.25673  0.78921  1.0000 -0.088393432
C   C69       1.0  0.50965  0.25292  0.04213  1.0000 -0.088393432
C   C70       1.0  0.95787  0.21079  0.46752  1.0000 -0.088393432
C   C71       1.0  0.25673  0.78921  0.74708  1.0000 -0.088393432
C   C72       1.0  0.04213  0.50965  0.25292  1.0000 -0.088393432
C   C73       1.0  0.37145  0.56105  0.44970  1.0000 -0.1609059216
C   C74       1.0  0.44970  0.37145  0.56105  1.0000 -0.1609059216
C   C75       1.0  0.56105  0.44970  0.37145  1.0000 -0.1609059216
C   C76       1.0  0.07825  0.18960  0.62855  1.0000 -0.1609059216
C   C77       1.0  0.55030  0.11135  0.92175  1.0000 -0.1609059216
C   C78       1.0  0.92175  0.55030  0.11135  1.0000 -0.1609059216
C   C79       1.0  0.81040  0.88865  0.43895  1.0000 -0.1609059216
C   C80       1.0  0.18960  0.62855  0.07825  1.0000 -0.1609059216
C   C81       1.0  0.43895  0.81040  0.88865  1.0000 -0.1609059216
C   C82       1.0  0.11135  0.92175  0.55030  1.0000 -0.1609059216
C   C83       1.0  0.62855  0.07825  0.18960  1.0000 -0.1609059216
C   C84       1.0  0.88865  0.43895  0.81040  1.0000 -0.1609059216
C   C85       1.0  0.62855  0.43895  0.55030  1.0000 -0.1609059216
C   C86       1.0  0.55030  0.62855  0.43895  1.0000 -0.1609059216
C   C87       1.0  0.43895  0.55030  0.62855  1.0000 -0.1609059216
C   C88       1.0  0.92175  0.81040  0.37145  1.0000 -0.1609059216
C   C89       1.0  0.44970  0.88865  0.07825  1.0000 -0.1609059216
C   C90       1.0  0.07825  0.44970  0.88865  1.0000 -0.1609059216
C   C91       1.0  0.18960  0.11135  0.56105  1.0000 -0.1609059216
C   C92       1.0  0.81040  0.37145  0.92175  1.0000 -0.1609059216
C   C93       1.0  0.56105  0.18960  0.11135  1.0000 -0.1609059216
C   C94       1.0  0.88865  0.07825  0.44970  1.0000 -0.1609059216
C   C95       1.0  0.37145  0.92175  0.81040  1.0000 -0.1609059216
C   C96       1.0  0.11135  0.56105  0.18960  1.0000 -0.1609059216
C   C97       1.0  0.28642  0.46776  0.45022  1.0000 -0.1661245274
C   C98       1.0  0.45022  0.28642  0.46776  1.0000 -0.1661245274
C   C99       1.0  0.46776  0.45022  0.28642  1.0000 -0.1661245274
C   C100      1.0  0.16380  0.18134  0.71358  1.0000 -0.1661245274
C   C101      1.0  0.54978  0.01754  0.83620  1.0000 -0.1661245274
C   C102      1.0  0.83620  0.54978  0.01754  1.0000 -0.1661245274
C   C103      1.0  0.81866  0.98246  0.53224  1.0000 -0.1661245274
C   C104      1.0  0.18134  0.71358  0.16380  1.0000 -0.1661245274
C   C105      1.0  0.53224  0.81866  0.98246  1.0000 -0.1661245274
C   C106      1.0  0.01754  0.83620  0.54978  1.0000 -0.1661245274
C   C107      1.0  0.71358  0.16380  0.18134  1.0000 -0.1661245274
C   C108      1.0  0.98246  0.53224  0.81866  1.0000 -0.1661245274
C   C109      1.0  0.71358  0.53224  0.54978  1.0000 -0.1661245274
C   C110      1.0  0.54978  0.71358  0.53224  1.0000 -0.1661245274
C   C111      1.0  0.53224  0.54978  0.71358  1.0000 -0.1661245274
C   C112      1.0  0.83620  0.81866  0.28642  1.0000 -0.1661245274
C   C113      1.0  0.45022  0.98246  0.16380  1.0000 -0.1661245274
C   C114      1.0  0.16380  0.45022  0.98246  1.0000 -0.1661245274
C   C115      1.0  0.18134  0.01754  0.46776  1.0000 -0.1661245274
C   C116      1.0  0.81866  0.28642  0.83620  1.0000 -0.1661245274
C   C117      1.0  0.46776  0.18134  0.01754  1.0000 -0.1609059216
C   C118      1.0  0.98246  0.16380  0.45022  1.0000 -0.1661245274
C   C119      1.0  0.28642  0.83620  0.81866  1.0000 -0.1661245274
C   C120      1.0  0.01754  0.46776  0.18134  1.0000 -0.1661245274
C   C121      1.0  0.34259  0.60233  0.46820  1.0000 -0.088393432
C   C122      1.0  0.46820  0.34259  0.60233  1.0000 -0.088393432
C   C123      1.0  0.60233  0.46820  0.34259  1.0000 -0.088393432
C   C124      1.0  0.12561  0.25974  0.65741  1.0000 -0.088393432
C   C125      1.0  0.53180  0.13413  0.87439  1.0000 -0.088393432
C   C126      1.0  0.87439  0.53180  0.13413  1.0000 -0.088393432
C   C127      1.0  0.74026  0.86587  0.39767  1.0000 -0.088393432
C   C128      1.0  0.25974  0.65741  0.12561  1.0000 -0.088393432
C   C129      1.0  0.39767  0.74026  0.86587  1.0000 -0.088393432
C   C130      1.0  0.13413  0.87439  0.53180  1.0000 -0.088393432
C   C131      1.0  0.65741  0.12561  0.25974  1.0000 -0.088393432
C   C132      1.0  0.86587  0.39767  0.74026  1.0000 -0.088393432
C   C133      1.0  0.65741  0.39767  0.53180  1.0000 -0.088393432
C   C134      1.0  0.53180  0.65741  0.39767  1.0000 -0.088393432
C   C135      1.0  0.39767  0.53180  0.65741  1.0000 -0.088393432
C   C136      1.0  0.87439  0.74026  0.34259  1.0000 -0.088393432
C   C137      1.0  0.46820  0.86587  0.12561  1.0000 -0.088393432
C   C138      1.0  0.12561  0.46820  0.86587  1.0000 -0.088393432
C   C139      1.0  0.25974  0.13413  0.60233  1.0000 -0.088393432
C   C140      1.0  0.74026  0.34259  0.87439  1.0000 -0.088393432
C   C141      1.0  0.60233  0.25974  0.13413  1.0000 -0.088393432
C   C142      1.0  0.86587  0.12561  0.46820  1.0000 -0.088393432
C   C143      1.0  0.34259  0.87439  0.74026  1.0000 -0.088393432
C   C144      1.0  0.13413  0.60233  0.25974  1.0000 -0.088393432
C   C145      1.0  0.41238  0.45881  0.38711  1.0000 -0.1956777931
C   C146      1.0  0.38711  0.41238  0.45881  1.0000 -0.1956777931
C   C147      1.0  0.45881  0.38711  0.41238  1.0000 -0.1956777931
C   C148      1.0  0.97473  0.04643  0.58762  1.0000 -0.1956777931
C   C149      1.0  0.61289  0.07170  0.02527  1.0000 -0.1956777931
C   C150      1.0  0.02527  0.61289  0.07170  1.0000 -0.1956777931
C   C151      1.0  0.95357  0.92830  0.54119  1.0000 -0.1956777931
C   C152      1.0  0.04643  0.58762  0.97473  1.0000 -0.1956777931
C   C153      1.0  0.54119  0.95357  0.92830  1.0000 -0.1956777931
C   C154      1.0  0.07170  0.02527  0.61289  1.0000 -0.1956777931
C   C155      1.0  0.58762  0.97473  0.04643  1.0000 -0.1956777931
C   C156      1.0  0.92830  0.54119  0.95357  1.0000 -0.1956777931
C   C157      1.0  0.58762  0.54119  0.61289  1.0000 -0.1956777931
C   C158      1.0  0.61289  0.58762  0.54119  1.0000 -0.1956777931
C   C159      1.0  0.54119  0.61289  0.58762  1.0000 -0.1956777931
C   C160      1.0  0.02527  0.95357  0.41238  1.0000 -0.1956777931
C   C161      1.0  0.38711  0.92830  0.97473  1.0000 -0.1956777931
C   C162      1.0  0.97473  0.38711  0.92830  1.0000 -0.1956777931
C   C163      1.0  0.04643  0.07170  0.45881  1.0000 -0.1956777931
C   C164      1.0  0.95357  0.41238  0.02527  1.0000 -0.1956777931
C   C165      1.0  0.45881  0.04643  0.07170  1.0000 -0.1956777931
C   C166      1.0  0.92830  0.97473  0.38711  1.0000 -0.1956777931
C   C167      1.0  0.41238  0.02527  0.95357  1.0000 -0.1956777931
C   C168      1.0  0.07170  0.45881  0.04643  1.0000 -0.1956777931
C   C169      1.0  0.28516  0.57680  0.47700  1.0000 -0.0342529723
C   C170      1.0  0.47700  0.28516  0.57680  1.0000 -0.0342529723
C   C171      1.0  0.57680  0.47700  0.28516  1.0000 -0.0342529723
C   C172      1.0  0.19184  0.29164  0.71484  1.0000 -0.0342529723
C   C173      1.0  0.52300  0.09980  0.80816  1.0000 -0.0342529723
C   C174      1.0  0.80816  0.52300  0.09980  1.0000 -0.0342529723
C   C175      1.0  0.70836  0.90020  0.42320  1.0000 -0.0342529723
C   C176      1.0  0.29164  0.71484  0.19184  1.0000 -0.0342529723
C   C177      1.0  0.42320  0.70836  0.90020  1.0000 -0.0342529723
C   C178      1.0  0.09980  0.80816  0.52300  1.0000 -0.0342529723
C   C179      1.0  0.71484  0.19184  0.29164  1.0000 -0.0342529723
C   C180      1.0  0.90020  0.42320  0.70836  1.0000 -0.0342529723
C   C181      1.0  0.71484  0.42320  0.52300  1.0000 -0.0342529723
C   C182      1.0  0.52300  0.71484  0.42320  1.0000 -0.0342529723
C   C183      1.0  0.42320  0.52300  0.71484  1.0000 -0.0342529723
C   C184      1.0  0.80816  0.70836  0.28516  1.0000 -0.0342529723
C   C185      1.0  0.47700  0.90020  0.19184  1.0000 -0.0342529723
C   C186      1.0  0.19184  0.47700  0.90020  1.0000 -0.0342529723
C   C187      1.0  0.29164  0.09980  0.57680  1.0000 -0.0342529723
C   C188      1.0  0.70836  0.28516  0.80816  1.0000 -0.0342529723
C   C189      1.0  0.57680  0.29164  0.09980  1.0000 -0.0342529723
C   C190      1.0  0.90020  0.19184  0.47700  1.0000 -0.0342529723
C   C191      1.0  0.28516  0.80816  0.70836  1.0000 -0.0342529723
C   C192      1.0  0.09980  0.57680  0.29164  1.0000 -0.0342529723
C   C193      1.0  0.37994  0.45222  0.42706  1.0000 0.0800412459
C   C194      1.0  0.42706  0.37994  0.45222  1.0000 0.0800412459
C   C195      1.0  0.45222  0.42706  0.37994  1.0000 0.0800412459
C   C196      1.0  0.04712  0.07228  0.62006  1.0000 0.0800412459
C   C197      1.0  0.57294  0.02516  0.95288  1.0000 0.0800412459
C   C198      1.0  0.95288  0.57294  0.02516  1.0000 0.0800412459
C   C199      1.0  0.92772  0.97484  0.54778  1.0000 0.0800412459
C   C200      1.0  0.07228  0.62006  0.04712  1.0000 0.0800412459
C   C201      1.0  0.54778  0.92772  0.97484  1.0000 0.0800412459
C   C202      1.0  0.02516  0.95288  0.57294  1.0000 0.0800412459
C   C203      1.0  0.62006  0.04712  0.07228  1.0000 0.0800412459
C   C204      1.0  0.97484  0.54778  0.92772  1.0000 0.0800412459
C   C205      1.0  0.62006  0.54778  0.57294  1.0000 0.0800412459
C   C206      1.0  0.57294  0.62006  0.54778  1.0000 0.0800412459
C   C207      1.0  0.54778  0.57294  0.62006  1.0000 0.0800412459
C   C208      1.0  0.95288  0.92772  0.37994  1.0000 0.0800412459
C   C209      1.0  0.42706  0.97484  0.04712  1.0000 0.0800412459
C   C210      1.0  0.04712  0.42706  0.97484  1.0000 0.0800412459
C   C211      1.0  0.07228  0.02516  0.45222  1.0000 0.0800412459
C   C212      1.0  0.92772  0.37994  0.95288  1.0000 0.0800412459
C   C213      1.0  0.45222  0.07228  0.02516  1.0000 0.0800412459
C   C214      1.0  0.97484  0.04712  0.42706  1.0000 0.0800412459
C   C215      1.0  0.37994  0.95288  0.92772  1.0000 0.0800412459
C   C216      1.0  0.02516  0.45222  0.07228  1.0000 0.0800412459
O   O1        1.0  0.19892  0.59655  0.49771  1.0000 -0.5140727534
O   O2        1.0  0.49771  0.19892  0.59655  1.0000 -0.5140727534
O   O3        1.0  0.59655  0.49771  0.19892  1.0000 -0.5140727534
O   O4        1.0  0.29879  0.39763  0.80108  1.0000 -0.5140727534
O   O5        1.0  0.50229  0.09884  0.70121  1.0000 -0.5140727534
O   O6        1.0  0.70121  0.50229  0.09884  1.0000 -0.5140727534
O   O7        1.0  0.60237  0.90116  0.40345  1.0000 -0.5140727534
O   O8        1.0  0.39763  0.80108  0.29879  1.0000 -0.5140727534
O   O9        1.0  0.40345  0.60237  0.90116  1.0000 -0.5140727534
O   O10       1.0  0.09884  0.70121  0.50229  1.0000 -0.5140727534
O   O11       1.0  0.80108  0.29879  0.39763  1.0000 -0.5140727534
O   O12       1.0  0.90116  0.40345  0.60237  1.0000 -0.5140727534
O   O13       1.0  0.80108  0.40345  0.50229  1.0000 -0.5140727534
O   O14       1.0  0.50229  0.80108  0.40345  1.0000 -0.5140727534
O   O15       1.0  0.40345  0.50229  0.80108  1.0000 -0.5140727534
O   O16       1.0  0.70121  0.60237  0.19892  1.0000 -0.5140727534
O   O17       1.0  0.49771  0.90116  0.29879  1.0000 -0.5140727534
O   O18       1.0  0.29879  0.49771  0.90116  1.0000 -0.5140727534
O   O19       1.0  0.39763  0.09884  0.59655  1.0000 -0.5140727534
O   O20       1.0  0.60237  0.19892  0.70121  1.0000 -0.5140727534
O   O21       1.0  0.59655  0.39763  0.09884  1.0000 -0.5140727534
O   O22       1.0  0.90116  0.29879  0.49771  1.0000 -0.5140727534
O   O23       1.0  0.19892  0.70121  0.60237  1.0000 -0.5140727534
O   O24       1.0  0.09884  0.59655  0.39763  1.0000 -0.5140727534
O   O25       1.0  0.28099  0.67995  0.49780  1.0000 -0.5199074073
O   O26       1.0  0.49780  0.28099  0.67995  1.0000 -0.5199074073
O   O27       1.0  0.67995  0.49780  0.28099  1.0000 -0.5199074073
O   O28       1.0  0.21681  0.39896  0.71901  1.0000 -0.5199074073
O   O29       1.0  0.50220  0.18215  0.78319  1.0000 -0.5199074073
O   O30       1.0  0.78319  0.50220  0.18215  1.0000 -0.5199074073
O   O31       1.0  0.60104  0.81785  0.32005  1.0000 -0.5199074073
O   O32       1.0  0.39896  0.71901  0.21681  1.0000 -0.5199074073
O   O33       1.0  0.32005  0.60104  0.81785  1.0000 -0.5199074073
O   O34       1.0  0.18215  0.78319  0.50220  1.0000 -0.5199074073
O   O35       1.0  0.71901  0.21681  0.39896  1.0000 -0.5199074073
O   O36       1.0  0.81785  0.32005  0.60104  1.0000 -0.5199074073
O   O37       1.0  0.71901  0.32005  0.50220  1.0000 -0.5199074073
O   O38       1.0  0.50220  0.71901  0.32005  1.0000 -0.5199074073
O   O39       1.0  0.32005  0.50220  0.71901  1.0000 -0.5199074073
O   O40       1.0  0.78319  0.60104  0.28099  1.0000 -0.5199074073
O   O41       1.0  0.49780  0.81785  0.21681  1.0000 -0.5199074073
O   O42       1.0  0.21681  0.49780  0.81785  1.0000 -0.5199074073
O   O43       1.0  0.39896  0.18215  0.67995  1.0000 -0.5199074073
O   O44       1.0  0.60104  0.28099  0.78319  1.0000 -0.5199074073
O   O45       1.0  0.67995  0.39896  0.18215  1.0000 -0.5199074073
O   O46       1.0  0.81785  0.21681  0.49780  1.0000 -0.5199074073
O   O47       1.0  0.28099  0.78319  0.60104  1.0000 -0.5199074073
O   O48       1.0  0.18215  0.67995  0.39896  1.0000 -0.5199074073
