# DDEC6 charges by PACMAN v1.1 (https://github.com/mtap-research/PACMAN-charge/)
data_2014[Mg][nan]3[ASR]1
_chemical_formula_sum              "Mg4 H32 C52 N4 O20"
_cell_length_a       12.5302
_cell_length_b       12.5302
_cell_length_c       13.924
_cell_angle_alpha    61.3079
_cell_angle_beta     118.692
_cell_angle_gamma    95.2269

_symmetry_space_group_name_H-M    "P 1"
_symmetry_Int_Tables_number       1

loop_
  _symmetry_equiv_pos_as_xyz
  'x, y, z'

loop_
  _atom_site_type_symbol
  _atom_site_label
  _atom_site_symmetry_multiplicity
  _atom_site_fract_x
  _atom_site_fract_y
  _atom_site_fract_z
  _atom_site_occupancy
  _atom_site_charge
Mg  Mg1       1.0  0.19210  0.19210  0.75000  1.0000 1.3577438931
Mg  Mg2       1.0  0.80790  0.80790  0.25000  1.0000 1.3577438931
Mg  Mg3       1.0  0.00000  0.50000  0.50000  1.0000 1.3506872396
Mg  Mg4       1.0  0.50000  0.00000  0.00000  1.0000 1.3506872396
H   H1        1.0  0.94810  0.02210  0.59060  1.0000 0.1288741271
H   H2        1.0  0.02210  0.94810  0.90940  1.0000 0.1288741271
H   H3        1.0  0.05190  0.97790  0.40940  1.0000 0.1288741271
H   H4        1.0  0.97790  0.05190  0.09060  1.0000 0.1288741271
H   H5        1.0  0.84530  0.91330  0.48910  1.0000 0.1181158352
H   H6        1.0  0.91330  0.84530  0.01090  1.0000 0.1181158352
H   H7        1.0  0.15470  0.08670  0.51090  1.0000 0.1181158352
H   H8        1.0  0.08670  0.15470  0.98910  1.0000 0.1181158352
H   H9        1.0  0.64420  0.22880  0.17230  1.0000 0.1085578318
H   H10       1.0  0.22880  0.64420  0.32770  1.0000 0.1085578318
H   H11       1.0  0.35580  0.77120  0.82770  1.0000 0.1085578318
H   H12       1.0  0.77120  0.35580  0.67230  1.0000 0.1085578318
H   H13       1.0  0.75130  0.33850  0.27170  1.0000 0.1181158352
H   H14       1.0  0.33850  0.75130  0.22830  1.0000 0.1181158352
H   H15       1.0  0.24870  0.66150  0.72830  1.0000 0.1181158352
H   H16       1.0  0.66150  0.24870  0.77170  1.0000 0.1181158352
H   H17       1.0  0.30640  0.24320  0.99440  1.0000 0.1482294652
H   H18       1.0  0.24320  0.30640  0.50560  1.0000 0.1482294652
H   H19       1.0  0.69360  0.75680  0.00560  1.0000 0.1482294652
H   H20       1.0  0.75680  0.69360  0.49440  1.0000 0.1482294652
H   H21       1.0  0.36090  0.39570  0.04670  1.0000 0.1366945794
H   H22       1.0  0.39570  0.36090  0.45330  1.0000 0.1366945794
H   H23       1.0  0.63910  0.60430  0.95330  1.0000 0.1366945794
H   H24       1.0  0.60430  0.63910  0.54670  1.0000 0.1366945794
H   H25       1.0  0.59230  0.46510  0.91140  1.0000 0.1366945794
H   H26       1.0  0.46510  0.59230  0.58860  1.0000 0.1366945794
H   H27       1.0  0.40770  0.53490  0.08860  1.0000 0.1366945794
H   H28       1.0  0.53490  0.40770  0.41140  1.0000 0.1366945794
H   H29       1.0  0.53600  0.30980  0.86340  1.0000 0.1366945794
H   H30       1.0  0.30980  0.53600  0.63660  1.0000 0.1366945794
H   H31       1.0  0.46400  0.69020  0.13660  1.0000 0.1366945794
H   H32       1.0  0.69020  0.46400  0.36340  1.0000 0.1366945794
C   C1        1.0  0.86201  0.19189  0.44140  1.0000 -0.0204018777
C   C2        1.0  0.19189  0.86201  0.05860  1.0000 -0.0204018777
C   C3        1.0  0.13799  0.80811  0.55860  1.0000 -0.0204018777
C   C4        1.0  0.80811  0.13799  0.94140  1.0000 -0.0204018777
C   C5        1.0  0.88799  0.06459  0.50550  1.0000 -0.098412478
C   C6        1.0  0.06459  0.88799  0.99450  1.0000 -0.098412478
C   C7        1.0  0.11201  0.93541  0.49450  1.0000 -0.098412478
C   C8        1.0  0.93541  0.11201  0.00550  1.0000 -0.098412478
C   C9        1.0  0.82579  0.99919  0.44470  1.0000 -0.098412478
C   C10       1.0  0.99919  0.82579  0.05530  1.0000 -0.098412478
C   C11       1.0  0.17421  0.00081  0.55530  1.0000 -0.098412478
C   C12       1.0  0.00081  0.17421  0.94470  1.0000 -0.098412478
C   C13       1.0  0.73493  0.05983  0.31910  1.0000 -0.0204018777
C   C14       1.0  0.05983  0.73493  0.18090  1.0000 -0.0204018777
C   C15       1.0  0.26507  0.94017  0.68090  1.0000 -0.0204018777
C   C16       1.0  0.94017  0.26507  0.81910  1.0000 -0.0204018777
C   C17       1.0  0.70690  0.18650  0.25640  1.0000 -0.1113478799
C   C18       1.0  0.18650  0.70690  0.24360  1.0000 -0.1113478799
C   C19       1.0  0.29310  0.81350  0.74360  1.0000 -0.1113478799
C   C20       1.0  0.81350  0.29310  0.75640  1.0000 -0.1113478799
C   C21       1.0  0.77058  0.25258  0.31630  1.0000 -0.1173259501
C   C22       1.0  0.25258  0.77058  0.18370  1.0000 -0.1173259501
C   C23       1.0  0.22942  0.74742  0.68370  1.0000 -0.1173259501
C   C24       1.0  0.74742  0.22942  0.81630  1.0000 -0.1173259501
C   C25       1.0  0.93890  0.26110  0.50620  1.0000 0.6222785751
C   C26       1.0  0.26110  0.93890  0.99380  1.0000 0.6222785751
C   C27       1.0  0.06110  0.73890  0.49380  1.0000 0.6222785751
C   C28       1.0  0.73890  0.06110  0.00620  1.0000 0.6222785751
C   C29       1.0  0.67580  0.98870  0.25070  1.0000 0.6222785751
C   C30       1.0  0.98870  0.67580  0.24930  1.0000 0.6222785751
C   C31       1.0  0.32420  0.01130  0.74930  1.0000 0.6222785751
C   C32       1.0  0.01130  0.32420  0.75070  1.0000 0.6222785751
C   C33       1.0  0.36352  0.28952  0.97680  1.0000 -0.0027984802
C   C34       1.0  0.28952  0.36352  0.52320  1.0000 -0.0027984802
C   C35       1.0  0.63648  0.71048  0.02320  1.0000 -0.0027984802
C   C36       1.0  0.71048  0.63648  0.47680  1.0000 -0.0027984802
C   C37       1.0  0.39636  0.38076  0.00810  1.0000 -0.181120794
C   C38       1.0  0.38076  0.39636  0.49190  1.0000 -0.181120794
C   C39       1.0  0.60364  0.61924  0.99190  1.0000 -0.181120794
C   C40       1.0  0.61924  0.60364  0.50810  1.0000 -0.181120794
C   C41       1.0  0.48154  0.45076  0.98300  1.0000 0.0931028168
C   C42       1.0  0.45076  0.48154  0.51700  1.0000 0.0931028168
C   C43       1.0  0.51846  0.54924  0.01700  1.0000 0.0931028168
C   C44       1.0  0.54924  0.51846  0.48300  1.0000 0.0931028168
C   C45       1.0  0.53356  0.42156  0.92830  1.0000 -0.1991268058
C   C46       1.0  0.42156  0.53356  0.57170  1.0000 -0.1991268058
C   C47       1.0  0.46644  0.57844  0.07170  1.0000 -0.1991268058
C   C48       1.0  0.57844  0.46644  0.42830  1.0000 -0.1991268058
C   C49       1.0  0.49944  0.32924  0.89880  1.0000 -0.0366408599
C   C50       1.0  0.32924  0.49944  0.60120  1.0000 -0.0366408599
C   C51       1.0  0.50056  0.67076  0.10120  1.0000 -0.0366408599
C   C52       1.0  0.67076  0.50056  0.39880  1.0000 -0.0366408599
N   N1        1.0  0.41382  0.26720  0.92090  1.0000 0.3287194113
N   N2        1.0  0.26720  0.41382  0.57910  1.0000 0.3287194113
N   N3        1.0  0.58618  0.73280  0.07910  1.0000 0.3287194113
N   N4        1.0  0.73280  0.58618  0.42090  1.0000 0.3287194113
O   O1        1.0  0.02029  0.19709  0.61940  1.0000 -0.6403143887
O   O2        1.0  0.19709  0.02029  0.88060  1.0000 -0.6403143887
O   O3        1.0  0.97971  0.80291  0.38060  1.0000 -0.6403143887
O   O4        1.0  0.80291  0.97971  0.11940  1.0000 -0.6403143887
O   O5        1.0  0.91621  0.37743  0.44152  1.0000 -0.6403143887
O   O6        1.0  0.37743  0.91621  0.05848  1.0000 -0.6403143887
O   O7        1.0  0.08379  0.62257  0.55848  1.0000 -0.6403143887
O   O8        1.0  0.62257  0.08379  0.94152  1.0000 -0.6403143887
O   O9        1.0  0.72603  0.87803  0.30761  1.0000 -0.658472534
O   O10       1.0  0.87803  0.72603  0.19239  1.0000 -0.658472534
O   O11       1.0  0.27397  0.12197  0.69239  1.0000 -0.658472534
O   O12       1.0  0.12197  0.27397  0.80761  1.0000 -0.658472534
O   O13       1.0  0.58380  0.04440  0.14203  1.0000 -0.6225621511
O   O14       1.0  0.04440  0.58380  0.35797  1.0000 -0.6225621511
O   O15       1.0  0.41620  0.95560  0.85797  1.0000 -0.6225621511
O   O16       1.0  0.95560  0.41620  0.64203  1.0000 -0.6225621511
O   O17       1.0  0.37931  0.18089  0.88767  1.0000 -0.6050107737
O   O18       1.0  0.18089  0.37931  0.61233  1.0000 -0.604643013
O   O19       1.0  0.62069  0.81911  0.11233  1.0000 -0.6050107737
O   O20       1.0  0.81911  0.62069  0.38767  1.0000 -0.6050107737
