# DDEC6 charges by PACMAN v1.1 (https://github.com/mtap-research/PACMAN-charge/)
data_2014[Al][nan]3[ASR]4
_chemical_formula_sum              "Al4 H16 C32 O20"
_cell_length_a       12.0258
_cell_length_b       12.0258
_cell_length_c       12.0258
_cell_angle_alpha    103.908
_cell_angle_beta     103.908
_cell_angle_gamma    121.283

_symmetry_space_group_name_H-M    "P 1"
_symmetry_Int_Tables_number       1

loop_
  _symmetry_equiv_pos_as_xyz
  'x, y, z'

loop_
  _atom_site_type_symbol
  _atom_site_label
  _atom_site_symmetry_multiplicity
  _atom_site_fract_x
  _atom_site_fract_y
  _atom_site_fract_z
  _atom_site_occupancy
  _atom_site_charge
Al  Al1       1.0  0.19415  0.80585  0.00000  1.0000 1.6255819185
Al  Al2       1.0  0.80585  0.19415  0.00000  1.0000 1.6255819185
Al  Al3       1.0  0.05585  0.55585  0.11170  1.0000 1.6255819185
Al  Al4       1.0  0.44415  0.94415  0.88830  1.0000 1.6249493941
H   H1        1.0  0.43986  0.87500  0.06486  1.0000 0.4108930214
H   H2        1.0  0.81014  0.37500  0.93514  1.0000 0.4108930214
H   H3        1.0  0.12500  0.56014  0.93514  1.0000 0.4108930214
H   H4        1.0  0.62500  0.18986  0.06486  1.0000 0.4108930214
H   H5        1.0  0.12900  0.12900  0.00000  1.0000 0.1366797819
H   H6        1.0  0.12100  0.62100  0.50000  1.0000 0.1366797819
H   H7        1.0  0.87100  0.87100  0.00000  1.0000 0.1366797819
H   H8        1.0  0.37900  0.87900  0.50000  1.0000 0.1366797819
H   H9        1.0  0.48053  0.28897  0.95480  1.0000 0.1246194674
H   H10       1.0  0.33417  0.52573  0.04520  1.0000 0.1246194674
H   H11       1.0  0.76947  0.22427  0.30844  1.0000 0.1246194674
H   H12       1.0  0.71103  0.51947  0.04520  1.0000 0.1246194674
H   H13       1.0  0.77573  0.23053  0.69156  1.0000 0.1246194674
H   H14       1.0  0.53897  0.08417  0.30844  1.0000 0.1246194674
H   H15       1.0  0.47427  0.66583  0.95480  1.0000 0.1246194674
H   H16       1.0  0.91583  0.46103  0.69156  1.0000 0.1246194674
C   C1        1.0  0.28866  0.05477  0.94595  1.0000 0.6264273583
C   C2        1.0  0.10882  0.34271  0.05405  1.0000 0.6264273583
C   C3        1.0  0.96134  0.40729  0.26611  1.0000 0.6264273583
C   C4        1.0  0.94523  0.71134  0.05405  1.0000 0.6264273583
C   C5        1.0  0.59271  0.03866  0.73389  1.0000 0.6264273583
C   C6        1.0  0.30477  0.85882  0.26611  1.0000 0.6264273583
C   C7        1.0  0.65729  0.89118  0.94595  1.0000 0.6264273583
C   C8        1.0  0.14118  0.69523  0.73389  1.0000 0.6264273583
C   C9        1.0  0.30087  0.19082  0.96757  1.0000 -0.0243444594
C   C10       1.0  0.22325  0.33333  0.03243  1.0000 -0.0243444594
C   C11       1.0  0.94913  0.41670  0.38995  1.0000 -0.0243444594
C   C12       1.0  0.80918  0.69913  0.03243  1.0000 -0.0243444594
C   C13       1.0  0.58330  0.05087  0.61005  1.0000 -0.0243444594
C   C14       1.0  0.44082  0.97325  0.38995  1.0000 -0.0243444594
C   C15       1.0  0.66667  0.77675  0.96757  1.0000 -0.0243444594
C   C16       1.0  0.02675  0.55918  0.61005  1.0000 -0.0243444594
C   C17       1.0  0.20562  0.20562  0.00000  1.0000 -0.1033721135
C   C18       1.0  0.04438  0.54438  0.50000  1.0000 -0.1033721135
C   C19       1.0  0.79438  0.79438  0.00000  1.0000 -0.1033721135
C   C20       1.0  0.45562  0.95562  0.50000  1.0000 -0.1033721135
C   C21       1.0  0.41892  0.31030  0.96672  1.0000 -0.150115309
C   C22       1.0  0.34358  0.45220  0.03328  1.0000 -0.150115309
C   C23       1.0  0.83108  0.29780  0.39138  1.0000 -0.150115309
C   C24       1.0  0.68970  0.58108  0.03328  1.0000 -0.150115309
C   C25       1.0  0.70220  0.16892  0.60862  1.0000 -0.150115309
C   C26       1.0  0.56030  0.09358  0.39138  1.0000 -0.150115309
C   C27       1.0  0.54780  0.65642  0.96672  1.0000 -0.150115309
C   C28       1.0  0.90642  0.43970  0.60862  1.0000 -0.150115309
C   C29       1.0  0.43719  0.43719  0.00000  1.0000 0.0759439043
C   C30       1.0  0.81281  0.31281  0.50000  1.0000 0.0759439043
C   C31       1.0  0.56281  0.56281  0.00000  1.0000 0.0759439043
C   C32       1.0  0.68719  0.18719  0.50000  1.0000 0.0759439043
O   O1        1.0  0.38052  0.87500  0.00552  1.0000 -0.9991348849
O   O2        1.0  0.86948  0.37500  0.99448  1.0000 -0.9991348849
O   O3        1.0  0.12500  0.61948  0.99448  1.0000 -0.9991348849
O   O4        1.0  0.62500  0.13052  0.00552  1.0000 -0.9991348849
O   O5        1.0  0.35777  0.04035  0.89032  1.0000 -0.5764611081
O   O6        1.0  0.15003  0.46745  0.10968  1.0000 -0.5764611081
O   O7        1.0  0.89223  0.28255  0.18258  1.0000 -0.5764611081
O   O8        1.0  0.95965  0.64223  0.10968  1.0000 -0.5764611081
O   O9        1.0  0.71745  0.10777  0.81742  1.0000 -0.5764611081
O   O10       1.0  0.29035  0.90003  0.18258  1.0000 -0.5764611081
O   O11       1.0  0.53255  0.84997  0.89032  1.0000 -0.5764611081
O   O12       1.0  0.09997  0.70965  0.81742  1.0000 -0.5764611081
O   O13       1.0  0.23092  0.98523  0.00407  1.0000 -0.5733426974
O   O14       1.0  0.98116  0.22685  0.99593  1.0000 -0.5733426974
O   O15       1.0  0.01908  0.52315  0.25431  1.0000 -0.5733426974
O   O16       1.0  0.01477  0.76908  0.99593  1.0000 -0.5733426974
O   O17       1.0  0.47685  0.98092  0.74569  1.0000 -0.5733426974
O   O18       1.0  0.23523  0.73116  0.25431  1.0000 -0.5733426974
O   O19       1.0  0.77315  0.01884  0.00407  1.0000 -0.5733426974
O   O20       1.0  0.26884  0.76477  0.74569  1.0000 -0.5733426974
