# DDEC6 charges by PACMAN v1.1 (https://github.com/mtap-research/PACMAN-charge/)
data_2014[Ce][nan]3[ASR]5
_chemical_formula_sum              "Ce4 H28 C60 O24"
_cell_length_a       13.9931
_cell_length_b       13.9931
_cell_length_c       15.0538
_cell_angle_alpha    84.0471
_cell_angle_beta     95.9529
_cell_angle_gamma    125.18

_symmetry_space_group_name_H-M    "P 1"
_symmetry_Int_Tables_number       1

loop_
  _symmetry_equiv_pos_as_xyz
  'x, y, z'

loop_
  _atom_site_type_symbol
  _atom_site_label
  _atom_site_symmetry_multiplicity
  _atom_site_fract_x
  _atom_site_fract_y
  _atom_site_fract_z
  _atom_site_occupancy
  _atom_site_charge
Ce  Ce1       1.0  0.87423  0.53185  0.96617  1.0000 1.9772547302
Ce  Ce2       1.0  0.53185  0.87423  0.53383  1.0000 1.9772547302
Ce  Ce3       1.0  0.12577  0.46815  0.03383  1.0000 1.9772547302
Ce  Ce4       1.0  0.46815  0.12577  0.46617  1.0000 1.9772547302
H   H1        1.0  0.22180  0.68220  0.28970  1.0000 0.1335565974
H   H2        1.0  0.68220  0.22180  0.21030  1.0000 0.1335565974
H   H3        1.0  0.77820  0.31780  0.71030  1.0000 0.1335565974
H   H4        1.0  0.31780  0.77820  0.78970  1.0000 0.1335565974
H   H5        1.0  0.15030  0.85910  0.43120  1.0000 0.1211603419
H   H6        1.0  0.85910  0.15030  0.06880  1.0000 0.1211603419
H   H7        1.0  0.84970  0.14090  0.56880  1.0000 0.1211603419
H   H8        1.0  0.14090  0.84970  0.93120  1.0000 0.1211603419
H   H9        1.0  0.93190  0.67290  0.22750  1.0000 0.1211603419
H   H10       1.0  0.67290  0.93190  0.27250  1.0000 0.1211603419
H   H11       1.0  0.06810  0.32710  0.77250  1.0000 0.1211603419
H   H12       1.0  0.32710  0.06810  0.72750  1.0000 0.1211603419
H   H13       1.0  0.05420  0.95520  0.39560  1.0000 0.1211603419
H   H14       1.0  0.95520  0.05420  0.10440  1.0000 0.1211603419
H   H15       1.0  0.94580  0.04480  0.60440  1.0000 0.1211603419
H   H16       1.0  0.04480  0.94580  0.89560  1.0000 0.1211603419
H   H17       1.0  0.92070  0.98230  0.44370  1.0000 0.1127614347
H   H18       1.0  0.98230  0.92070  0.05630  1.0000 0.1127614347
H   H19       1.0  0.07930  0.01770  0.55630  1.0000 0.1127614347
H   H20       1.0  0.01770  0.07930  0.94370  1.0000 0.1127614347
H   H21       1.0  0.66100  0.66080  0.37920  1.0000 0.1211603419
H   H22       1.0  0.66080  0.66100  0.12080  1.0000 0.1211603419
H   H23       1.0  0.33900  0.33920  0.62080  1.0000 0.1211603419
H   H24       1.0  0.33920  0.33900  0.87920  1.0000 0.1211603419
H   H25       1.0  0.79260  0.63220  0.32920  1.0000 0.1127614347
H   H26       1.0  0.63220  0.79260  0.17080  1.0000 0.1127614347
H   H27       1.0  0.20740  0.36780  0.67080  1.0000 0.1127614347
H   H28       1.0  0.36780  0.20740  0.82920  1.0000 0.1127614347
C   C1        1.0  0.04600  0.59700  0.16590  1.0000 0.6202842709
C   C2        1.0  0.59700  0.04600  0.33410  1.0000 0.6202842709
C   C3        1.0  0.95400  0.40300  0.83410  1.0000 0.6202842709
C   C4        1.0  0.40300  0.95400  0.66590  1.0000 0.6202842709
C   C5        1.0  0.07504  0.66936  0.24510  1.0000 -0.0232430208
C   C6        1.0  0.66936  0.07504  0.25490  1.0000 -0.0232430208
C   C7        1.0  0.92496  0.33064  0.75490  1.0000 -0.0232430208
C   C8        1.0  0.33064  0.92496  0.74510  1.0000 -0.0232430208
C   C9        1.0  0.17393  0.70587  0.29960  1.0000 -0.1010372398
C   C10       1.0  0.70587  0.17393  0.20040  1.0000 -0.1010372398
C   C11       1.0  0.82607  0.29413  0.70040  1.0000 -0.1010372398
C   C12       1.0  0.29413  0.82607  0.79960  1.0000 -0.1010372398
C   C13       1.0  0.20330  0.77730  0.36890  1.0000 -0.0299880426
C   C14       1.0  0.77730  0.20330  0.13110  1.0000 -0.0299880426
C   C15       1.0  0.79670  0.22270  0.63110  1.0000 -0.0299880426
C   C16       1.0  0.22270  0.79670  0.86890  1.0000 -0.0299880426
C   C17       1.0  0.31174  0.81606  0.42700  1.0000 0.6005632397
C   C18       1.0  0.81606  0.31174  0.07300  1.0000 0.6005632397
C   C19       1.0  0.68826  0.18394  0.57300  1.0000 0.6005632397
C   C20       1.0  0.18394  0.68826  0.92700  1.0000 0.6005632397
C   C21       1.0  0.12951  0.80929  0.38560  1.0000 -0.1525538919
C   C22       1.0  0.80929  0.12951  0.11440  1.0000 -0.1525538919
C   C23       1.0  0.87049  0.19071  0.61440  1.0000 -0.1525538919
C   C24       1.0  0.19071  0.87049  0.88560  1.0000 -0.1525538919
C   C25       1.0  0.02505  0.76775  0.33510  1.0000 0.0569299818
C   C26       1.0  0.76775  0.02505  0.16490  1.0000 0.0569299818
C   C27       1.0  0.97495  0.23225  0.66490  1.0000 0.0569299818
C   C28       1.0  0.23225  0.97495  0.83510  1.0000 0.0569299818
C   C29       1.0  0.99985  0.69915  0.26350  1.0000 -0.1437075767
C   C30       1.0  0.69915  0.99985  0.23650  1.0000 -0.1437075767
C   C31       1.0  0.00015  0.30085  0.73650  1.0000 -0.1437075767
C   C32       1.0  0.30085  0.00015  0.76350  1.0000 -0.1437075767
C   C33       1.0  0.93868  0.78932  0.35930  1.0000 0.0672764149
C   C34       1.0  0.78932  0.93868  0.14070  1.0000 0.0672764149
C   C35       1.0  0.06132  0.21068  0.64070  1.0000 0.0672764149
C   C36       1.0  0.21068  0.06132  0.85930  1.0000 0.0672764149
C   C37       1.0  0.97492  0.89448  0.39280  1.0000 -0.1558623297
C   C38       1.0  0.89448  0.97492  0.10720  1.0000 -0.1525538919
C   C39       1.0  0.02508  0.10552  0.60720  1.0000 -0.1525538919
C   C40       1.0  0.10552  0.02508  0.89280  1.0000 -0.1558623297
C   C41       1.0  0.89485  0.91075  0.42220  1.0000 -0.1010372398
C   C42       1.0  0.91075  0.89485  0.07780  1.0000 -0.1010372398
C   C43       1.0  0.10515  0.08925  0.57780  1.0000 -0.1010372398
C   C44       1.0  0.08925  0.10515  0.92220  1.0000 -0.1010372398
C   C45       1.0  0.77710  0.82150  0.42000  1.0000 -0.0232430208
C   C46       1.0  0.82150  0.77710  0.08000  1.0000 -0.0232430208
C   C47       1.0  0.22290  0.17850  0.58000  1.0000 -0.0232430208
C   C48       1.0  0.17850  0.22290  0.92000  1.0000 -0.0232430208
C   C49       1.0  0.69364  0.83716  0.46170  1.0000 0.5580823538
C   C50       1.0  0.83716  0.69364  0.03830  1.0000 0.5580823538
C   C51       1.0  0.30636  0.16284  0.53830  1.0000 0.5580823538
C   C52       1.0  0.16284  0.30636  0.96170  1.0000 0.5580823538
C   C53       1.0  0.74060  0.72000  0.38380  1.0000 -0.1010372398
C   C54       1.0  0.72000  0.74060  0.11620  1.0000 -0.1010372398
C   C55       1.0  0.25940  0.28000  0.61620  1.0000 -0.1010372398
C   C56       1.0  0.28000  0.25940  0.88380  1.0000 -0.1010372398
C   C57       1.0  0.81970  0.70270  0.35360  1.0000 -0.1558623297
C   C58       1.0  0.70270  0.81970  0.14640  1.0000 -0.1558623297
C   C59       1.0  0.18030  0.29730  0.64640  1.0000 -0.1558623297
C   C60       1.0  0.29730  0.18030  0.85360  1.0000 -0.1558623297
O   O1        1.0  0.95261  0.56519  0.12150  1.0000 -0.6119682151
O   O2        1.0  0.56519  0.95261  0.37850  1.0000 -0.6119682151
O   O3        1.0  0.04739  0.43481  0.87850  1.0000 -0.6119682151
O   O4        1.0  0.43481  0.04739  0.62150  1.0000 -0.6119682151
O   O5        1.0  0.11613  0.57247  0.15160  1.0000 -0.6499713543
O   O6        1.0  0.57247  0.11613  0.34840  1.0000 -0.6499713543
O   O7        1.0  0.88387  0.42753  0.84840  1.0000 -0.6499713543
O   O8        1.0  0.42753  0.88387  0.65160  1.0000 -0.6499713543
O   O9        1.0  0.34527  0.74933  0.43940  1.0000 -0.5729423049
O   O10       1.0  0.74933  0.34527  0.06060  1.0000 -0.5729423049
O   O11       1.0  0.65473  0.25067  0.56060  1.0000 -0.5729423049
O   O12       1.0  0.25067  0.65473  0.93940  1.0000 -0.5729423049
O   O13       1.0  0.36595  0.91285  0.46330  1.0000 -0.6934787515
O   O14       1.0  0.91285  0.36595  0.03670  1.0000 -0.6934787515
O   O15       1.0  0.63405  0.08715  0.53670  1.0000 -0.6934787515
O   O16       1.0  0.08715  0.63405  0.96330  1.0000 -0.6934787515
O   O17       1.0  0.73360  0.93060  0.49840  1.0000 -0.6119682151
O   O18       1.0  0.93060  0.73360  0.00160  1.0000 -0.6119682151
O   O19       1.0  0.26640  0.06940  0.50160  1.0000 -0.6119682151
O   O20       1.0  0.06940  0.26640  0.99840  1.0000 -0.6119682151
O   O21       1.0  0.58589  0.75551  0.45970  1.0000 -0.5978652719
O   O22       1.0  0.75551  0.58589  0.04030  1.0000 -0.5978652719
O   O23       1.0  0.41411  0.24449  0.54030  1.0000 -0.5978652719
O   O24       1.0  0.24449  0.41411  0.95970  1.0000 -0.5978652719
