# DDEC6 charges by PACMAN v1.1 (https://github.com/mtap-research/PACMAN-charge/)
data_2014[Sc][nan]3[ASR]9
_chemical_formula_sum              "Sc4 H24 C48 O24"
_cell_length_a       19.9834
_cell_length_b       17.6648
_cell_length_c       11.2454
_cell_angle_alpha    84.3419
_cell_angle_beta     61.6025
_cell_angle_gamma    34.0556

_symmetry_space_group_name_H-M    "P 1"
_symmetry_Int_Tables_number       1

loop_
  _symmetry_equiv_pos_as_xyz
  'x, y, z'

loop_
  _atom_site_type_symbol
  _atom_site_label
  _atom_site_symmetry_multiplicity
  _atom_site_fract_x
  _atom_site_fract_y
  _atom_site_fract_z
  _atom_site_occupancy
  _atom_site_charge
Sc  Sc1       1.0  0.26030  0.26030  0.73970  1.0000 1.8235888106
Sc  Sc2       1.0  0.73970  0.73970  0.26030  1.0000 1.8235888106
Sc  Sc3       1.0  0.98970  0.98970  0.51030  1.0000 1.8235888106
Sc  Sc4       1.0  0.51030  0.51030  0.98970  1.0000 1.8235888106
H   H1        1.0  0.39030  0.34590  0.41030  1.0000 0.1267887053
H   H2        1.0  0.85350  0.41030  0.34590  1.0000 0.1267887053
H   H3        1.0  0.41030  0.85350  0.39030  1.0000 0.1267887053
H   H4        1.0  0.34590  0.39030  0.85350  1.0000 0.1267887053
H   H5        1.0  0.85970  0.90410  0.83970  1.0000 0.1267887053
H   H6        1.0  0.39650  0.83970  0.90410  1.0000 0.1267887053
H   H7        1.0  0.83970  0.39650  0.85970  1.0000 0.1267887053
H   H8        1.0  0.90410  0.85970  0.39650  1.0000 0.1267887053
H   H9        1.0  0.46730  0.37730  0.21530  1.0000 0.1241649759
H   H10       1.0  0.94010  0.21530  0.37730  1.0000 0.1241649759
H   H11       1.0  0.21530  0.94010  0.46730  1.0000 0.1241649759
H   H12       1.0  0.37730  0.46730  0.94010  1.0000 0.1241649759
H   H13       1.0  0.78270  0.87270  0.03470  1.0000 0.1241649759
H   H14       1.0  0.30990  0.03470  0.87270  1.0000 0.1241649759
H   H15       1.0  0.03470  0.30990  0.78270  1.0000 0.1241649759
H   H16       1.0  0.87270  0.78270  0.30990  1.0000 0.1241649759
H   H17       1.0  0.46810  0.03450  0.91930  1.0000 0.1267887053
H   H18       1.0  0.57810  0.91930  0.03450  1.0000 0.1267887053
H   H19       1.0  0.91930  0.57810  0.46810  1.0000 0.1267887053
H   H20       1.0  0.03450  0.46810  0.57810  1.0000 0.1267887053
H   H21       1.0  0.78190  0.21550  0.33070  1.0000 0.1267887053
H   H22       1.0  0.67190  0.33070  0.21550  1.0000 0.1267887053
H   H23       1.0  0.33070  0.67190  0.78190  1.0000 0.1267887053
H   H24       1.0  0.21550  0.78190  0.67190  1.0000 0.1267887053
C   C1        1.0  0.52490  0.08890  0.36590  1.0000 0.654495154
C   C2        1.0  0.02030  0.36590  0.08890  1.0000 0.6554615122
C   C3        1.0  0.36590  0.02030  0.52490  1.0000 0.6554615122
C   C4        1.0  0.08890  0.52490  0.02030  1.0000 0.654495154
C   C5        1.0  0.72510  0.16110  0.88410  1.0000 0.654495154
C   C6        1.0  0.22970  0.88410  0.16110  1.0000 0.654495154
C   C7        1.0  0.88410  0.22970  0.72510  1.0000 0.654495154
C   C8        1.0  0.16110  0.72510  0.22970  1.0000 0.654495154
C   C9        1.0  0.57650  0.10790  0.24130  1.0000 -0.032320648
C   C10       1.0  0.07430  0.24130  0.10790  1.0000 -0.032320648
C   C11       1.0  0.24130  0.07430  0.57650  1.0000 -0.032320648
C   C12       1.0  0.10790  0.57650  0.07430  1.0000 -0.032320648
C   C13       1.0  0.67350  0.14210  0.00870  1.0000 -0.032320648
C   C14       1.0  0.17570  0.00870  0.14210  1.0000 -0.032320648
C   C15       1.0  0.00870  0.17570  0.67350  1.0000 -0.032320648
C   C16       1.0  0.14210  0.67350  0.17570  1.0000 -0.032320648
C   C17       1.0  0.48590  0.25550  0.29330  1.0000 -0.1011172114
C   C18       1.0  0.96530  0.29330  0.25550  1.0000 -0.1011172114
C   C19       1.0  0.29330  0.96530  0.48590  1.0000 -0.1011172114
C   C20       1.0  0.25550  0.48590  0.96530  1.0000 -0.1011172114
C   C21       1.0  0.76410  0.99450  0.95670  1.0000 -0.1011172114
C   C22       1.0  0.28470  0.95670  0.99450  1.0000 -0.1011172114
C   C23       1.0  0.95670  0.28470  0.76410  1.0000 -0.1011172114
C   C24       1.0  0.99450  0.76410  0.28470  1.0000 -0.1011172114
C   C25       1.0  0.53390  0.27310  0.17730  1.0000 -0.1011172114
C   C26       1.0  0.01570  0.17730  0.27310  1.0000 -0.1011172114
C   C27       1.0  0.17730  0.01570  0.53390  1.0000 -0.1011172114
C   C28       1.0  0.27310  0.53390  0.01570  1.0000 -0.1011172114
C   C29       1.0  0.71610  0.97690  0.07270  1.0000 -0.1011172114
C   C30       1.0  0.23430  0.07270  0.97690  1.0000 -0.1011172114
C   C31       1.0  0.07270  0.23430  0.71610  1.0000 -0.1011172114
C   C32       1.0  0.97690  0.71610  0.23430  1.0000 -0.1011172114
C   C33       1.0  0.61070  0.88930  0.61070  1.0000 0.654495154
C   C34       1.0  0.88930  0.61070  0.88930  1.0000 0.654495154
C   C35       1.0  0.63930  0.36070  0.63930  1.0000 0.654495154
C   C36       1.0  0.36070  0.63930  0.36070  1.0000 0.654495154
C   C37       1.0  0.68280  0.81720  0.68280  1.0000 -0.0371396339
C   C38       1.0  0.81720  0.68280  0.81720  1.0000 -0.0371396339
C   C39       1.0  0.56720  0.43280  0.56720  1.0000 -0.0371396339
C   C40       1.0  0.43280  0.56720  0.43280  1.0000 -0.0371396339
C   C41       1.0  0.58250  0.91750  0.85050  1.0000 -0.1011172114
C   C42       1.0  0.64950  0.85050  0.91750  1.0000 -0.1011172114
C   C43       1.0  0.85050  0.64950  0.58250  1.0000 -0.1011172114
C   C44       1.0  0.91750  0.58250  0.64950  1.0000 -0.1011172114
C   C45       1.0  0.66750  0.33250  0.39950  1.0000 -0.1011172114
C   C46       1.0  0.60050  0.39950  0.33250  1.0000 -0.1011172114
C   C47       1.0  0.39950  0.60050  0.66750  1.0000 -0.1011172114
C   C48       1.0  0.33250  0.66750  0.60050  1.0000 -0.1011172114
O   O1        1.0  0.39600  0.21240  0.52020  1.0000 -0.6193335432
O   O2        1.0  0.87140  0.52020  0.21240  1.0000 -0.6193335432
O   O3        1.0  0.52020  0.87140  0.39600  1.0000 -0.6193335432
O   O4        1.0  0.21240  0.39600  0.87140  1.0000 -0.6193335432
O   O5        1.0  0.85400  0.03760  0.72980  1.0000 -0.6193335432
O   O6        1.0  0.37860  0.72980  0.03760  1.0000 -0.6193335432
O   O7        1.0  0.72980  0.37860  0.85400  1.0000 -0.6193335432
O   O8        1.0  0.03760  0.85400  0.37860  1.0000 -0.6193335432
O   O9        1.0  0.61190  0.95210  0.30990  1.0000 -0.6489727351
O   O10       1.0  0.12610  0.30990  0.95210  1.0000 -0.6489727351
O   O11       1.0  0.30990  0.12610  0.61190  1.0000 -0.6489727351
O   O12       1.0  0.95210  0.61190  0.12610  1.0000 -0.6489727351
O   O13       1.0  0.63810  0.29790  0.94010  1.0000 -0.6489727351
O   O14       1.0  0.12390  0.94010  0.29790  1.0000 -0.6489727351
O   O15       1.0  0.94010  0.12390  0.63810  1.0000 -0.6489727351
O   O16       1.0  0.29790  0.63810  0.12390  1.0000 -0.6489727351
O   O17       1.0  0.47140  0.04800  0.69360  1.0000 -0.6489727351
O   O18       1.0  0.78700  0.69360  0.04800  1.0000 -0.6489727351
O   O19       1.0  0.69360  0.78700  0.47140  1.0000 -0.6489727351
O   O20       1.0  0.04800  0.47140  0.78700  1.0000 -0.6489727351
O   O21       1.0  0.77860  0.20200  0.55640  1.0000 -0.6489727351
O   O22       1.0  0.46300  0.55640  0.20200  1.0000 -0.6489727351
O   O23       1.0  0.55640  0.46300  0.77860  1.0000 -0.6489727351
O   O24       1.0  0.20200  0.77860  0.46300  1.0000 -0.6489727351
