# DDEC6 charges by PACMAN v1.1 (https://github.com/mtap-research/PACMAN-charge/)
data_2014[Eu][nan]3[ASR]9
_chemical_formula_sum              "Eu3 H18 C48 O24"
_cell_length_a       11.66
_cell_length_b       12.245
_cell_length_c       13.568
_cell_angle_alpha    115.12
_cell_angle_beta     111.75
_cell_angle_gamma    88.14

_symmetry_space_group_name_H-M    "P 1"
_symmetry_Int_Tables_number       1

loop_
  _symmetry_equiv_pos_as_xyz
  'x, y, z'

loop_
  _atom_site_type_symbol
  _atom_site_label
  _atom_site_symmetry_multiplicity
  _atom_site_fract_x
  _atom_site_fract_y
  _atom_site_fract_z
  _atom_site_occupancy
  _atom_site_charge
Eu  Eu1       1.0  0.00000  0.00000  0.00000  1.0000 2.0621226732
Eu  Eu2       1.0  0.92883  0.82940  0.17231  1.0000 2.0944624845
Eu  Eu3       1.0  0.07117  0.17060  0.82769  1.0000 2.0944624845
H   H1        1.0  0.57850  0.00410  0.85160  1.0000 0.1370319852
H   H2        1.0  0.42150  0.99590  0.14840  1.0000 0.1370319852
H   H3        1.0  0.25480  0.86800  0.82230  1.0000 0.1276080817
H   H4        1.0  0.74520  0.13200  0.17770  1.0000 0.1276080817
H   H5        1.0  0.56430  0.72120  0.92620  1.0000 0.1508732889
H   H6        1.0  0.43570  0.27880  0.07380  1.0000 0.1508732889
H   H7        1.0  0.01070  0.10230  0.41500  1.0000 0.1508732889
H   H8        1.0  0.98930  0.89770  0.58500  1.0000 0.1508732889
H   H9        1.0  0.00320  0.37600  0.32450  1.0000 0.1370319852
H   H10       1.0  0.99680  0.62400  0.67550  1.0000 0.1370319852
H   H11       1.0  0.00950  0.44570  0.64140  1.0000 0.1276080817
H   H12       1.0  0.99050  0.55430  0.35860  1.0000 0.1276080817
H   H13       1.0  0.13660  0.50760  0.95280  1.0000 0.1508732889
H   H14       1.0  0.86340  0.49240  0.04720  1.0000 0.1508732889
H   H15       1.0  0.22540  0.83000  0.96850  1.0000 0.1235926751
H   H16       1.0  0.77460  0.17000  0.03150  1.0000 0.1235926751
H   H17       1.0  0.39970  0.54590  0.83980  1.0000 0.1370319852
H   H18       1.0  0.60030  0.45410  0.16020  1.0000 0.1370319852
C   C1        1.0  0.00680  0.14400  0.23370  1.0000 0.6100177918
C   C2        1.0  0.99320  0.85600  0.76630  1.0000 0.6100177918
C   C3        1.0  0.00620  0.22640  0.35180  1.0000 -0.015836339
C   C4        1.0  0.99380  0.77360  0.64820  1.0000 -0.015836339
C   C5        1.0  0.28920  0.37700  0.86550  1.0000 0.5987162892
C   C6        1.0  0.71080  0.62300  0.13450  1.0000 0.5987162892
C   C7        1.0  0.73230  0.87360  0.93560  1.0000 0.6361514036
C   C8        1.0  0.26770  0.12640  0.06440  1.0000 0.6361514036
C   C9        1.0  0.59190  0.86130  0.89330  1.0000 -0.015836339
C   C10       1.0  0.40810  0.13870  0.10670  1.0000 -0.015836339
C   C11       1.0  0.53290  0.94830  0.85800  1.0000 -0.1014325317
C   C12       1.0  0.46710  0.05170  0.14200  1.0000 -0.1014325317
C   C13       1.0  0.40830  0.95050  0.83320  1.0000 -0.015836339
C   C14       1.0  0.59170  0.04950  0.16680  1.0000 -0.015836339
C   C15       1.0  0.34000  0.86690  0.84180  1.0000 -0.1303490117
C   C16       1.0  0.66000  0.13310  0.15820  1.0000 -0.1303490117
C   C17       1.0  0.39610  0.78070  0.87910  1.0000 0.0865243528
C   C18       1.0  0.60390  0.21930  0.12090  1.0000 0.0865243528
C   C19       1.0  0.52460  0.77880  0.90330  1.0000 -0.1184794377
C   C20       1.0  0.47540  0.22120  0.09670  1.0000 -0.1184794377
C   C21       1.0  0.02340  0.22930  0.63640  1.0000 0.5698843603
C   C22       1.0  0.97660  0.77070  0.36360  1.0000 0.5698843603
C   C23       1.0  0.07890  0.73140  0.02920  1.0000 0.6276069586
C   C24       1.0  0.92110  0.26860  0.97080  1.0000 0.6276069586
C   C25       1.0  0.34670  0.05190  0.80870  1.0000 0.6100177918
C   C26       1.0  0.65330  0.94810  0.19130  1.0000 0.6100177918
C   C27       1.0  0.00980  0.18440  0.43300  1.0000 -0.0824211012
C   C28       1.0  0.99020  0.81560  0.56700  1.0000 -0.0824211012
C   C29       1.0  0.00390  0.34980  0.37980  1.0000 -0.1377339359
C   C30       1.0  0.99610  0.65020  0.62020  1.0000 -0.1377339359
C   C31       1.0  0.00270  0.43480  0.48650  1.0000 0.0736534264
C   C32       1.0  0.99730  0.56520  0.51350  1.0000 0.0736534264
C   C33       1.0  0.00830  0.39120  0.56790  1.0000 -0.1303490117
C   C34       1.0  0.99170  0.60880  0.43210  1.0000 -0.1303490117
C   C35       1.0  0.01200  0.26920  0.54240  1.0000 0.0245334734
C   C36       1.0  0.98800  0.73080  0.45760  1.0000 0.0245334734
C   C37       1.0  0.18380  0.55620  0.94010  1.0000 -0.0824211012
C   C38       1.0  0.81620  0.44380  0.05990  1.0000 -0.0824211012
C   C39       1.0  0.16690  0.67690  0.96980  1.0000 -0.0029963809
C   C40       1.0  0.83310  0.32310  0.03020  1.0000 -0.0029963809
C   C41       1.0  0.23650  0.74890  0.94880  1.0000 -0.1303490117
C   C42       1.0  0.76350  0.25110  0.05120  1.0000 -0.1303490117
C   C43       1.0  0.32300  0.70040  0.89840  1.0000 0.0865243528
C   C44       1.0  0.67700  0.29960  0.10160  1.0000 0.0865243528
C   C45       1.0  0.34100  0.57850  0.87120  1.0000 -0.1303490117
C   C46       1.0  0.65900  0.42150  0.12880  1.0000 -0.1303490117
C   C47       1.0  0.27060  0.50680  0.89160  1.0000 -0.0029963809
C   C48       1.0  0.72940  0.49320  0.10840  1.0000 -0.0029963809
O   O1        1.0  0.79000  0.80640  0.97990  1.0000 -0.6379773315
O   O2        1.0  0.21000  0.19360  0.02010  1.0000 -0.6379773315
O   O3        1.0  0.97190  0.02990  0.18630  1.0000 -0.730766892
O   O4        1.0  0.02810  0.97010  0.81370  1.0000 -0.730766892
O   O5        1.0  0.06570  0.84270  0.05590  1.0000 -0.730766892
O   O6        1.0  0.93430  0.15730  0.94410  1.0000 -0.730766892
O   O7        1.0  0.05930  0.12870  0.62860  1.0000 -0.5932723578
O   O8        1.0  0.94070  0.87130  0.37140  1.0000 -0.5932723578
O   O9        1.0  0.23400  0.05550  0.79170  1.0000 -0.6294772472
O   O10       1.0  0.76600  0.94450  0.20830  1.0000 -0.6294772472
O   O11       1.0  0.99870  0.30040  0.72340  1.0000 -0.6143753227
O   O12       1.0  0.00130  0.69960  0.27660  1.0000 -0.6143753227
O   O13       1.0  0.02330  0.66870  0.05490  1.0000 -0.561491638
O   O14       1.0  0.97670  0.33130  0.94510  1.0000 -0.561491638
O   O15       1.0  0.23720  0.32360  0.90240  1.0000 -0.6294772472
O   O16       1.0  0.76280  0.67640  0.09760  1.0000 -0.6294772472
O   O17       1.0  0.04100  0.18890  0.18040  1.0000 -0.561491638
O   O18       1.0  0.95900  0.81110  0.81960  1.0000 -0.561491638
O   O19       1.0  0.78520  0.95350  0.92490  1.0000 -0.6379773315
O   O20       1.0  0.21480  0.04650  0.07510  1.0000 -0.6379773315
O   O21       1.0  0.35660  0.32770  0.80860  1.0000 -0.4274840649
O   O22       1.0  0.64340  0.67230  0.19140  1.0000 -0.4274840649
O   O23       1.0  0.41870  0.13040  0.80890  1.0000 -0.4397347863
O   O24       1.0  0.58130  0.86960  0.19110  1.0000 -0.4397347863
