# DDEC6 charges by PACMAN v1.1 (https://github.com/mtap-research/PACMAN-charge/)
data_2014[U][nan]3[ASR]2
_chemical_formula_sum              "U16 P24 H72 C24 N8 O112 F8"
_cell_length_a       25.83
_cell_length_b       8.756
_cell_length_c       17.7432
_cell_angle_alpha    90
_cell_angle_beta     99.951
_cell_angle_gamma    90

_symmetry_space_group_name_H-M    "P 1"
_symmetry_Int_Tables_number       1

loop_
  _symmetry_equiv_pos_as_xyz
  'x, y, z'

loop_
  _atom_site_type_symbol
  _atom_site_label
  _atom_site_symmetry_multiplicity
  _atom_site_fract_x
  _atom_site_fract_y
  _atom_site_fract_z
  _atom_site_occupancy
  _atom_site_charge
U   U1        1.0  0.44003  0.60127  0.37416  1.0000 2.6662870569
U   U2        1.0  0.55997  0.39873  0.62584  1.0000 2.6662870569
U   U3        1.0  0.55997  0.60127  0.12584  1.0000 2.6662870569
U   U4        1.0  0.44003  0.39873  0.87416  1.0000 2.6662870569
U   U5        1.0  0.94003  0.10127  0.37416  1.0000 2.6662870569
U   U6        1.0  0.05997  0.89873  0.62584  1.0000 2.6662870569
U   U7        1.0  0.05997  0.10127  0.12584  1.0000 2.6662870569
U   U8        1.0  0.94003  0.89873  0.87416  1.0000 2.6662870569
U   U9        1.0  0.25290  0.34680  0.39809  1.0000 2.631021939
U   U10       1.0  0.74710  0.65320  0.60191  1.0000 2.631021939
U   U11       1.0  0.74710  0.34680  0.10191  1.0000 2.631021939
U   U12       1.0  0.25290  0.65320  0.89809  1.0000 2.631021939
U   U13       1.0  0.75290  0.84680  0.39809  1.0000 2.631021939
U   U14       1.0  0.24710  0.15320  0.60191  1.0000 2.631021939
U   U15       1.0  0.24710  0.84680  0.10191  1.0000 2.631021939
U   U16       1.0  0.75290  0.15320  0.89809  1.0000 2.631021939
P   P1        1.0  0.43701  0.45749  0.16941  1.0000 1.4000622553
P   P2        1.0  0.56299  0.54251  0.83059  1.0000 1.4000622553
P   P3        1.0  0.56299  0.45749  0.33059  1.0000 1.4000622553
P   P4        1.0  0.43701  0.54251  0.66941  1.0000 1.4000622553
P   P5        1.0  0.93701  0.95749  0.16941  1.0000 1.4000622553
P   P6        1.0  0.06299  0.04251  0.83059  1.0000 1.4000622553
P   P7        1.0  0.06299  0.95749  0.33059  1.0000 1.4000622553
P   P8        1.0  0.93701  0.04251  0.66941  1.0000 1.4000622553
P   P9        1.0  0.30089  0.53736  0.24441  1.0000 1.4323981626
P   P10       1.0  0.69911  0.46264  0.75559  1.0000 1.4323981626
P   P11       1.0  0.69911  0.53736  0.25559  1.0000 1.4323981626
P   P12       1.0  0.30089  0.46264  0.74441  1.0000 1.4323981626
P   P13       1.0  0.80089  0.03736  0.24441  1.0000 1.4323981626
P   P14       1.0  0.19911  0.96264  0.75559  1.0000 1.4323981626
P   P15       1.0  0.19911  0.03736  0.25559  1.0000 1.4323981626
P   P16       1.0  0.80089  0.96264  0.74441  1.0000 1.4323981626
P   P17       1.0  0.32418  0.28844  0.96337  1.0000 1.4000622553
P   P18       1.0  0.67582  0.71156  0.03663  1.0000 1.4000622553
P   P19       1.0  0.67582  0.28844  0.53663  1.0000 1.4000622553
P   P20       1.0  0.32418  0.71156  0.46337  1.0000 1.4000622553
P   P21       1.0  0.82418  0.78844  0.96337  1.0000 1.4000622553
P   P22       1.0  0.17582  0.21156  0.03663  1.0000 1.4000622553
P   P23       1.0  0.17582  0.78844  0.53663  1.0000 1.4000622553
P   P24       1.0  0.82418  0.21156  0.46337  1.0000 1.4000622553
H   H1        1.0  0.36389  0.62785  0.13307  1.0000 0.1832622669
H   H2        1.0  0.63611  0.37215  0.86693  1.0000 0.1832622669
H   H3        1.0  0.63611  0.62785  0.36693  1.0000 0.1832622669
H   H4        1.0  0.36389  0.37215  0.63307  1.0000 0.1832622669
H   H5        1.0  0.86389  0.12785  0.13307  1.0000 0.1832622669
H   H6        1.0  0.13611  0.87215  0.86693  1.0000 0.1832622669
H   H7        1.0  0.13611  0.12785  0.36693  1.0000 0.1832622669
H   H8        1.0  0.86389  0.87215  0.63307  1.0000 0.1832622669
H   H9        1.0  0.38083  0.53187  0.05189  1.0000 0.1895465383
H   H10       1.0  0.61917  0.46813  0.94811  1.0000 0.1895465383
H   H11       1.0  0.61917  0.53187  0.44811  1.0000 0.1895465383
H   H12       1.0  0.38083  0.46813  0.55189  1.0000 0.1895465383
H   H13       1.0  0.88083  0.03187  0.05189  1.0000 0.1895465383
H   H14       1.0  0.11917  0.96813  0.94811  1.0000 0.1895465383
H   H15       1.0  0.11917  0.03187  0.44811  1.0000 0.1895465383
H   H16       1.0  0.88083  0.96813  0.55189  1.0000 0.1895465383
H   H17       1.0  0.34994  0.31078  0.22053  1.0000 0.1700193442
H   H18       1.0  0.65006  0.68922  0.77947  1.0000 0.1700193442
H   H19       1.0  0.65006  0.31078  0.27947  1.0000 0.1700193442
H   H20       1.0  0.34994  0.68922  0.72053  1.0000 0.1700193442
H   H21       1.0  0.84994  0.81078  0.22053  1.0000 0.1700193442
H   H22       1.0  0.15006  0.18922  0.77947  1.0000 0.1700193442
H   H23       1.0  0.15006  0.81078  0.27947  1.0000 0.1700193442
H   H24       1.0  0.84994  0.18922  0.72053  1.0000 0.1700193442
H   H25       1.0  0.28132  0.29712  0.17945  1.0000 0.1895465383
H   H26       1.0  0.71868  0.70288  0.82055  1.0000 0.1895465383
H   H27       1.0  0.71868  0.29712  0.32055  1.0000 0.1895465383
H   H28       1.0  0.28132  0.70288  0.67945  1.0000 0.1895465383
H   H29       1.0  0.78132  0.79712  0.17945  1.0000 0.1895465383
H   H30       1.0  0.21868  0.20288  0.82055  1.0000 0.1895465383
H   H31       1.0  0.21868  0.79712  0.32055  1.0000 0.1895465383
H   H32       1.0  0.78132  0.20288  0.67945  1.0000 0.1895465383
H   H33       1.0  0.29645  0.19429  0.07619  1.0000 0.1832622669
H   H34       1.0  0.70355  0.80571  0.92381  1.0000 0.1832622669
H   H35       1.0  0.70355  0.19429  0.42381  1.0000 0.1832622669
H   H36       1.0  0.29645  0.80571  0.57619  1.0000 0.1832622669
H   H37       1.0  0.79645  0.69429  0.07619  1.0000 0.1832622669
H   H38       1.0  0.20355  0.30571  0.92381  1.0000 0.1832622669
H   H39       1.0  0.20355  0.69429  0.42381  1.0000 0.1832622669
H   H40       1.0  0.79645  0.30571  0.57619  1.0000 0.1832622669
H   H41       1.0  0.36690  0.20467  0.08837  1.0000 0.1700193442
H   H42       1.0  0.63310  0.79533  0.91163  1.0000 0.1700193442
H   H43       1.0  0.63310  0.20467  0.41163  1.0000 0.1700193442
H   H44       1.0  0.36690  0.79533  0.58837  1.0000 0.1700193442
H   H45       1.0  0.86690  0.70467  0.08837  1.0000 0.1700193442
H   H46       1.0  0.13310  0.29533  0.91163  1.0000 0.1700193442
H   H47       1.0  0.13310  0.70467  0.41163  1.0000 0.1700193442
H   H48       1.0  0.86690  0.29533  0.58837  1.0000 0.1700193442
H   H49       1.0  0.29562  0.47862  0.08074  1.0000 0.2872852308
H   H50       1.0  0.70438  0.52138  0.91926  1.0000 0.2872852308
H   H51       1.0  0.70438  0.47862  0.41926  1.0000 0.2872852308
H   H52       1.0  0.29562  0.52138  0.58074  1.0000 0.2872852308
H   H53       1.0  0.79562  0.97862  0.08074  1.0000 0.2872852308
H   H54       1.0  0.20438  0.02138  0.91926  1.0000 0.2872852308
H   H55       1.0  0.20438  0.97862  0.41926  1.0000 0.2872852308
H   H56       1.0  0.79562  0.02138  0.58074  1.0000 0.2872852308
H   H57       1.0  0.44758  0.20961  0.17286  1.0000 0.427909564
H   H58       1.0  0.55242  0.79039  0.82714  1.0000 0.427909564
H   H59       1.0  0.55242  0.20961  0.32714  1.0000 0.427909564
H   H60       1.0  0.44758  0.79039  0.67286  1.0000 0.427909564
H   H61       1.0  0.94758  0.70961  0.17286  1.0000 0.427909564
H   H62       1.0  0.05242  0.29039  0.82714  1.0000 0.427909564
H   H63       1.0  0.05242  0.70961  0.32714  1.0000 0.427909564
H   H64       1.0  0.94758  0.29039  0.67286  1.0000 0.427909564
H   H65       1.0  0.33209  0.04669  0.93078  1.0000 0.4391470177
H   H66       1.0  0.66791  0.95331  0.06922  1.0000 0.4391470177
H   H67       1.0  0.66791  0.04669  0.56922  1.0000 0.4391470177
H   H68       1.0  0.33209  0.95331  0.43078  1.0000 0.4391470177
H   H69       1.0  0.83209  0.54669  0.93078  1.0000 0.4391470177
H   H70       1.0  0.16791  0.45331  0.06922  1.0000 0.4391470177
H   H71       1.0  0.16791  0.54669  0.56922  1.0000 0.4391470177
H   H72       1.0  0.83209  0.45331  0.43078  1.0000 0.4391470177
C   C1        1.0  0.37455  0.51561  0.11153  1.0000 -0.3711897212
C   C2        1.0  0.62545  0.48439  0.88847  1.0000 -0.3711897212
C   C3        1.0  0.62545  0.51561  0.38847  1.0000 -0.3711897212
C   C4        1.0  0.37455  0.48439  0.61153  1.0000 -0.3711897212
C   C5        1.0  0.87455  0.01561  0.11153  1.0000 -0.3711897212
C   C6        1.0  0.12545  0.98439  0.88847  1.0000 -0.3711897212
C   C7        1.0  0.12545  0.01561  0.38847  1.0000 -0.3711897212
C   C8        1.0  0.87455  0.98439  0.61153  1.0000 -0.3711897212
C   C9        1.0  0.31593  0.37292  0.18821  1.0000 -0.3587683814
C   C10       1.0  0.68407  0.62708  0.81179  1.0000 -0.3587683814
C   C11       1.0  0.68407  0.37292  0.31179  1.0000 -0.3587683814
C   C12       1.0  0.31593  0.62708  0.68821  1.0000 -0.3587683814
C   C13       1.0  0.81593  0.87292  0.18821  1.0000 -0.3587683814
C   C14       1.0  0.18407  0.12708  0.81179  1.0000 -0.3587683814
C   C15       1.0  0.18407  0.87292  0.31179  1.0000 -0.3587683814
C   C16       1.0  0.81593  0.12708  0.68821  1.0000 -0.3587683814
C   C17       1.0  0.32989  0.26464  0.06603  1.0000 -0.3821067551
C   C18       1.0  0.67011  0.73536  0.93397  1.0000 -0.3821067551
C   C19       1.0  0.67011  0.26464  0.43397  1.0000 -0.3821067551
C   C20       1.0  0.32989  0.73536  0.56603  1.0000 -0.3821067551
C   C21       1.0  0.82989  0.76464  0.06603  1.0000 -0.3821067551
C   C22       1.0  0.17011  0.23536  0.93397  1.0000 -0.3821067551
C   C23       1.0  0.17011  0.76464  0.43397  1.0000 -0.3821067551
C   C24       1.0  0.82989  0.23536  0.56603  1.0000 -0.3821067551
N   N1        1.0  0.32750  0.41148  0.10991  1.0000 0.1365032268
N   N2        1.0  0.67250  0.58852  0.89009  1.0000 0.1365032268
N   N3        1.0  0.67250  0.41148  0.39009  1.0000 0.1365032268
N   N4        1.0  0.32750  0.58852  0.60991  1.0000 0.1365032268
N   N5        1.0  0.82750  0.91148  0.10991  1.0000 0.1365032268
N   N6        1.0  0.17250  0.08852  0.89009  1.0000 0.1365032268
N   N7        1.0  0.17250  0.91148  0.39009  1.0000 0.1365032268
N   N8        1.0  0.82750  0.08852  0.60991  1.0000 0.1365032268
O   O1        1.0  0.43501  0.44507  0.25354  1.0000 -0.7923215779
O   O2        1.0  0.56499  0.55493  0.74646  1.0000 -0.7923215779
O   O3        1.0  0.56499  0.44507  0.24646  1.0000 -0.7923215779
O   O4        1.0  0.43501  0.55493  0.75354  1.0000 -0.7923215779
O   O5        1.0  0.93501  0.94507  0.25354  1.0000 -0.7923215779
O   O6        1.0  0.06499  0.05493  0.74646  1.0000 -0.7923215779
O   O7        1.0  0.06499  0.94507  0.24646  1.0000 -0.7923215779
O   O8        1.0  0.93501  0.05493  0.75354  1.0000 -0.7923215779
O   O9        1.0  0.47458  0.57122  0.14469  1.0000 -0.7762874442
O   O10       1.0  0.52542  0.42878  0.85531  1.0000 -0.7762874442
O   O11       1.0  0.52542  0.57122  0.35531  1.0000 -0.7762874442
O   O12       1.0  0.47458  0.42878  0.64469  1.0000 -0.7762874442
O   O13       1.0  0.97458  0.07122  0.14469  1.0000 -0.7762874442
O   O14       1.0  0.02542  0.92878  0.85531  1.0000 -0.7762874442
O   O15       1.0  0.02542  0.07122  0.35531  1.0000 -0.7762874442
O   O16       1.0  0.97458  0.92878  0.64469  1.0000 -0.7762874442
O   O17       1.0  0.44787  0.29197  0.13620  1.0000 -0.5861893373
O   O18       1.0  0.55213  0.70803  0.86380  1.0000 -0.5861893373
O   O19       1.0  0.55213  0.29197  0.36380  1.0000 -0.5849613624
O   O20       1.0  0.44787  0.70803  0.63620  1.0000 -0.5861893373
O   O21       1.0  0.94787  0.79197  0.13620  1.0000 -0.5861893373
O   O22       1.0  0.05213  0.20803  0.86380  1.0000 -0.5861893373
O   O23       1.0  0.05213  0.79197  0.36380  1.0000 -0.5861893373
O   O24       1.0  0.94787  0.20803  0.63620  1.0000 -0.5861893373
O   O25       1.0  0.35001  0.59783  0.29437  1.0000 -0.7923215779
O   O26       1.0  0.64999  0.40217  0.70563  1.0000 -0.7923215779
O   O27       1.0  0.64999  0.59783  0.20563  1.0000 -0.7923215779
O   O28       1.0  0.35001  0.40217  0.79437  1.0000 -0.7923215779
O   O29       1.0  0.85001  0.09783  0.29437  1.0000 -0.7923215779
O   O30       1.0  0.14999  0.90217  0.70563  1.0000 -0.7923215779
O   O31       1.0  0.14999  0.09783  0.20563  1.0000 -0.7923215779
O   O32       1.0  0.85001  0.90217  0.79437  1.0000 -0.7923215779
O   O33       1.0  0.25984  0.47248  0.28904  1.0000 -0.8034569698
O   O34       1.0  0.74016  0.52752  0.71096  1.0000 -0.8034569698
O   O35       1.0  0.74016  0.47248  0.21096  1.0000 -0.8034569698
O   O36       1.0  0.25984  0.52752  0.78904  1.0000 -0.8034569698
O   O37       1.0  0.75984  0.97248  0.28904  1.0000 -0.8034569698
O   O38       1.0  0.24016  0.02752  0.71096  1.0000 -0.8034569698
O   O39       1.0  0.24016  0.97248  0.21096  1.0000 -0.8034569698
O   O40       1.0  0.75984  0.02752  0.78904  1.0000 -0.8034569698
O   O41       1.0  0.27530  0.65642  0.18611  1.0000 -0.8107636275
O   O42       1.0  0.72470  0.34358  0.81389  1.0000 -0.8107636275
O   O43       1.0  0.72470  0.65642  0.31389  1.0000 -0.8107636275
O   O44       1.0  0.27530  0.34358  0.68611  1.0000 -0.8107636275
O   O45       1.0  0.77530  0.15642  0.18611  1.0000 -0.8107636275
O   O46       1.0  0.22470  0.84358  0.81389  1.0000 -0.8107636275
O   O47       1.0  0.22470  0.15642  0.31389  1.0000 -0.8107636275
O   O48       1.0  0.77530  0.84358  0.68611  1.0000 -0.8107636275
O   O49       1.0  0.27932  0.39753  0.93703  1.0000 -0.8034569698
O   O50       1.0  0.72068  0.60247  0.06297  1.0000 -0.8034569698
O   O51       1.0  0.72068  0.39753  0.56297  1.0000 -0.8034569698
O   O52       1.0  0.27932  0.60247  0.43703  1.0000 -0.8034569698
O   O53       1.0  0.77932  0.89753  0.93703  1.0000 -0.8034569698
O   O54       1.0  0.22068  0.10247  0.06297  1.0000 -0.8034569698
O   O55       1.0  0.22068  0.89753  0.56297  1.0000 -0.8034569698
O   O56       1.0  0.77932  0.10247  0.43703  1.0000 -0.8034569698
O   O57       1.0  0.30508  0.12545  0.92901  1.0000 -0.6114923062
O   O58       1.0  0.69492  0.87455  0.07099  1.0000 -0.6114923062
O   O59       1.0  0.69492  0.12545  0.57099  1.0000 -0.6114923062
O   O60       1.0  0.30508  0.87455  0.42901  1.0000 -0.6114923062
O   O61       1.0  0.80508  0.62545  0.92901  1.0000 -0.6114923062
O   O62       1.0  0.19492  0.37455  0.07099  1.0000 -0.6114923062
O   O63       1.0  0.19492  0.62545  0.57099  1.0000 -0.6114923062
O   O64       1.0  0.80508  0.37455  0.42901  1.0000 -0.6114923062
O   O65       1.0  0.37790  0.32766  0.94725  1.0000 -0.8107636275
O   O66       1.0  0.62210  0.67234  0.05275  1.0000 -0.8107636275
O   O67       1.0  0.62210  0.32766  0.55275  1.0000 -0.8107636275
O   O68       1.0  0.37790  0.67234  0.44725  1.0000 -0.8107636275
O   O69       1.0  0.87790  0.82766  0.94725  1.0000 -0.8107636275
O   O70       1.0  0.12210  0.17234  0.05275  1.0000 -0.8107636275
O   O71       1.0  0.12210  0.82766  0.55275  1.0000 -0.8107636275
O   O72       1.0  0.87790  0.17234  0.44725  1.0000 -0.8107636275
O   O73       1.0  0.43891  0.78103  0.32157  1.0000 -0.6685770529
O   O74       1.0  0.56109  0.21897  0.67843  1.0000 -0.6685770529
O   O75       1.0  0.56109  0.78103  0.17843  1.0000 -0.6685770529
O   O76       1.0  0.43891  0.21897  0.82157  1.0000 -0.6685770529
O   O77       1.0  0.93891  0.28103  0.32157  1.0000 -0.6685770529
O   O78       1.0  0.06109  0.71897  0.67843  1.0000 -0.6685770529
O   O79       1.0  0.06109  0.28103  0.17843  1.0000 -0.6685770529
O   O80       1.0  0.93891  0.71897  0.82157  1.0000 -0.6685770529
O   O81       1.0  0.43408  0.40496  0.40660  1.0000 -0.6456525164
O   O82       1.0  0.56592  0.59504  0.59340  1.0000 -0.6456525164
O   O83       1.0  0.56592  0.40496  0.09340  1.0000 -0.6449347811
O   O84       1.0  0.43408  0.59504  0.90660  1.0000 -0.6449347811
O   O85       1.0  0.93408  0.90496  0.40660  1.0000 -0.6456525164
O   O86       1.0  0.06592  0.09504  0.59340  1.0000 -0.6456525164
O   O87       1.0  0.06592  0.90496  0.09340  1.0000 -0.6456525164
O   O88       1.0  0.93408  0.09504  0.90660  1.0000 -0.6449347811
O   O89       1.0  0.31975  0.28015  0.40694  1.0000 -0.7007436978
O   O90       1.0  0.68025  0.71985  0.59306  1.0000 -0.7007436978
O   O91       1.0  0.68025  0.28015  0.09306  1.0000 -0.7007436978
O   O92       1.0  0.31975  0.71985  0.90694  1.0000 -0.7007436978
O   O93       1.0  0.81975  0.78015  0.40694  1.0000 -0.7007436978
O   O94       1.0  0.18025  0.21985  0.59306  1.0000 -0.7007436978
O   O95       1.0  0.18025  0.78015  0.09306  1.0000 -0.7007436978
O   O96       1.0  0.81975  0.21985  0.90694  1.0000 -0.7007436978
O   O97       1.0  0.18582  0.41147  0.39492  1.0000 -0.7007436978
O   O98       1.0  0.81418  0.58853  0.60508  1.0000 -0.7007436978
O   O99       1.0  0.81418  0.41147  0.10508  1.0000 -0.7007436978
O   O100      1.0  0.18582  0.58853  0.89492  1.0000 -0.7007436978
O   O101      1.0  0.68582  0.91147  0.39492  1.0000 -0.7007436978
O   O102      1.0  0.31418  0.08853  0.60508  1.0000 -0.7007436978
O   O103      1.0  0.31418  0.91147  0.10508  1.0000 -0.7007436978
O   O104      1.0  0.68582  0.08853  0.89492  1.0000 -0.7007436978
O   O105      1.0  0.48074  0.69579  0.46143  1.0000 -0.6685770529
O   O106      1.0  0.51926  0.30421  0.53857  1.0000 -0.6685770529
O   O107      1.0  0.51926  0.69579  0.03857  1.0000 -0.6685770529
O   O108      1.0  0.48074  0.30421  0.96143  1.0000 -0.6685770529
O   O109      1.0  0.98074  0.19579  0.46143  1.0000 -0.6685770529
O   O110      1.0  0.01926  0.80421  0.53857  1.0000 -0.6685770529
O   O111      1.0  0.01926  0.19579  0.03857  1.0000 -0.6685770529
O   O112      1.0  0.98074  0.80421  0.96143  1.0000 -0.6685770529
F   F1        1.0  0.23194  0.12878  0.46631  1.0000 -0.6233433413
F   F2        1.0  0.76806  0.87122  0.53369  1.0000 -0.6233433413
F   F3        1.0  0.76806  0.12878  0.03369  1.0000 -0.6233433413
F   F4        1.0  0.23194  0.87122  0.96631  1.0000 -0.6233433413
F   F5        1.0  0.73194  0.62878  0.46631  1.0000 -0.6233433413
F   F6        1.0  0.26806  0.37122  0.53369  1.0000 -0.6233433413
F   F7        1.0  0.26806  0.62878  0.03369  1.0000 -0.6233433413
F   F8        1.0  0.73194  0.37122  0.96631  1.0000 -0.6233433413
