# DDEC6 charges by PACMAN v1.1 (https://github.com/mtap-research/PACMAN-charge/)
data_2014[Al][nan]3[ASR]3
_chemical_formula_sum              "Al6 P18 H108 C72 O54"
_cell_length_a       20.7868
_cell_length_b       20.7868
_cell_length_c       20.7868
_cell_angle_alpha    116.149
_cell_angle_beta     116.149
_cell_angle_gamma    116.149

_symmetry_space_group_name_H-M    "P 1"
_symmetry_Int_Tables_number       1

loop_
  _symmetry_equiv_pos_as_xyz
  'x, y, z'

loop_
  _atom_site_type_symbol
  _atom_site_label
  _atom_site_symmetry_multiplicity
  _atom_site_fract_x
  _atom_site_fract_y
  _atom_site_fract_z
  _atom_site_occupancy
  _atom_site_charge
Al  Al1       1.0  0.94016  0.27765  0.54590  1.0000 1.8220889279
Al  Al2       1.0  0.27765  0.54590  0.94016  1.0000 1.8220889279
Al  Al3       1.0  0.54590  0.94016  0.27765  1.0000 1.8220889279
Al  Al4       1.0  0.05984  0.72235  0.45410  1.0000 1.8220889279
Al  Al5       1.0  0.72235  0.45410  0.05984  1.0000 1.8220889279
Al  Al6       1.0  0.45410  0.05984  0.72235  1.0000 1.8220889279
P   P1        1.0  0.13690  0.55364  0.80004  1.0000 1.3811303087
P   P2        1.0  0.55364  0.80004  0.13690  1.0000 1.3811303087
P   P3        1.0  0.80004  0.13690  0.55364  1.0000 1.3811303087
P   P4        1.0  0.86310  0.44636  0.19996  1.0000 1.3811303087
P   P5        1.0  0.44636  0.19996  0.86310  1.0000 1.3811303087
P   P6        1.0  0.19996  0.86310  0.44636  1.0000 1.3811303087
P   P7        1.0  0.99808  0.60549  0.51594  1.0000 1.3240028926
P   P8        1.0  0.60549  0.51594  0.99808  1.0000 1.3240028926
P   P9        1.0  0.51594  0.99808  0.60549  1.0000 1.3240028926
P   P10       1.0  0.00192  0.39451  0.48406  1.0000 1.3240028926
P   P11       1.0  0.39451  0.48406  0.00192  1.0000 1.3240028926
P   P12       1.0  0.48406  0.00192  0.39451  1.0000 1.3240028926
P   P13       1.0  0.69786  0.17225  0.36641  1.0000 1.3988203315
P   P14       1.0  0.17225  0.36641  0.69786  1.0000 1.3988203315
P   P15       1.0  0.36641  0.69786  0.17225  1.0000 1.3988203315
P   P16       1.0  0.30214  0.82775  0.63359  1.0000 1.3988203315
P   P17       1.0  0.82775  0.63359  0.30214  1.0000 1.3988203315
P   P18       1.0  0.63359  0.30214  0.82775  1.0000 1.3988203315
H   H1        1.0  0.16320  0.58540  0.73160  1.0000 0.3791220445
H   H2        1.0  0.58540  0.73160  0.16320  1.0000 0.3791220445
H   H3        1.0  0.73160  0.16320  0.58540  1.0000 0.3791220445
H   H4        1.0  0.83680  0.41460  0.26840  1.0000 0.3791220445
H   H5        1.0  0.41460  0.26840  0.83680  1.0000 0.3791220445
H   H6        1.0  0.26840  0.83680  0.41460  1.0000 0.3791220445
H   H7        1.0  0.09420  0.60360  0.59490  1.0000 0.3690634279
H   H8        1.0  0.60360  0.59490  0.09420  1.0000 0.3690634279
H   H9        1.0  0.59490  0.09420  0.60360  1.0000 0.3690634279
H   H10       1.0  0.90580  0.39640  0.40510  1.0000 0.3690634279
H   H11       1.0  0.39640  0.40510  0.90580  1.0000 0.3690634279
H   H12       1.0  0.40510  0.90580  0.39640  1.0000 0.3690634279
H   H13       1.0  0.75540  0.22490  0.32510  1.0000 0.3791220445
H   H14       1.0  0.22490  0.32510  0.75540  1.0000 0.3791220445
H   H15       1.0  0.32510  0.75540  0.22490  1.0000 0.3791220445
H   H16       1.0  0.24460  0.77510  0.67490  1.0000 0.3791220445
H   H17       1.0  0.77510  0.67490  0.24460  1.0000 0.3791220445
H   H18       1.0  0.67490  0.24460  0.77510  1.0000 0.3791220445
H   H19       1.0  0.14950  0.68380  0.88960  1.0000 0.1567847797
H   H20       1.0  0.68380  0.88960  0.14950  1.0000 0.1567847797
H   H21       1.0  0.88960  0.14950  0.68380  1.0000 0.1567847797
H   H22       1.0  0.85050  0.31620  0.11040  1.0000 0.1567847797
H   H23       1.0  0.31620  0.11040  0.85050  1.0000 0.1567847797
H   H24       1.0  0.11040  0.85050  0.31620  1.0000 0.1567847797
H   H25       1.0  0.05530  0.57190  0.84190  1.0000 0.1567847797
H   H26       1.0  0.57190  0.84190  0.05530  1.0000 0.1567847797
H   H27       1.0  0.84190  0.05530  0.57190  1.0000 0.1567847797
H   H28       1.0  0.94470  0.42810  0.15810  1.0000 0.1567847797
H   H29       1.0  0.42810  0.15810  0.94470  1.0000 0.1567847797
H   H30       1.0  0.15810  0.94470  0.42810  1.0000 0.1567847797
H   H31       1.0  0.18450  0.76290  0.86640  1.0000 0.1303169383
H   H32       1.0  0.76290  0.86640  0.18450  1.0000 0.1303169383
H   H33       1.0  0.86640  0.18450  0.76290  1.0000 0.1303169383
H   H34       1.0  0.81550  0.23710  0.13360  1.0000 0.1303169383
H   H35       1.0  0.23710  0.13360  0.81550  1.0000 0.1303169383
H   H36       1.0  0.13360  0.81550  0.23710  1.0000 0.1303169383
H   H37       1.0  0.16740  0.74780  0.77740  1.0000 0.1303169383
H   H38       1.0  0.74780  0.77740  0.16740  1.0000 0.1303169383
H   H39       1.0  0.77740  0.16740  0.74780  1.0000 0.1303169383
H   H40       1.0  0.83260  0.25220  0.22260  1.0000 0.1303169383
H   H41       1.0  0.25220  0.22260  0.83260  1.0000 0.1303169383
H   H42       1.0  0.22260  0.83260  0.25220  1.0000 0.1303169383
H   H43       1.0  0.13020  0.78640  0.81740  1.0000 0.1303169383
H   H44       1.0  0.78640  0.81740  0.13020  1.0000 0.1303169383
H   H45       1.0  0.81740  0.13020  0.78640  1.0000 0.1303169383
H   H46       1.0  0.86980  0.21360  0.18260  1.0000 0.1303169383
H   H47       1.0  0.21360  0.18260  0.86980  1.0000 0.1303169383
H   H48       1.0  0.18260  0.86980  0.21360  1.0000 0.1303169383
H   H49       1.0  0.88270  0.59330  0.51610  1.0000 0.1567847797
H   H50       1.0  0.59330  0.51610  0.88270  1.0000 0.1567847797
H   H51       1.0  0.51610  0.88270  0.59330  1.0000 0.1567847797
H   H52       1.0  0.11730  0.40670  0.48390  1.0000 0.1567847797
H   H53       1.0  0.40670  0.48390  0.11730  1.0000 0.1567847797
H   H54       1.0  0.48390  0.11730  0.40670  1.0000 0.1567847797
H   H55       1.0  0.01240  0.70340  0.64380  1.0000 0.1479962675
H   H56       1.0  0.70340  0.64380  0.01240  1.0000 0.1567847797
H   H57       1.0  0.64380  0.01240  0.70340  1.0000 0.1567847797
H   H58       1.0  0.98760  0.29660  0.35620  1.0000 0.1567847797
H   H59       1.0  0.29660  0.35620  0.98760  1.0000 0.1567847797
H   H60       1.0  0.35620  0.98760  0.29660  1.0000 0.1567847797
H   H61       1.0  0.74670  0.42850  0.38160  1.0000 0.1303169383
H   H62       1.0  0.42850  0.38160  0.74670  1.0000 0.1303169383
H   H63       1.0  0.38160  0.74670  0.42850  1.0000 0.1303169383
H   H64       1.0  0.25330  0.57150  0.61840  1.0000 0.1303169383
H   H65       1.0  0.57150  0.61840  0.25330  1.0000 0.1303169383
H   H66       1.0  0.61840  0.25330  0.57150  1.0000 0.1303169383
H   H67       1.0  0.68960  0.30980  0.32220  1.0000 0.1401711201
H   H68       1.0  0.30980  0.32220  0.68960  1.0000 0.1401711201
H   H69       1.0  0.32220  0.68960  0.30980  1.0000 0.1401711201
H   H70       1.0  0.31040  0.69020  0.67780  1.0000 0.1401711201
H   H71       1.0  0.69020  0.67780  0.31040  1.0000 0.1401711201
H   H72       1.0  0.67780  0.31040  0.69020  1.0000 0.1401711201
H   H73       1.0  0.65470  0.35200  0.36290  1.0000 0.1401711201
H   H74       1.0  0.35200  0.36290  0.65470  1.0000 0.1401711201
H   H75       1.0  0.36290  0.65470  0.35200  1.0000 0.1401711201
H   H76       1.0  0.34530  0.64800  0.63710  1.0000 0.1401711201
H   H77       1.0  0.64800  0.63710  0.34530  1.0000 0.1401711201
H   H78       1.0  0.63710  0.34530  0.64800  1.0000 0.1401711201
H   H79       1.0  0.65190  0.22900  0.44070  1.0000 0.1567847797
H   H80       1.0  0.22900  0.44070  0.65190  1.0000 0.1567847797
H   H81       1.0  0.44070  0.65190  0.22900  1.0000 0.1567847797
H   H82       1.0  0.34810  0.77100  0.55930  1.0000 0.1567847797
H   H83       1.0  0.77100  0.55930  0.34810  1.0000 0.1567847797
H   H84       1.0  0.55930  0.34810  0.77100  1.0000 0.1567847797
H   H85       1.0  0.61800  0.22350  0.35260  1.0000 0.1479962675
H   H86       1.0  0.22350  0.35260  0.61800  1.0000 0.1479962675
H   H87       1.0  0.35260  0.61800  0.22350  1.0000 0.1479962675
H   H88       1.0  0.38200  0.77650  0.64740  1.0000 0.1479962675
H   H89       1.0  0.77650  0.64740  0.38200  1.0000 0.1479962675
H   H90       1.0  0.64740  0.38200  0.77650  1.0000 0.1479962675
H   H91       1.0  0.76790  0.30520  0.58690  1.0000 0.1303169383
H   H92       1.0  0.30520  0.58690  0.76790  1.0000 0.1303169383
H   H93       1.0  0.58690  0.76790  0.30520  1.0000 0.1303169383
H   H94       1.0  0.23210  0.69480  0.41310  1.0000 0.1303169383
H   H95       1.0  0.69480  0.41310  0.23210  1.0000 0.1303169383
H   H96       1.0  0.41310  0.23210  0.69480  1.0000 0.1303169383
H   H97       1.0  0.89600  0.37750  0.67960  1.0000 0.1401711201
H   H98       1.0  0.37750  0.67960  0.89600  1.0000 0.1401711201
H   H99       1.0  0.67960  0.89600  0.37750  1.0000 0.1401711201
H   H100      1.0  0.10400  0.62250  0.32040  1.0000 0.1401711201
H   H101      1.0  0.62250  0.32040  0.10400  1.0000 0.1401711201
H   H102      1.0  0.32040  0.10400  0.62250  1.0000 0.1401711201
H   H103      1.0  0.86440  0.42810  0.71640  1.0000 0.1401711201
H   H104      1.0  0.42810  0.71640  0.86440  1.0000 0.1401711201
H   H105      1.0  0.71640  0.86440  0.42810  1.0000 0.1401711201
H   H106      1.0  0.13560  0.57190  0.28360  1.0000 0.1401711201
H   H107      1.0  0.57190  0.28360  0.13560  1.0000 0.1401711201
H   H108      1.0  0.28360  0.13560  0.57190  1.0000 0.1401711201
C   C1        1.0  0.98968  0.55143  0.71589  1.0000 0.0392465944
C   C2        1.0  0.55143  0.71589  0.98968  1.0000 0.0392465944
C   C3        1.0  0.71589  0.98968  0.55143  1.0000 0.0392465944
C   C4        1.0  0.01032  0.44857  0.28411  1.0000 0.0392465944
C   C5        1.0  0.44857  0.28411  0.01032  1.0000 0.0392465944
C   C6        1.0  0.28411  0.01032  0.44857  1.0000 0.0392465944
C   C7        1.0  0.01460  0.61242  0.69928  1.0000 0.0462119134
C   C8        1.0  0.61242  0.69928  0.01460  1.0000 0.0462119134
C   C9        1.0  0.69928  0.01460  0.61242  1.0000 0.0462119134
C   C10       1.0  0.98540  0.38758  0.30072  1.0000 0.0462119134
C   C11       1.0  0.38758  0.30072  0.98540  1.0000 0.0462119134
C   C12       1.0  0.30072  0.98540  0.38758  1.0000 0.0462119134
C   C13       1.0  0.92590  0.55643  0.59047  1.0000 0.0392465944
C   C14       1.0  0.55643  0.59047  0.92590  1.0000 0.0392465944
C   C15       1.0  0.59047  0.92590  0.55643  1.0000 0.0392465944
C   C16       1.0  0.07410  0.44357  0.40953  1.0000 0.0392465944
C   C17       1.0  0.44357  0.40953  0.07410  1.0000 0.0392465944
C   C18       1.0  0.40953  0.07410  0.44357  1.0000 0.0392465944
C   C19       1.0  0.81394  0.43895  0.49861  1.0000 0.0571040239
C   C20       1.0  0.43895  0.49861  0.81394  1.0000 0.0571040239
C   C21       1.0  0.49861  0.81394  0.43895  1.0000 0.0571040239
C   C22       1.0  0.18606  0.56105  0.50139  1.0000 0.0571040239
C   C23       1.0  0.56105  0.50139  0.18606  1.0000 0.0571040239
C   C24       1.0  0.50139  0.18606  0.56105  1.0000 0.0571040239
C   C25       1.0  0.79057  0.37924  0.51719  1.0000 0.0462119134
C   C26       1.0  0.37924  0.51719  0.79057  1.0000 0.0462119134
C   C27       1.0  0.51719  0.79057  0.37924  1.0000 0.0462119134
C   C28       1.0  0.20943  0.62076  0.48281  1.0000 0.0462119134
C   C29       1.0  0.62076  0.48281  0.20943  1.0000 0.0462119134
C   C30       1.0  0.48281  0.20943  0.62076  1.0000 0.0462119134
C   C31       1.0  0.87618  0.43802  0.62780  1.0000 0.0778986571
C   C32       1.0  0.43802  0.62780  0.87618  1.0000 0.0778986571
C   C33       1.0  0.62780  0.87618  0.43802  1.0000 0.0778986571
C   C34       1.0  0.12382  0.56198  0.37220  1.0000 0.0778986571
C   C35       1.0  0.56198  0.37220  0.12382  1.0000 0.0778986571
C   C36       1.0  0.37220  0.12382  0.56198  1.0000 0.0778986571
C   C37       1.0  0.08540  0.59945  0.82385  1.0000 -0.5229934545
C   C38       1.0  0.59945  0.82385  0.08540  1.0000 -0.5229934545
C   C39       1.0  0.82385  0.08540  0.59945  1.0000 -0.5229934545
C   C40       1.0  0.91460  0.40055  0.17615  1.0000 -0.5229934545
C   C41       1.0  0.40055  0.17615  0.91460  1.0000 -0.5229934545
C   C42       1.0  0.17615  0.91460  0.40055  1.0000 -0.5229934545
C   C43       1.0  0.13528  0.73906  0.79936  1.0000 -0.4186636301
C   C44       1.0  0.73906  0.79936  0.13528  1.0000 -0.4186636301
C   C45       1.0  0.79936  0.13528  0.73906  1.0000 -0.4186636301
C   C46       1.0  0.86472  0.26094  0.20064  1.0000 -0.4186636301
C   C47       1.0  0.26094  0.20064  0.86472  1.0000 -0.4186636301
C   C48       1.0  0.20064  0.86472  0.26094  1.0000 -0.4186636301
C   C49       1.0  0.95209  0.62136  0.57075  1.0000 -0.5119524491
C   C50       1.0  0.62136  0.57075  0.95209  1.0000 -0.5119524491
C   C51       1.0  0.57075  0.95209  0.62136  1.0000 -0.5119524491
C   C52       1.0  0.04791  0.37864  0.42925  1.0000 -0.5119524491
C   C53       1.0  0.37864  0.42925  0.04791  1.0000 -0.5119524491
C   C54       1.0  0.42925  0.04791  0.37864  1.0000 -0.5119524491
C   C55       1.0  0.71741  0.37665  0.38054  1.0000 -0.4329697779
C   C56       1.0  0.37665  0.38054  0.71741  1.0000 -0.4329697779
C   C57       1.0  0.38054  0.71741  0.37665  1.0000 -0.4329697779
C   C58       1.0  0.28259  0.62335  0.61946  1.0000 -0.4329697779
C   C59       1.0  0.62335  0.61946  0.28259  1.0000 -0.4329697779
C   C60       1.0  0.61946  0.28259  0.62335  1.0000 -0.4329697779
C   C61       1.0  0.67777  0.24834  0.41619  1.0000 -0.5229934545
C   C62       1.0  0.24834  0.41619  0.67777  1.0000 -0.5229934545
C   C63       1.0  0.41619  0.67777  0.24834  1.0000 -0.5229934545
C   C64       1.0  0.32223  0.75166  0.58381  1.0000 -0.5229934545
C   C65       1.0  0.75166  0.58381  0.32223  1.0000 -0.5229934545
C   C66       1.0  0.58381  0.32223  0.75166  1.0000 -0.5229934545
C   C67       1.0  0.84863  0.38209  0.65518  1.0000 -0.4538494737
C   C68       1.0  0.38209  0.65518  0.84863  1.0000 -0.4538494737
C   C69       1.0  0.65518  0.84863  0.38209  1.0000 -0.4538494737
C   C70       1.0  0.15137  0.61791  0.34482  1.0000 -0.4538494737
C   C71       1.0  0.61791  0.34482  0.15137  1.0000 -0.4538494737
C   C72       1.0  0.34482  0.15137  0.61791  1.0000 -0.4538494737
O   O1        1.0  0.20538  0.62521  0.79901  1.0000 -0.5974423381
O   O2        1.0  0.62521  0.79901  0.20538  1.0000 -0.5974423381
O   O3        1.0  0.79901  0.20538  0.62521  1.0000 -0.5974423381
O   O4        1.0  0.79462  0.37479  0.20099  1.0000 -0.5974423381
O   O5        1.0  0.37479  0.20099  0.79462  1.0000 -0.5974423381
O   O6        1.0  0.20099  0.79462  0.37479  1.0000 -0.5974423381
O   O7        1.0  0.03857  0.42547  0.68676  1.0000 -0.8199589741
O   O8        1.0  0.42547  0.68676  0.03857  1.0000 -0.8199589741
O   O9        1.0  0.68676  0.03857  0.42547  1.0000 -0.8199589741
O   O10       1.0  0.96143  0.57453  0.31324  1.0000 -0.8199589741
O   O11       1.0  0.57453  0.31324  0.96143  1.0000 -0.8199589741
O   O12       1.0  0.31324  0.96143  0.57453  1.0000 -0.8199589741
O   O13       1.0  0.22369  0.59513  0.90558  1.0000 -0.7955809923
O   O14       1.0  0.59513  0.90558  0.22369  1.0000 -0.7955809923
O   O15       1.0  0.90558  0.22369  0.59513  1.0000 -0.7955809923
O   O16       1.0  0.77631  0.40487  0.09442  1.0000 -0.7955809923
O   O17       1.0  0.40487  0.09442  0.77631  1.0000 -0.7955809923
O   O18       1.0  0.09442  0.77631  0.40487  1.0000 -0.7955809923
O   O19       1.0  0.90335  0.47558  0.40137  1.0000 -0.7399861506
O   O20       1.0  0.47558  0.40137  0.90335  1.0000 -0.7399861506
O   O21       1.0  0.40137  0.90335  0.47558  1.0000 -0.7399861506
O   O22       1.0  0.09665  0.52442  0.59863  1.0000 -0.7399861506
O   O23       1.0  0.52442  0.59863  0.09665  1.0000 -0.7399861506
O   O24       1.0  0.59863  0.09665  0.52442  1.0000 -0.7399861506
O   O25       1.0  0.11108  0.65495  0.60767  1.0000 -0.5911300075
O   O26       1.0  0.65495  0.60767  0.11108  1.0000 -0.5911300075
O   O27       1.0  0.60767  0.11108  0.65495  1.0000 -0.5911300075
O   O28       1.0  0.88892  0.34505  0.39233  1.0000 -0.5911300075
O   O29       1.0  0.34505  0.39233  0.88892  1.0000 -0.5911300075
O   O30       1.0  0.39233  0.88892  0.34505  1.0000 -0.5911300075
O   O31       1.0  0.02248  0.67456  0.50296  1.0000 -0.8302332851
O   O32       1.0  0.67456  0.50296  0.02248  1.0000 -0.8302332851
O   O33       1.0  0.50296  0.02248  0.67456  1.0000 -0.8302332851
O   O34       1.0  0.97752  0.32544  0.49704  1.0000 -0.8302332851
O   O35       1.0  0.32544  0.49704  0.97752  1.0000 -0.8302332851
O   O36       1.0  0.49704  0.97752  0.32544  1.0000 -0.8302332851
O   O37       1.0  0.69060  0.16617  0.28573  1.0000 -0.5911300075
O   O38       1.0  0.16617  0.28573  0.69060  1.0000 -0.5911300075
O   O39       1.0  0.28573  0.69060  0.16617  1.0000 -0.5911300075
O   O40       1.0  0.30940  0.83383  0.71427  1.0000 -0.5911300075
O   O41       1.0  0.83383  0.71427  0.30940  1.0000 -0.5911300075
O   O42       1.0  0.71427  0.30940  0.83383  1.0000 -0.5911300075
O   O43       1.0  0.59698  0.04832  0.28960  1.0000 -0.8302332851
O   O44       1.0  0.04832  0.28960  0.59698  1.0000 -0.8302332851
O   O45       1.0  0.28960  0.59698  0.04832  1.0000 -0.8302332851
O   O46       1.0  0.40302  0.95168  0.71040  1.0000 -0.8302332851
O   O47       1.0  0.95168  0.71040  0.40302  1.0000 -0.8302332851
O   O48       1.0  0.71040  0.40302  0.95168  1.0000 -0.8302332851
O   O49       1.0  0.81382  0.23872  0.47006  1.0000 -0.8428769799
O   O50       1.0  0.23872  0.47006  0.81382  1.0000 -0.8428769799
O   O51       1.0  0.47006  0.81382  0.23872  1.0000 -0.8428769799
O   O52       1.0  0.18618  0.76128  0.52994  1.0000 -0.8428769799
O   O53       1.0  0.76128  0.52994  0.18618  1.0000 -0.8428769799
O   O54       1.0  0.52994  0.18618  0.76128  1.0000 -0.8428769799
