# DDEC6 charges by PACMAN v1.1 (https://github.com/mtap-research/PACMAN-charge/)
data_2014[Cd][pcu]3[ASR]8
_chemical_formula_sum              "Cd2 H16 C22 N6 O8"
_cell_length_a       9.5996
_cell_length_b       9.7638
_cell_length_c       9.866
_cell_angle_alpha    88.15
_cell_angle_beta     102.569
_cell_angle_gamma    115.707

_symmetry_space_group_name_H-M    "P 1"
_symmetry_Int_Tables_number       1

loop_
  _symmetry_equiv_pos_as_xyz
  'x, y, z'

loop_
  _atom_site_type_symbol
  _atom_site_label
  _atom_site_symmetry_multiplicity
  _atom_site_fract_x
  _atom_site_fract_y
  _atom_site_fract_z
  _atom_site_occupancy
  _atom_site_charge
Cd  Cd1       1.0  0.04806  0.22667  0.02831  1.0000 0.9386276576
Cd  Cd2       1.0  0.95194  0.77333  0.97169  1.0000 0.9386276576
H   H1        1.0  0.62950  0.99450  0.45910  1.0000 0.129362424
H   H2        1.0  0.37050  0.00550  0.54090  1.0000 0.129362424
H   H3        1.0  0.58440  0.13120  0.43450  1.0000 0.129362424
H   H4        1.0  0.41560  0.86880  0.56550  1.0000 0.129362424
H   H5        1.0  0.76670  0.32790  0.88560  1.0000 0.129362424
H   H6        1.0  0.23330  0.67210  0.11440  1.0000 0.129362424
H   H7        1.0  0.84530  0.04320  0.68920  1.0000 0.143107948
H   H8        1.0  0.15470  0.95680  0.31080  1.0000 0.143107948
H   H9        1.0  0.79360  0.41670  0.30610  1.0000 0.1189512435
H   H10       1.0  0.20640  0.58330  0.69390  1.0000 0.1189512435
H   H11       1.0  0.77330  0.52900  0.49860  1.0000 0.1189512435
H   H12       1.0  0.22670  0.47100  0.50140  1.0000 0.1189512435
H   H13       1.0  0.71680  0.09200  0.18670  1.0000 0.1189512435
H   H14       1.0  0.28320  0.90800  0.81330  1.0000 0.1189512435
H   H15       1.0  0.52020  0.16830  0.17040  1.0000 0.1146896455
H   H16       1.0  0.47980  0.83170  0.82960  1.0000 0.1146896455
C   C1        1.0  0.58390  0.05200  0.49650  1.0000 -0.1543945995
C   C2        1.0  0.41610  0.94800  0.50350  1.0000 -0.1543945995
C   C3        1.0  0.75780  0.25900  0.81750  1.0000 0.1621362056
C   C4        1.0  0.24220  0.74100  0.18250  1.0000 0.1621362056
C   C5        1.0  0.80250  0.10570  0.71300  1.0000 0.0860262189
C   C6        1.0  0.19750  0.89430  0.28700  1.0000 0.0860262189
C   C7        1.0  0.01230  0.43430  0.38210  1.0000 -0.0279695264
C   C8        1.0  0.98770  0.56570  0.61790  1.0000 -0.0279695264
C   C9        1.0  0.87750  0.45070  0.38400  1.0000 -0.1233633783
C   C10       1.0  0.12250  0.54930  0.61600  1.0000 -0.1233633783
C   C11       1.0  0.86460  0.51710  0.49990  1.0000 -0.1110936939
C   C12       1.0  0.13540  0.48290  0.50010  1.0000 -0.1110936939
C   C13       1.0  0.02530  0.36380  0.25610  1.0000 0.5414748761
C   C14       1.0  0.97470  0.63620  0.74390  1.0000 0.5414748761
C   C15       1.0  0.62070  0.95430  0.01050  1.0000 -0.0279695264
C   C16       1.0  0.37930  0.04570  0.98950  1.0000 -0.0279695264
C   C17       1.0  0.62970  0.05500  0.11150  1.0000 -0.1110936939
C   C18       1.0  0.37030  0.94500  0.88850  1.0000 -0.1110936939
C   C19       1.0  0.51220  0.10040  0.10180  1.0000 -0.1110936939
C   C20       1.0  0.48780  0.89960  0.89820  1.0000 -0.1110936939
C   C21       1.0  0.75230  0.90950  0.01570  1.0000 0.5539290878
C   C22       1.0  0.24770  0.09050  0.98430  1.0000 0.5539290878
N   N1        1.0  0.68000  0.12150  0.63410  1.0000 0.1621362056
N   N2        1.0  0.32000  0.87850  0.36590  1.0000 0.1621362056
N   N3        1.0  0.64840  0.21970  0.70060  1.0000 -0.2473512915
N   N4        1.0  0.35160  0.78030  0.29940  1.0000 -0.2473512915
N   N5        1.0  0.85470  0.19210  0.83050  1.0000 -0.3355926302
N   N6        1.0  0.14530  0.80790  0.16950  1.0000 -0.3355926302
O   O1        1.0  0.12060  0.30460  0.26910  1.0000 -0.5337930944
O   O2        1.0  0.87940  0.69540  0.73090  1.0000 -0.5354113009
O   O3        1.0  0.94240  0.36450  0.13950  1.0000 -0.5645439651
O   O4        1.0  0.05760  0.63550  0.86050  1.0000 -0.5645439651
O   O5        1.0  0.88540  0.98410  0.09670  1.0000 -0.5830341008
O   O6        1.0  0.11460  0.01590  0.90330  1.0000 -0.5830341008
O   O7        1.0  0.72770  0.80080  0.93570  1.0000 -0.5149665501
O   O8        1.0  0.27230  0.19920  0.06430  1.0000 -0.5149665501
