# DDEC6 charges by PACMAN v1.1 (https://github.com/mtap-research/PACMAN-charge/)
data_2014[Cu][nan]3[ASR]21
_chemical_formula_sum              "Cu12 H120 C216 O48"
_cell_length_a       23.3697
_cell_length_b       23.3697
_cell_length_c       23.3697
_cell_angle_alpha    109.471
_cell_angle_beta     109.471
_cell_angle_gamma    109.471

_symmetry_space_group_name_H-M    "P 1"
_symmetry_Int_Tables_number       1

loop_
  _symmetry_equiv_pos_as_xyz
  'x, y, z'

loop_
  _atom_site_type_symbol
  _atom_site_label
  _atom_site_symmetry_multiplicity
  _atom_site_fract_x
  _atom_site_fract_y
  _atom_site_fract_z
  _atom_site_occupancy
  _atom_site_charge
Cu  Cu1       1.0  0.14440  0.64440  0.50000  1.0000 0.8445030628
Cu  Cu2       1.0  0.50000  0.14440  0.64440  1.0000 0.8454944669
Cu  Cu3       1.0  0.64440  0.50000  0.14440  1.0000 0.8445030628
Cu  Cu4       1.0  0.35560  0.50000  0.85560  1.0000 0.8454944669
Cu  Cu5       1.0  0.50000  0.85560  0.35560  1.0000 0.8445030628
Cu  Cu6       1.0  0.85560  0.35560  0.50000  1.0000 0.8454944669
Cu  Cu7       1.0  0.24026  0.74026  0.50000  1.0000 0.8585290887
Cu  Cu8       1.0  0.50000  0.24026  0.74026  1.0000 0.8585290887
Cu  Cu9       1.0  0.74026  0.50000  0.24026  1.0000 0.8585290887
Cu  Cu10      1.0  0.25974  0.50000  0.75974  1.0000 0.8585290887
Cu  Cu11      1.0  0.50000  0.75974  0.25974  1.0000 0.8585290887
Cu  Cu12      1.0  0.75974  0.25974  0.50000  1.0000 0.8585290887
H   H1        1.0  0.21680  0.49200  0.47260  1.0000 0.1204360099
H   H2        1.0  0.47260  0.21680  0.49200  1.0000 0.1204360099
H   H3        1.0  0.49200  0.47260  0.21680  1.0000 0.1204360099
H   H4        1.0  0.25580  0.27520  0.78320  1.0000 0.1253426252
H   H5        1.0  0.52740  0.01940  0.74420  1.0000 0.1253426252
H   H6        1.0  0.74420  0.52740  0.01940  1.0000 0.1204360099
H   H7        1.0  0.72480  0.98060  0.50800  1.0000 0.1253426252
H   H8        1.0  0.27520  0.78320  0.25580  1.0000 0.1204360099
H   H9        1.0  0.50800  0.72480  0.98060  1.0000 0.1204360099
H   H10       1.0  0.01940  0.74420  0.52740  1.0000 0.1253426252
H   H11       1.0  0.78320  0.25580  0.27520  1.0000 0.1204360099
H   H12       1.0  0.98060  0.50800  0.72480  1.0000 0.1204360099
H   H13       1.0  0.78320  0.50800  0.52740  1.0000 0.1253426252
H   H14       1.0  0.52740  0.78320  0.50800  1.0000 0.1204360099
H   H15       1.0  0.50800  0.52740  0.78320  1.0000 0.1204360099
H   H16       1.0  0.74420  0.72480  0.21680  1.0000 0.1204360099
H   H17       1.0  0.47260  0.98060  0.25580  1.0000 0.1204360099
H   H18       1.0  0.25580  0.47260  0.98060  1.0000 0.1253426252
H   H19       1.0  0.27520  0.01940  0.49200  1.0000 0.1253426252
H   H20       1.0  0.72480  0.21680  0.74420  1.0000 0.1253426252
H   H21       1.0  0.49200  0.27520  0.01940  1.0000 0.1204360099
H   H22       1.0  0.98060  0.25580  0.47260  1.0000 0.1204360099
H   H23       1.0  0.21680  0.74420  0.72480  1.0000 0.1253426252
H   H24       1.0  0.01940  0.49200  0.27520  1.0000 0.1204360099
H   H25       1.0  0.41020  0.57860  0.44300  1.0000 0.1123015598
H   H26       1.0  0.44300  0.41020  0.57860  1.0000 0.1123015598
H   H27       1.0  0.57860  0.44300  0.41020  1.0000 0.1123015598
H   H28       1.0  0.03280  0.16840  0.58980  1.0000 0.1123015598
H   H29       1.0  0.55700  0.13560  0.96720  1.0000 0.1123015598
H   H30       1.0  0.96720  0.55700  0.13560  1.0000 0.1123015598
H   H31       1.0  0.83160  0.86440  0.42140  1.0000 0.1123015598
H   H32       1.0  0.16840  0.58980  0.03280  1.0000 0.1123015598
H   H33       1.0  0.42140  0.83160  0.86440  1.0000 0.1123015598
H   H34       1.0  0.13560  0.96720  0.55700  1.0000 0.1123015598
H   H35       1.0  0.58980  0.03280  0.16840  1.0000 0.1123015598
H   H36       1.0  0.86440  0.42140  0.83160  1.0000 0.1123015598
H   H37       1.0  0.58980  0.42140  0.55700  1.0000 0.1123015598
H   H38       1.0  0.55700  0.58980  0.42140  1.0000 0.1123015598
H   H39       1.0  0.42140  0.55700  0.58980  1.0000 0.1123015598
H   H40       1.0  0.96720  0.83160  0.41020  1.0000 0.1123015598
H   H41       1.0  0.44300  0.86440  0.03280  1.0000 0.1123015598
H   H42       1.0  0.03280  0.44300  0.86440  1.0000 0.1123015598
H   H43       1.0  0.16840  0.13560  0.57860  1.0000 0.1123015598
H   H44       1.0  0.83160  0.41020  0.96720  1.0000 0.1123015598
H   H45       1.0  0.57860  0.16840  0.13560  1.0000 0.1123015598
H   H46       1.0  0.86440  0.03280  0.44300  1.0000 0.1123015598
H   H47       1.0  0.41020  0.96720  0.83160  1.0000 0.1123015598
H   H48       1.0  0.13560  0.57860  0.16840  1.0000 0.1123015598
H   H49       1.0  0.26720  0.42210  0.44450  1.0000 0.1204360099
H   H50       1.0  0.44450  0.26720  0.42210  1.0000 0.1204360099
H   H51       1.0  0.42210  0.44450  0.26720  1.0000 0.1204360099
H   H52       1.0  0.17730  0.15490  0.73280  1.0000 0.1204360099
H   H53       1.0  0.55550  0.97760  0.82270  1.0000 0.1204360099
H   H54       1.0  0.82270  0.55550  0.97760  1.0000 0.1204360099
H   H55       1.0  0.84510  0.02240  0.57790  1.0000 0.1204360099
H   H56       1.0  0.15490  0.73280  0.17730  1.0000 0.1204360099
H   H57       1.0  0.57790  0.84510  0.02240  1.0000 0.1204360099
H   H58       1.0  0.97760  0.82270  0.55550  1.0000 0.1204360099
H   H59       1.0  0.73280  0.17730  0.15490  1.0000 0.1204360099
H   H60       1.0  0.02240  0.57790  0.84510  1.0000 0.1204360099
H   H61       1.0  0.73280  0.57790  0.55550  1.0000 0.1204360099
H   H62       1.0  0.55550  0.73280  0.57790  1.0000 0.1204360099
H   H63       1.0  0.57790  0.55550  0.73280  1.0000 0.1204360099
H   H64       1.0  0.82270  0.84510  0.26720  1.0000 0.1204360099
H   H65       1.0  0.44450  0.02240  0.17730  1.0000 0.1204360099
H   H66       1.0  0.17730  0.44450  0.02240  1.0000 0.1204360099
H   H67       1.0  0.15490  0.97760  0.42210  1.0000 0.1204360099
H   H68       1.0  0.84510  0.26720  0.82270  1.0000 0.1204360099
H   H69       1.0  0.42210  0.15490  0.97760  1.0000 0.1204360099
H   H70       1.0  0.02240  0.17730  0.44450  1.0000 0.1204360099
H   H71       1.0  0.26720  0.82270  0.84510  1.0000 0.1204360099
H   H72       1.0  0.97760  0.42210  0.15490  1.0000 0.1204360099
H   H73       1.0  0.36210  0.64830  0.47500  1.0000 0.1204360099
H   H74       1.0  0.47500  0.36210  0.64830  1.0000 0.1204360099
H   H75       1.0  0.64830  0.47500  0.36210  1.0000 0.1204360099
H   H76       1.0  0.11290  0.28620  0.63790  1.0000 0.1253426252
H   H77       1.0  0.52500  0.17330  0.88710  1.0000 0.1204360099
H   H78       1.0  0.88710  0.52500  0.17330  1.0000 0.1253426252
H   H79       1.0  0.71380  0.82670  0.35170  1.0000 0.1253426252
H   H80       1.0  0.28620  0.63790  0.11290  1.0000 0.1253426252
H   H81       1.0  0.35170  0.71380  0.82670  1.0000 0.1204360099
H   H82       1.0  0.17330  0.88710  0.52500  1.0000 0.1253426252
H   H83       1.0  0.63790  0.11290  0.28620  1.0000 0.1253426252
H   H84       1.0  0.82670  0.35170  0.71380  1.0000 0.1204360099
H   H85       1.0  0.63790  0.35170  0.52500  1.0000 0.1253426252
H   H86       1.0  0.52500  0.63790  0.35170  1.0000 0.1253426252
H   H87       1.0  0.35170  0.52500  0.63790  1.0000 0.1253426252
H   H88       1.0  0.88710  0.71380  0.36210  1.0000 0.1253426252
H   H89       1.0  0.47500  0.82670  0.11290  1.0000 0.1253426252
H   H90       1.0  0.11290  0.47500  0.82670  1.0000 0.1204360099
H   H91       1.0  0.28620  0.17330  0.64830  1.0000 0.1253426252
H   H92       1.0  0.71380  0.36210  0.88710  1.0000 0.1253426252
H   H93       1.0  0.64830  0.28620  0.17330  1.0000 0.1253426252
H   H94       1.0  0.82670  0.11290  0.47500  1.0000 0.1204360099
H   H95       1.0  0.36210  0.88710  0.71380  1.0000 0.1253426252
H   H96       1.0  0.17330  0.64830  0.28620  1.0000 0.1253426252
H   H97       1.0  0.40690  0.48530  0.36440  1.0000 0.1123015598
H   H98       1.0  0.36440  0.40690  0.48530  1.0000 0.1123015598
H   H99       1.0  0.48530  0.36440  0.40690  1.0000 0.1123015598
H   H100      1.0  0.95750  0.07840  0.59310  1.0000 0.1123015598
H   H101      1.0  0.63560  0.12090  0.04250  1.0000 0.1123015598
H   H102      1.0  0.04250  0.63560  0.12090  1.0000 0.1123015598
H   H103      1.0  0.92160  0.87910  0.51470  1.0000 0.1123015598
H   H104      1.0  0.07840  0.59310  0.95750  1.0000 0.1123015598
H   H105      1.0  0.51470  0.92160  0.87910  1.0000 0.1123015598
H   H106      1.0  0.12090  0.04250  0.63560  1.0000 0.1123015598
H   H107      1.0  0.59310  0.95750  0.07840  1.0000 0.1123015598
H   H108      1.0  0.87910  0.51470  0.92160  1.0000 0.1123015598
H   H109      1.0  0.59310  0.51470  0.63560  1.0000 0.1123015598
H   H110      1.0  0.63560  0.59310  0.51470  1.0000 0.1123015598
H   H111      1.0  0.51470  0.63560  0.59310  1.0000 0.1123015598
H   H112      1.0  0.04250  0.92160  0.40690  1.0000 0.1123015598
H   H113      1.0  0.36440  0.87910  0.95750  1.0000 0.1123015598
H   H114      1.0  0.95750  0.36440  0.87910  1.0000 0.1123015598
H   H115      1.0  0.07840  0.12090  0.48530  1.0000 0.1123015598
H   H116      1.0  0.92160  0.40690  0.04250  1.0000 0.1123015598
H   H117      1.0  0.48530  0.07840  0.12090  1.0000 0.1123015598
H   H118      1.0  0.87910  0.95750  0.36440  1.0000 0.1123015598
H   H119      1.0  0.40690  0.04250  0.92160  1.0000 0.1123015598
H   H120      1.0  0.12090  0.48530  0.07840  1.0000 0.1123015598
C   C1        1.0  0.34371  0.49263  0.44048  1.0000 0.080346801
C   C2        1.0  0.44048  0.34371  0.49263  1.0000 0.080346801
C   C3        1.0  0.49263  0.44048  0.34371  1.0000 0.080346801
C   C4        1.0  0.09677  0.14892  0.65629  1.0000 0.080346801
C   C5        1.0  0.55952  0.05215  0.90323  1.0000 0.080346801
C   C6        1.0  0.90323  0.55952  0.05215  1.0000 0.080346801
C   C7        1.0  0.85108  0.94785  0.50737  1.0000 0.080346801
C   C8        1.0  0.14892  0.65629  0.09677  1.0000 0.080346801
C   C9        1.0  0.50737  0.85108  0.94785  1.0000 0.080346801
C   C10       1.0  0.05215  0.90323  0.55952  1.0000 0.080346801
C   C11       1.0  0.65629  0.09677  0.14892  1.0000 0.080346801
C   C12       1.0  0.94785  0.50737  0.85108  1.0000 0.080346801
C   C13       1.0  0.65629  0.50737  0.55952  1.0000 0.080346801
C   C14       1.0  0.55952  0.65629  0.50737  1.0000 0.080346801
C   C15       1.0  0.50737  0.55952  0.65629  1.0000 0.080346801
C   C16       1.0  0.90323  0.85108  0.34371  1.0000 0.080346801
C   C17       1.0  0.44048  0.94785  0.09677  1.0000 0.080346801
C   C18       1.0  0.09677  0.44048  0.94785  1.0000 0.080346801
C   C19       1.0  0.14892  0.05215  0.49263  1.0000 0.080346801
C   C20       1.0  0.85108  0.34371  0.90323  1.0000 0.080346801
C   C21       1.0  0.49263  0.14892  0.05215  1.0000 0.080346801
C   C22       1.0  0.94785  0.09677  0.44048  1.0000 0.080346801
C   C23       1.0  0.34371  0.90323  0.85108  1.0000 0.080346801
C   C24       1.0  0.05215  0.49263  0.14892  1.0000 0.080346801
C   C25       1.0  0.25302  0.62146  0.49286  1.0000 0.586643505
C   C26       1.0  0.49286  0.25302  0.62146  1.0000 0.586643505
C   C27       1.0  0.62146  0.49286  0.25302  1.0000 0.586643505
C   C28       1.0  0.23984  0.36844  0.74698  1.0000 0.586643505
C   C29       1.0  0.50714  0.12860  0.76016  1.0000 0.586643505
C   C30       1.0  0.76016  0.50714  0.12860  1.0000 0.586643505
C   C31       1.0  0.63156  0.87140  0.37854  1.0000 0.586643505
C   C32       1.0  0.36844  0.74698  0.23984  1.0000 0.586643505
C   C33       1.0  0.37854  0.63156  0.87140  1.0000 0.586643505
C   C34       1.0  0.12860  0.76016  0.50714  1.0000 0.586643505
C   C35       1.0  0.74698  0.23984  0.36844  1.0000 0.586643505
C   C36       1.0  0.87140  0.37854  0.63156  1.0000 0.586643505
C   C37       1.0  0.74698  0.37854  0.50714  1.0000 0.586643505
C   C38       1.0  0.50714  0.74698  0.37854  1.0000 0.586643505
C   C39       1.0  0.37854  0.50714  0.74698  1.0000 0.586643505
C   C40       1.0  0.76016  0.63156  0.25302  1.0000 0.586643505
C   C41       1.0  0.49286  0.87140  0.23984  1.0000 0.586643505
C   C42       1.0  0.23984  0.49286  0.87140  1.0000 0.586643505
C   C43       1.0  0.36844  0.12860  0.62146  1.0000 0.586643505
C   C44       1.0  0.63156  0.25302  0.76016  1.0000 0.586643505
C   C45       1.0  0.62146  0.36844  0.12860  1.0000 0.586643505
C   C46       1.0  0.87140  0.23984  0.49286  1.0000 0.586643505
C   C47       1.0  0.25302  0.76016  0.63156  1.0000 0.586643505
C   C48       1.0  0.12860  0.62146  0.36844  1.0000 0.586643505
C   C49       1.0  0.25654  0.50971  0.46731  1.0000 -0.0889015284
C   C50       1.0  0.46731  0.25654  0.50971  1.0000 -0.0889015284
C   C51       1.0  0.50971  0.46731  0.25654  1.0000 -0.0889015284
C   C52       1.0  0.21077  0.25317  0.74346  1.0000 -0.0889015284
C   C53       1.0  0.53269  0.04240  0.78923  1.0000 -0.0889015284
C   C54       1.0  0.78923  0.53269  0.04240  1.0000 -0.0889015284
C   C55       1.0  0.74683  0.95760  0.49029  1.0000 -0.0889015284
C   C56       1.0  0.25317  0.74346  0.21077  1.0000 -0.0889015284
C   C57       1.0  0.49029  0.74683  0.95760  1.0000 -0.0889015284
C   C58       1.0  0.04240  0.78923  0.53269  1.0000 -0.0889015284
C   C59       1.0  0.74346  0.21077  0.25317  1.0000 -0.0889015284
C   C60       1.0  0.95760  0.49029  0.74683  1.0000 -0.0889015284
C   C61       1.0  0.74346  0.49029  0.53269  1.0000 -0.0889015284
C   C62       1.0  0.53269  0.74346  0.49029  1.0000 -0.0889015284
C   C63       1.0  0.49029  0.53269  0.74346  1.0000 -0.0889015284
C   C64       1.0  0.78923  0.74683  0.25654  1.0000 -0.0889015284
C   C65       1.0  0.46731  0.95760  0.21077  1.0000 -0.0889015284
C   C66       1.0  0.21077  0.46731  0.95760  1.0000 -0.0889015284
C   C67       1.0  0.25317  0.04240  0.50971  1.0000 -0.0889015284
C   C68       1.0  0.74683  0.25654  0.78923  1.0000 -0.0889015284
C   C69       1.0  0.50971  0.25317  0.04240  1.0000 -0.0889015284
C   C70       1.0  0.95760  0.21077  0.46731  1.0000 -0.0889015284
C   C71       1.0  0.25654  0.78923  0.74683  1.0000 -0.0889015284
C   C72       1.0  0.04240  0.50971  0.25317  1.0000 -0.0889015284
C   C73       1.0  0.37137  0.56086  0.44961  1.0000 -0.1614184165
C   C74       1.0  0.44961  0.37137  0.56086  1.0000 -0.1614184165
C   C75       1.0  0.56086  0.44961  0.37137  1.0000 -0.1614184165
C   C76       1.0  0.07824  0.18949  0.62863  1.0000 -0.1614184165
C   C77       1.0  0.55039  0.11125  0.92176  1.0000 -0.1614184165
C   C78       1.0  0.92176  0.55039  0.11125  1.0000 -0.1614184165
C   C79       1.0  0.81051  0.88875  0.43914  1.0000 -0.1614184165
C   C80       1.0  0.18949  0.62863  0.07824  1.0000 -0.1614184165
C   C81       1.0  0.43914  0.81051  0.88875  1.0000 -0.1614184165
C   C82       1.0  0.11125  0.92176  0.55039  1.0000 -0.1614184165
C   C83       1.0  0.62863  0.07824  0.18949  1.0000 -0.1614184165
C   C84       1.0  0.88875  0.43914  0.81051  1.0000 -0.1614184165
C   C85       1.0  0.62863  0.43914  0.55039  1.0000 -0.1614184165
C   C86       1.0  0.55039  0.62863  0.43914  1.0000 -0.1614184165
C   C87       1.0  0.43914  0.55039  0.62863  1.0000 -0.1614184165
C   C88       1.0  0.92176  0.81051  0.37137  1.0000 -0.1614184165
C   C89       1.0  0.44961  0.88875  0.07824  1.0000 -0.1614184165
C   C90       1.0  0.07824  0.44961  0.88875  1.0000 -0.1614184165
C   C91       1.0  0.18949  0.11125  0.56086  1.0000 -0.1614184165
C   C92       1.0  0.81051  0.37137  0.92176  1.0000 -0.1614184165
C   C93       1.0  0.56086  0.18949  0.11125  1.0000 -0.1614184165
C   C94       1.0  0.88875  0.07824  0.44961  1.0000 -0.1614184165
C   C95       1.0  0.37137  0.92176  0.81051  1.0000 -0.1614184165
C   C96       1.0  0.11125  0.56086  0.18949  1.0000 -0.1614184165
C   C97       1.0  0.28629  0.46756  0.44989  1.0000 -0.1614184165
C   C98       1.0  0.44989  0.28629  0.46756  1.0000 -0.1614184165
C   C99       1.0  0.46756  0.44989  0.28629  1.0000 -0.1614184165
C   C100      1.0  0.16360  0.18127  0.71371  1.0000 -0.1614184165
C   C101      1.0  0.55011  0.01767  0.83640  1.0000 -0.1614184165
C   C102      1.0  0.83640  0.55011  0.01767  1.0000 -0.1614184165
C   C103      1.0  0.81873  0.98233  0.53244  1.0000 -0.1614184165
C   C104      1.0  0.18127  0.71371  0.16360  1.0000 -0.1614184165
C   C105      1.0  0.53244  0.81873  0.98233  1.0000 -0.1614184165
C   C106      1.0  0.01767  0.83640  0.55011  1.0000 -0.1614184165
C   C107      1.0  0.71371  0.16360  0.18127  1.0000 -0.1614184165
C   C108      1.0  0.98233  0.53244  0.81873  1.0000 -0.1614184165
C   C109      1.0  0.71371  0.53244  0.55011  1.0000 -0.1614184165
C   C110      1.0  0.55011  0.71371  0.53244  1.0000 -0.1614184165
C   C111      1.0  0.53244  0.55011  0.71371  1.0000 -0.1614184165
C   C112      1.0  0.83640  0.81873  0.28629  1.0000 -0.1614184165
C   C113      1.0  0.44989  0.98233  0.16360  1.0000 -0.1614184165
C   C114      1.0  0.16360  0.44989  0.98233  1.0000 -0.1614184165
C   C115      1.0  0.18127  0.01767  0.46756  1.0000 -0.1614184165
C   C116      1.0  0.81873  0.28629  0.83640  1.0000 -0.1614184165
C   C117      1.0  0.46756  0.18127  0.01767  1.0000 -0.1614184165
C   C118      1.0  0.98233  0.16360  0.44989  1.0000 -0.1614184165
C   C119      1.0  0.28629  0.83640  0.81873  1.0000 -0.1614184165
C   C120      1.0  0.01767  0.46756  0.18127  1.0000 -0.1614184165
C   C121      1.0  0.34246  0.60226  0.46816  1.0000 -0.0889015284
C   C122      1.0  0.46816  0.34246  0.60226  1.0000 -0.0889015284
C   C123      1.0  0.60226  0.46816  0.34246  1.0000 -0.0889015284
C   C124      1.0  0.12570  0.25980  0.65754  1.0000 -0.0889015284
C   C125      1.0  0.53184  0.13410  0.87430  1.0000 -0.0889015284
C   C126      1.0  0.87430  0.53184  0.13410  1.0000 -0.0889015284
C   C127      1.0  0.74020  0.86590  0.39774  1.0000 -0.0889015284
C   C128      1.0  0.25980  0.65754  0.12570  1.0000 -0.0889015284
C   C129      1.0  0.39774  0.74020  0.86590  1.0000 -0.0889015284
C   C130      1.0  0.13410  0.87430  0.53184  1.0000 -0.0889015284
C   C131      1.0  0.65754  0.12570  0.25980  1.0000 -0.0889015284
C   C132      1.0  0.86590  0.39774  0.74020  1.0000 -0.0889015284
C   C133      1.0  0.65754  0.39774  0.53184  1.0000 -0.0889015284
C   C134      1.0  0.53184  0.65754  0.39774  1.0000 -0.0889015284
C   C135      1.0  0.39774  0.53184  0.65754  1.0000 -0.0889015284
C   C136      1.0  0.87430  0.74020  0.34246  1.0000 -0.0889015284
C   C137      1.0  0.46816  0.86590  0.12570  1.0000 -0.0889015284
C   C138      1.0  0.12570  0.46816  0.86590  1.0000 -0.0889015284
C   C139      1.0  0.25980  0.13410  0.60226  1.0000 -0.0889015284
C   C140      1.0  0.74020  0.34246  0.87430  1.0000 -0.0889015284
C   C141      1.0  0.60226  0.25980  0.13410  1.0000 -0.0889015284
C   C142      1.0  0.86590  0.12570  0.46816  1.0000 -0.0889015284
C   C143      1.0  0.34246  0.87430  0.74020  1.0000 -0.0889015284
C   C144      1.0  0.13410  0.60226  0.25980  1.0000 -0.0889015284
C   C145      1.0  0.41223  0.45871  0.38690  1.0000 -0.1969417703
C   C146      1.0  0.38690  0.41223  0.45871  1.0000 -0.1969417703
C   C147      1.0  0.45871  0.38690  0.41223  1.0000 -0.1969417703
C   C148      1.0  0.97467  0.04648  0.58777  1.0000 -0.1969417703
C   C149      1.0  0.61310  0.07181  0.02533  1.0000 -0.1969417703
C   C150      1.0  0.02533  0.61310  0.07181  1.0000 -0.1969417703
C   C151      1.0  0.95352  0.92819  0.54129  1.0000 -0.1969417703
C   C152      1.0  0.04648  0.58777  0.97467  1.0000 -0.1969417703
C   C153      1.0  0.54129  0.95352  0.92819  1.0000 -0.1969417703
C   C154      1.0  0.07181  0.02533  0.61310  1.0000 -0.1969417703
C   C155      1.0  0.58777  0.97467  0.04648  1.0000 -0.1969417703
C   C156      1.0  0.92819  0.54129  0.95352  1.0000 -0.1969417703
C   C157      1.0  0.58777  0.54129  0.61310  1.0000 -0.1969417703
C   C158      1.0  0.61310  0.58777  0.54129  1.0000 -0.1969417703
C   C159      1.0  0.54129  0.61310  0.58777  1.0000 -0.1969417703
C   C160      1.0  0.02533  0.95352  0.41223  1.0000 -0.1969417703
C   C161      1.0  0.38690  0.92819  0.97467  1.0000 -0.1969417703
C   C162      1.0  0.97467  0.38690  0.92819  1.0000 -0.1969417703
C   C163      1.0  0.04648  0.07181  0.45871  1.0000 -0.1969417703
C   C164      1.0  0.95352  0.41223  0.02533  1.0000 -0.1969417703
C   C165      1.0  0.45871  0.04648  0.07181  1.0000 -0.1969417703
C   C166      1.0  0.92819  0.97467  0.38690  1.0000 -0.1969417703
C   C167      1.0  0.41223  0.02533  0.95352  1.0000 -0.1969417703
C   C168      1.0  0.07181  0.45871  0.04648  1.0000 -0.1969417703
C   C169      1.0  0.28514  0.57670  0.47674  1.0000 -0.0329095406
C   C170      1.0  0.47674  0.28514  0.57670  1.0000 -0.0329095406
C   C171      1.0  0.57670  0.47674  0.28514  1.0000 -0.0329095406
C   C172      1.0  0.19160  0.29156  0.71486  1.0000 -0.0329095406
C   C173      1.0  0.52326  0.09996  0.80840  1.0000 -0.0329095406
C   C174      1.0  0.80840  0.52326  0.09996  1.0000 -0.0329095406
C   C175      1.0  0.70844  0.90004  0.42330  1.0000 -0.0329095406
C   C176      1.0  0.29156  0.71486  0.19160  1.0000 -0.0329095406
C   C177      1.0  0.42330  0.70844  0.90004  1.0000 -0.0329095406
C   C178      1.0  0.09996  0.80840  0.52326  1.0000 -0.0329095406
C   C179      1.0  0.71486  0.19160  0.29156  1.0000 -0.0329095406
C   C180      1.0  0.90004  0.42330  0.70844  1.0000 -0.0329095406
C   C181      1.0  0.71486  0.42330  0.52326  1.0000 -0.0329095406
C   C182      1.0  0.52326  0.71486  0.42330  1.0000 -0.0329095406
C   C183      1.0  0.42330  0.52326  0.71486  1.0000 -0.0329095406
C   C184      1.0  0.80840  0.70844  0.28514  1.0000 -0.0329095406
C   C185      1.0  0.47674  0.90004  0.19160  1.0000 -0.0329095406
C   C186      1.0  0.19160  0.47674  0.90004  1.0000 -0.0329095406
C   C187      1.0  0.29156  0.09996  0.57670  1.0000 -0.0329095406
C   C188      1.0  0.70844  0.28514  0.80840  1.0000 -0.0329095406
C   C189      1.0  0.57670  0.29156  0.09996  1.0000 -0.0329095406
C   C190      1.0  0.90004  0.19160  0.47674  1.0000 -0.0329095406
C   C191      1.0  0.28514  0.80840  0.70844  1.0000 -0.0329095406
C   C192      1.0  0.09996  0.57670  0.29156  1.0000 -0.0329095406
C   C193      1.0  0.37977  0.45208  0.42695  1.0000 0.080346801
C   C194      1.0  0.42695  0.37977  0.45208  1.0000 0.080346801
C   C195      1.0  0.45208  0.42695  0.37977  1.0000 0.080346801
C   C196      1.0  0.04718  0.07231  0.62023  1.0000 0.080346801
C   C197      1.0  0.57305  0.02513  0.95282  1.0000 0.080346801
C   C198      1.0  0.95282  0.57305  0.02513  1.0000 0.080346801
C   C199      1.0  0.92769  0.97487  0.54792  1.0000 0.080346801
C   C200      1.0  0.07231  0.62023  0.04718  1.0000 0.080346801
C   C201      1.0  0.54792  0.92769  0.97487  1.0000 0.080346801
C   C202      1.0  0.02513  0.95282  0.57305  1.0000 0.080346801
C   C203      1.0  0.62023  0.04718  0.07231  1.0000 0.080346801
C   C204      1.0  0.97487  0.54792  0.92769  1.0000 0.080346801
C   C205      1.0  0.62023  0.54792  0.57305  1.0000 0.080346801
C   C206      1.0  0.57305  0.62023  0.54792  1.0000 0.080346801
C   C207      1.0  0.54792  0.57305  0.62023  1.0000 0.080346801
C   C208      1.0  0.95282  0.92769  0.37977  1.0000 0.080346801
C   C209      1.0  0.42695  0.97487  0.04718  1.0000 0.080346801
C   C210      1.0  0.04718  0.42695  0.97487  1.0000 0.080346801
C   C211      1.0  0.07231  0.02513  0.45208  1.0000 0.080346801
C   C212      1.0  0.92769  0.37977  0.95282  1.0000 0.080346801
C   C213      1.0  0.45208  0.07231  0.02513  1.0000 0.080346801
C   C214      1.0  0.97487  0.04718  0.42695  1.0000 0.080346801
C   C215      1.0  0.37977  0.95282  0.92769  1.0000 0.080346801
C   C216      1.0  0.02513  0.45208  0.07231  1.0000 0.080346801
O   O1        1.0  0.19907  0.59658  0.49777  1.0000 -0.5136519766
O   O2        1.0  0.49777  0.19907  0.59658  1.0000 -0.5136519766
O   O3        1.0  0.59658  0.49777  0.19907  1.0000 -0.5136519766
O   O4        1.0  0.29870  0.39751  0.80093  1.0000 -0.5136519766
O   O5        1.0  0.50223  0.09881  0.70130  1.0000 -0.5136519766
O   O6        1.0  0.70130  0.50223  0.09881  1.0000 -0.5136519766
O   O7        1.0  0.60249  0.90119  0.40342  1.0000 -0.5136519766
O   O8        1.0  0.39751  0.80093  0.29870  1.0000 -0.5136519766
O   O9        1.0  0.40342  0.60249  0.90119  1.0000 -0.5136519766
O   O10       1.0  0.09881  0.70130  0.50223  1.0000 -0.5136519766
O   O11       1.0  0.80093  0.29870  0.39751  1.0000 -0.5136519766
O   O12       1.0  0.90119  0.40342  0.60249  1.0000 -0.5136519766
O   O13       1.0  0.80093  0.40342  0.50223  1.0000 -0.5136519766
O   O14       1.0  0.50223  0.80093  0.40342  1.0000 -0.5136519766
O   O15       1.0  0.40342  0.50223  0.80093  1.0000 -0.5136519766
O   O16       1.0  0.70130  0.60249  0.19907  1.0000 -0.5136519766
O   O17       1.0  0.49777  0.90119  0.29870  1.0000 -0.5136519766
O   O18       1.0  0.29870  0.49777  0.90119  1.0000 -0.5136519766
O   O19       1.0  0.39751  0.09881  0.59658  1.0000 -0.5136519766
O   O20       1.0  0.60249  0.19907  0.70130  1.0000 -0.5136519766
O   O21       1.0  0.59658  0.39751  0.09881  1.0000 -0.5136519766
O   O22       1.0  0.90119  0.29870  0.49777  1.0000 -0.5136519766
O   O23       1.0  0.19907  0.70130  0.60249  1.0000 -0.5136519766
O   O24       1.0  0.09881  0.59658  0.39751  1.0000 -0.5136519766
O   O25       1.0  0.28078  0.67987  0.49773  1.0000 -0.5200980998
O   O26       1.0  0.49773  0.28078  0.67987  1.0000 -0.5200980998
O   O27       1.0  0.67987  0.49773  0.28078  1.0000 -0.5200980998
O   O28       1.0  0.21695  0.39909  0.71922  1.0000 -0.5200980998
O   O29       1.0  0.50227  0.18214  0.78305  1.0000 -0.5200980998
O   O30       1.0  0.78305  0.50227  0.18214  1.0000 -0.5200980998
O   O31       1.0  0.60091  0.81786  0.32013  1.0000 -0.5200980998
O   O32       1.0  0.39909  0.71922  0.21695  1.0000 -0.5200980998
O   O33       1.0  0.32013  0.60091  0.81786  1.0000 -0.5200980998
O   O34       1.0  0.18214  0.78305  0.50227  1.0000 -0.5200980998
O   O35       1.0  0.71922  0.21695  0.39909  1.0000 -0.5200980998
O   O36       1.0  0.81786  0.32013  0.60091  1.0000 -0.5200980998
O   O37       1.0  0.71922  0.32013  0.50227  1.0000 -0.5200980998
O   O38       1.0  0.50227  0.71922  0.32013  1.0000 -0.5200980998
O   O39       1.0  0.32013  0.50227  0.71922  1.0000 -0.5200980998
O   O40       1.0  0.78305  0.60091  0.28078  1.0000 -0.5200980998
O   O41       1.0  0.49773  0.81786  0.21695  1.0000 -0.5200980998
O   O42       1.0  0.21695  0.49773  0.81786  1.0000 -0.5200980998
O   O43       1.0  0.39909  0.18214  0.67987  1.0000 -0.5200980998
O   O44       1.0  0.60091  0.28078  0.78305  1.0000 -0.5200980998
O   O45       1.0  0.67987  0.39909  0.18214  1.0000 -0.5200980998
O   O46       1.0  0.81786  0.21695  0.49773  1.0000 -0.5200980998
O   O47       1.0  0.28078  0.78305  0.60091  1.0000 -0.5200980998
O   O48       1.0  0.18214  0.67987  0.39909  1.0000 -0.5200980998
