# DDEC6 charges by PACMAN v1.1 (https://github.com/mtap-research/PACMAN-charge/)
data_2014[Sc][nan]3[ASR]7
_chemical_formula_sum              "Sc4 H24 C48 O24"
_cell_length_a       20.0002
_cell_length_b       17.6791
_cell_length_c       11.2581
_cell_angle_alpha    84.3361
_cell_angle_beta     61.5976
_cell_angle_gamma    34.0663

_symmetry_space_group_name_H-M    "P 1"
_symmetry_Int_Tables_number       1

loop_
  _symmetry_equiv_pos_as_xyz
  'x, y, z'

loop_
  _atom_site_type_symbol
  _atom_site_label
  _atom_site_symmetry_multiplicity
  _atom_site_fract_x
  _atom_site_fract_y
  _atom_site_fract_z
  _atom_site_occupancy
  _atom_site_charge
Sc  Sc1       1.0  0.26044  0.26044  0.73956  1.0000 1.8188680289
Sc  Sc2       1.0  0.73956  0.73956  0.26044  1.0000 1.8188680289
Sc  Sc3       1.0  0.98956  0.98956  0.51044  1.0000 1.8188680289
Sc  Sc4       1.0  0.51044  0.51044  0.98956  1.0000 1.8188680289
H   H1        1.0  0.39100  0.34540  0.41060  1.0000 0.1270113317
H   H2        1.0  0.85300  0.41060  0.34540  1.0000 0.1270113317
H   H3        1.0  0.41060  0.85300  0.39100  1.0000 0.1270113317
H   H4        1.0  0.34540  0.39100  0.85300  1.0000 0.1270113317
H   H5        1.0  0.85900  0.90460  0.83940  1.0000 0.1270113317
H   H6        1.0  0.39700  0.83940  0.90460  1.0000 0.1270113317
H   H7        1.0  0.83940  0.39700  0.85900  1.0000 0.1270113317
H   H8        1.0  0.90460  0.85900  0.39700  1.0000 0.1270113317
H   H9        1.0  0.46700  0.37700  0.21660  1.0000 0.1244001416
H   H10       1.0  0.93940  0.21660  0.37700  1.0000 0.1244001416
H   H11       1.0  0.21660  0.93940  0.46700  1.0000 0.1244001416
H   H12       1.0  0.37700  0.46700  0.93940  1.0000 0.1244001416
H   H13       1.0  0.78300  0.87300  0.03340  1.0000 0.1244001416
H   H14       1.0  0.31060  0.03340  0.87300  1.0000 0.1244001416
H   H15       1.0  0.03340  0.31060  0.78300  1.0000 0.1244001416
H   H16       1.0  0.87300  0.78300  0.31060  1.0000 0.1244001416
H   H17       1.0  0.46930  0.03450  0.91830  1.0000 0.1270113317
H   H18       1.0  0.57790  0.91830  0.03450  1.0000 0.1270113317
H   H19       1.0  0.91830  0.57790  0.46930  1.0000 0.1270113317
H   H20       1.0  0.03450  0.46930  0.57790  1.0000 0.1270113317
H   H21       1.0  0.78070  0.21550  0.33170  1.0000 0.1270113317
H   H22       1.0  0.67210  0.33170  0.21550  1.0000 0.1270113317
H   H23       1.0  0.33170  0.67210  0.78070  1.0000 0.1270113317
H   H24       1.0  0.21550  0.78070  0.67210  1.0000 0.1270113317
C   C1        1.0  0.52510  0.08930  0.36570  1.0000 0.6515167333
C   C2        1.0  0.01990  0.36570  0.08930  1.0000 0.6515167333
C   C3        1.0  0.36570  0.01990  0.52510  1.0000 0.6515167333
C   C4        1.0  0.08930  0.52510  0.01990  1.0000 0.6515167333
C   C5        1.0  0.72490  0.16070  0.88430  1.0000 0.6515167333
C   C6        1.0  0.23010  0.88430  0.16070  1.0000 0.6515167333
C   C7        1.0  0.88430  0.23010  0.72490  1.0000 0.6515167333
C   C8        1.0  0.16070  0.72490  0.23010  1.0000 0.6515167333
C   C9        1.0  0.57550  0.10890  0.24050  1.0000 -0.030416792
C   C10       1.0  0.07510  0.24050  0.10890  1.0000 -0.030416792
C   C11       1.0  0.24050  0.07510  0.57550  1.0000 -0.030416792
C   C12       1.0  0.10890  0.57550  0.07510  1.0000 -0.030416792
C   C13       1.0  0.67450  0.14110  0.00950  1.0000 -0.030416792
C   C14       1.0  0.17490  0.00950  0.14110  1.0000 -0.030416792
C   C15       1.0  0.00950  0.17490  0.67450  1.0000 -0.030416792
C   C16       1.0  0.14110  0.67450  0.17490  1.0000 -0.030416792
C   C17       1.0  0.48660  0.25500  0.29360  1.0000 -0.1024403935
C   C18       1.0  0.96480  0.29360  0.25500  1.0000 -0.1024403935
C   C19       1.0  0.29360  0.96480  0.48660  1.0000 -0.1024403935
C   C20       1.0  0.25500  0.48660  0.96480  1.0000 -0.1024403935
C   C21       1.0  0.76340  0.99500  0.95640  1.0000 -0.1024403935
C   C22       1.0  0.28520  0.95640  0.99500  1.0000 -0.1024403935
C   C23       1.0  0.95640  0.28520  0.76340  1.0000 -0.1024403935
C   C24       1.0  0.99500  0.76340  0.28520  1.0000 -0.1024403935
C   C25       1.0  0.53370  0.27270  0.17870  1.0000 -0.1085811789
C   C26       1.0  0.01490  0.17870  0.27270  1.0000 -0.1085811789
C   C27       1.0  0.17870  0.01490  0.53370  1.0000 -0.1085811789
C   C28       1.0  0.27270  0.53370  0.01490  1.0000 -0.1085811789
C   C29       1.0  0.71630  0.97730  0.07130  1.0000 -0.1085811789
C   C30       1.0  0.23510  0.07130  0.97730  1.0000 -0.1085811789
C   C31       1.0  0.07130  0.23510  0.71630  1.0000 -0.1085811789
C   C32       1.0  0.97730  0.71630  0.23510  1.0000 -0.1085811789
C   C33       1.0  0.61080  0.88920  0.61080  1.0000 0.6515167333
C   C34       1.0  0.88920  0.61080  0.88920  1.0000 0.6515167333
C   C35       1.0  0.63920  0.36080  0.63920  1.0000 0.6515167333
C   C36       1.0  0.36080  0.63920  0.36080  1.0000 0.6515167333
C   C37       1.0  0.68300  0.81700  0.68300  1.0000 -0.030416792
C   C38       1.0  0.81700  0.68300  0.81700  1.0000 -0.030416792
C   C39       1.0  0.56700  0.43300  0.56700  1.0000 -0.030416792
C   C40       1.0  0.43300  0.56700  0.43300  1.0000 -0.030416792
C   C41       1.0  0.58360  0.91760  0.84940  1.0000 -0.1024403935
C   C42       1.0  0.64940  0.84940  0.91760  1.0000 -0.1024403935
C   C43       1.0  0.84940  0.64940  0.58360  1.0000 -0.1024403935
C   C44       1.0  0.91760  0.58360  0.64940  1.0000 -0.1024403935
C   C45       1.0  0.66640  0.33240  0.40060  1.0000 -0.1024403935
C   C46       1.0  0.60060  0.40060  0.33240  1.0000 -0.1024403935
C   C47       1.0  0.40060  0.60060  0.66640  1.0000 -0.1024403935
C   C48       1.0  0.33240  0.66640  0.60060  1.0000 -0.1024403935
O   O1        1.0  0.39620  0.21200  0.52000  1.0000 -0.622318347
O   O2        1.0  0.87180  0.52000  0.21200  1.0000 -0.622318347
O   O3        1.0  0.52000  0.87180  0.39620  1.0000 -0.622318347
O   O4        1.0  0.21200  0.39620  0.87180  1.0000 -0.622318347
O   O5        1.0  0.85380  0.03800  0.73000  1.0000 -0.622318347
O   O6        1.0  0.37820  0.73000  0.03800  1.0000 -0.622318347
O   O7        1.0  0.73000  0.37820  0.85380  1.0000 -0.622318347
O   O8        1.0  0.03800  0.85380  0.37820  1.0000 -0.622318347
O   O9        1.0  0.61140  0.95360  0.31080  1.0000 -0.6418632092
O   O10       1.0  0.12420  0.31080  0.95360  1.0000 -0.6418632092
O   O11       1.0  0.31080  0.12420  0.61140  1.0000 -0.6418632092
O   O12       1.0  0.95360  0.61140  0.12420  1.0000 -0.6418632092
O   O13       1.0  0.63860  0.29640  0.93920  1.0000 -0.6418632092
O   O14       1.0  0.12580  0.93920  0.29640  1.0000 -0.6418632092
O   O15       1.0  0.93920  0.12580  0.63860  1.0000 -0.6418632092
O   O16       1.0  0.29640  0.63860  0.12580  1.0000 -0.6418632092
O   O17       1.0  0.47250  0.04650  0.69270  1.0000 -0.6418632092
O   O18       1.0  0.78830  0.69270  0.04650  1.0000 -0.6418632092
O   O19       1.0  0.69270  0.78830  0.47250  1.0000 -0.6418632092
O   O20       1.0  0.04650  0.47250  0.78830  1.0000 -0.6418632092
O   O21       1.0  0.77750  0.20350  0.55730  1.0000 -0.6418632092
O   O22       1.0  0.46170  0.55730  0.20350  1.0000 -0.6418632092
O   O23       1.0  0.55730  0.46170  0.77750  1.0000 -0.6418632092
O   O24       1.0  0.20350  0.77750  0.46170  1.0000 -0.6418632092
