# DDEC6 charges by PACMAN v1.1 (https://github.com/mtap-research/PACMAN-charge/)
data_2014[Sm][nan]3[ASR]1
_chemical_formula_sum              "Sm8 H36 C84 N12 O48"
_cell_length_a       8.0234
_cell_length_b       15.328
_cell_length_c       30.2439
_cell_angle_alpha    90
_cell_angle_beta     90
_cell_angle_gamma    90

_symmetry_space_group_name_H-M    "P 1"
_symmetry_Int_Tables_number       1

loop_
  _symmetry_equiv_pos_as_xyz
  'x, y, z'

loop_
  _atom_site_type_symbol
  _atom_site_label
  _atom_site_symmetry_multiplicity
  _atom_site_fract_x
  _atom_site_fract_y
  _atom_site_fract_z
  _atom_site_occupancy
  _atom_site_charge
Sm  Sm1       1.0  0.43608  0.70430  0.90701  1.0000 2.0756346952
Sm  Sm2       1.0  0.06392  0.20430  0.09299  1.0000 2.0756346952
Sm  Sm3       1.0  0.56392  0.29570  0.40701  1.0000 2.0756346952
Sm  Sm4       1.0  0.93608  0.79570  0.59299  1.0000 2.0756346952
Sm  Sm5       1.0  0.56392  0.29570  0.09299  1.0000 2.0756346952
Sm  Sm6       1.0  0.93608  0.79570  0.90701  1.0000 2.0756346952
Sm  Sm7       1.0  0.43608  0.70430  0.59299  1.0000 2.0756346952
Sm  Sm8       1.0  0.06392  0.20430  0.40701  1.0000 2.0756346952
H   H1        1.0  0.53220  0.74320  0.75000  1.0000 0.1329136413
H   H2        1.0  0.96780  0.24320  0.25000  1.0000 0.1329136413
H   H3        1.0  0.46780  0.25680  0.25000  1.0000 0.1329136413
H   H4        1.0  0.03220  0.75680  0.75000  1.0000 0.1329136413
H   H5        1.0  0.00020  0.45140  0.11150  1.0000 0.1125400258
H   H6        1.0  0.49980  0.95140  0.88850  1.0000 0.1125400258
H   H7        1.0  0.99980  0.54860  0.61150  1.0000 0.1125400258
H   H8        1.0  0.50020  0.04860  0.38850  1.0000 0.1125400258
H   H9        1.0  0.99980  0.54860  0.88850  1.0000 0.1125400258
H   H10       1.0  0.50020  0.04860  0.11150  1.0000 0.1125400258
H   H11       1.0  0.00020  0.45140  0.38850  1.0000 0.1125400258
H   H12       1.0  0.49980  0.95140  0.61150  1.0000 0.1125400258
H   H13       1.0  0.88610  0.66020  0.04270  1.0000 0.1195967939
H   H14       1.0  0.61390  0.16020  0.95730  1.0000 0.1195967939
H   H15       1.0  0.11390  0.33980  0.54270  1.0000 0.1195967939
H   H16       1.0  0.38610  0.83980  0.45730  1.0000 0.1195967939
H   H17       1.0  0.11390  0.33980  0.95730  1.0000 0.1195967939
H   H18       1.0  0.38610  0.83980  0.04270  1.0000 0.1195967939
H   H19       1.0  0.88610  0.66020  0.45730  1.0000 0.1195967939
H   H20       1.0  0.61390  0.16020  0.54270  1.0000 0.1195967939
H   H21       1.0  0.77650  0.93470  0.81500  1.0000 0.1125400258
H   H22       1.0  0.72350  0.43470  0.18500  1.0000 0.1125400258
H   H23       1.0  0.22350  0.06530  0.31500  1.0000 0.1125400258
H   H24       1.0  0.27650  0.56530  0.68500  1.0000 0.1125400258
H   H25       1.0  0.22350  0.06530  0.18500  1.0000 0.1125400258
H   H26       1.0  0.27650  0.56530  0.81500  1.0000 0.1125400258
H   H27       1.0  0.77650  0.93470  0.68500  1.0000 0.1125400258
H   H28       1.0  0.72350  0.43470  0.31500  1.0000 0.1125400258
H   H29       1.0  0.29060  0.52070  0.00830  1.0000 0.1399278208
H   H30       1.0  0.20940  0.02070  0.99170  1.0000 0.1399278208
H   H31       1.0  0.70940  0.47930  0.50830  1.0000 0.1399278208
H   H32       1.0  0.79060  0.97930  0.49170  1.0000 0.1399278208
H   H33       1.0  0.70940  0.47930  0.99170  1.0000 0.1399278208
H   H34       1.0  0.79060  0.97930  0.00830  1.0000 0.1399278208
H   H35       1.0  0.29060  0.52070  0.49170  1.0000 0.1399278208
H   H36       1.0  0.20940  0.02070  0.50830  1.0000 0.1399278208
C   C1        1.0  0.59630  0.79160  0.83219  1.0000 0.6205121722
C   C2        1.0  0.90370  0.29160  0.16781  1.0000 0.6205121722
C   C3        1.0  0.40370  0.20840  0.33219  1.0000 0.6205121722
C   C4        1.0  0.09630  0.70840  0.66781  1.0000 0.6205121722
C   C5        1.0  0.40370  0.20840  0.16781  1.0000 0.6205121722
C   C6        1.0  0.09630  0.70840  0.83219  1.0000 0.6205121722
C   C7        1.0  0.59630  0.79160  0.66781  1.0000 0.6205121722
C   C8        1.0  0.90370  0.29160  0.33219  1.0000 0.6205121722
C   C9        1.0  0.59860  0.79450  0.75000  1.0000 -0.0668676745
C   C10       1.0  0.90140  0.29450  0.25000  1.0000 -0.0668676745
C   C11       1.0  0.40140  0.20550  0.25000  1.0000 -0.0668676745
C   C12       1.0  0.09860  0.70550  0.75000  1.0000 -0.0668676745
C   C13       1.0  0.16020  0.47210  0.06078  1.0000 -0.0764027037
C   C14       1.0  0.33980  0.97210  0.93922  1.0000 -0.0764027037
C   C15       1.0  0.83980  0.52790  0.56078  1.0000 -0.0764027037
C   C16       1.0  0.66020  0.02790  0.43922  1.0000 -0.0764027037
C   C17       1.0  0.83980  0.52790  0.93922  1.0000 -0.0764027037
C   C18       1.0  0.66020  0.02790  0.06078  1.0000 -0.0764027037
C   C19       1.0  0.16020  0.47210  0.43922  1.0000 -0.0764027037
C   C20       1.0  0.33980  0.97210  0.56078  1.0000 -0.0764027037
C   C21       1.0  0.02420  0.49040  0.08790  1.0000 0.0691316408
C   C22       1.0  0.47580  0.99040  0.91210  1.0000 0.0691316408
C   C23       1.0  0.97580  0.50960  0.58790  1.0000 0.0691316408
C   C24       1.0  0.52420  0.00960  0.41210  1.0000 0.0691316408
C   C25       1.0  0.97580  0.50960  0.91210  1.0000 0.0691316408
C   C26       1.0  0.52420  0.00960  0.08790  1.0000 0.0691316408
C   C27       1.0  0.02420  0.49040  0.41210  1.0000 0.0691316408
C   C28       1.0  0.47580  0.99040  0.58790  1.0000 0.0691316408
C   C29       1.0  0.11910  0.65840  0.97985  1.0000 0.6472458091
C   C30       1.0  0.38090  0.15840  0.02015  1.0000 0.6472458091
C   C31       1.0  0.88090  0.34160  0.47985  1.0000 0.6472458091
C   C32       1.0  0.61910  0.84160  0.52015  1.0000 0.6472458091
C   C33       1.0  0.88090  0.34160  0.02015  1.0000 0.6472458091
C   C34       1.0  0.61910  0.84160  0.97985  1.0000 0.6472458091
C   C35       1.0  0.11910  0.65840  0.52015  1.0000 0.6472458091
C   C36       1.0  0.38090  0.15840  0.47985  1.0000 0.6472458091
C   C37       1.0  0.26610  0.39270  0.06641  1.0000 0.60048864
C   C38       1.0  0.23390  0.89270  0.93359  1.0000 0.60048864
C   C39       1.0  0.73390  0.60730  0.56641  1.0000 0.60048864
C   C40       1.0  0.76610  0.10730  0.43359  1.0000 0.60048864
C   C41       1.0  0.73390  0.60730  0.93359  1.0000 0.60048864
C   C42       1.0  0.76610  0.10730  0.06641  1.0000 0.60048864
C   C43       1.0  0.26610  0.39270  0.43359  1.0000 0.60048864
C   C44       1.0  0.23390  0.89270  0.56641  1.0000 0.60048864
C   C45       1.0  0.95850  0.61230  0.04793  1.0000 0.0691316408
C   C46       1.0  0.54150  0.11230  0.95207  1.0000 0.0691316408
C   C47       1.0  0.04150  0.38770  0.54793  1.0000 0.0691316408
C   C48       1.0  0.45850  0.88770  0.45207  1.0000 0.0691316408
C   C49       1.0  0.04150  0.38770  0.95207  1.0000 0.0691316408
C   C50       1.0  0.45850  0.88770  0.04793  1.0000 0.0691316408
C   C51       1.0  0.95850  0.61230  0.45207  1.0000 0.0691316408
C   C52       1.0  0.54150  0.11230  0.54793  1.0000 0.0691316408
C   C53       1.0  0.64820  0.83280  0.78958  1.0000 -0.0668676745
C   C54       1.0  0.85180  0.33280  0.21042  1.0000 -0.0668676745
C   C55       1.0  0.35180  0.16720  0.28958  1.0000 -0.0668676745
C   C56       1.0  0.14820  0.66720  0.71042  1.0000 -0.0668676745
C   C57       1.0  0.35180  0.16720  0.21042  1.0000 -0.0668676745
C   C58       1.0  0.14820  0.66720  0.78958  1.0000 -0.0668676745
C   C59       1.0  0.64820  0.83280  0.71042  1.0000 -0.0668676745
C   C60       1.0  0.85180  0.33280  0.28958  1.0000 -0.0668676745
C   C61       1.0  0.09250  0.60030  0.01942  1.0000 -0.0858038574
C   C62       1.0  0.40750  0.10030  0.98058  1.0000 -0.0858038574
C   C63       1.0  0.90750  0.39970  0.51942  1.0000 -0.0858038574
C   C64       1.0  0.59250  0.89970  0.48058  1.0000 -0.0858038574
C   C65       1.0  0.90750  0.39970  0.98058  1.0000 -0.0858038574
C   C66       1.0  0.59250  0.89970  0.01942  1.0000 -0.0858038574
C   C67       1.0  0.09250  0.60030  0.48058  1.0000 -0.0858038574
C   C68       1.0  0.40750  0.10030  0.51942  1.0000 -0.0858038574
C   C69       1.0  0.74240  0.90890  0.78794  1.0000 0.0806000695
C   C70       1.0  0.75760  0.40890  0.21206  1.0000 0.0806000695
C   C71       1.0  0.25760  0.09110  0.28794  1.0000 0.0806000695
C   C72       1.0  0.24240  0.59110  0.71206  1.0000 0.0806000695
C   C73       1.0  0.25760  0.09110  0.21206  1.0000 0.0806000695
C   C74       1.0  0.24240  0.59110  0.78794  1.0000 0.0806000695
C   C75       1.0  0.74240  0.90890  0.71206  1.0000 0.0806000695
C   C76       1.0  0.75760  0.40890  0.28794  1.0000 0.0806000695
C   C77       1.0  0.19590  0.52980  0.02656  1.0000 -0.0668676745
C   C78       1.0  0.30410  0.02980  0.97344  1.0000 -0.0668676745
C   C79       1.0  0.80410  0.47020  0.52656  1.0000 -0.0668676745
C   C80       1.0  0.69590  0.97020  0.47344  1.0000 -0.0668676745
C   C81       1.0  0.80410  0.47020  0.97344  1.0000 -0.0668676745
C   C82       1.0  0.69590  0.97020  0.02656  1.0000 -0.0668676745
C   C83       1.0  0.19590  0.52980  0.47344  1.0000 -0.0668676745
C   C84       1.0  0.30410  0.02980  0.52656  1.0000 -0.0668676745
N   N1        1.0  0.92540  0.56010  0.08242  1.0000 -0.2725185383
N   N2        1.0  0.57460  0.06010  0.91758  1.0000 -0.2753597129
N   N3        1.0  0.07460  0.43990  0.58242  1.0000 -0.2753597129
N   N4        1.0  0.42540  0.93990  0.41758  1.0000 -0.2753597129
N   N5        1.0  0.07460  0.43990  0.91758  1.0000 -0.2753597129
N   N6        1.0  0.42540  0.93990  0.08242  1.0000 -0.2753597129
N   N7        1.0  0.92540  0.56010  0.41758  1.0000 -0.2725185383
N   N8        1.0  0.57460  0.06010  0.58242  1.0000 -0.2753597129
N   N9        1.0  0.78750  0.94780  0.75000  1.0000 -0.2635907162
N   N10       1.0  0.71250  0.44780  0.25000  1.0000 -0.2635907162
N   N11       1.0  0.21250  0.05220  0.25000  1.0000 -0.2635907162
N   N12       1.0  0.28750  0.55220  0.75000  1.0000 -0.2635907162
O   O1        1.0  0.65730  0.81759  0.86874  1.0000 -0.7303917486
O   O2        1.0  0.84270  0.31759  0.13126  1.0000 -0.7303917486
O   O3        1.0  0.34270  0.18241  0.36874  1.0000 -0.7303917486
O   O4        1.0  0.15730  0.68241  0.63126  1.0000 -0.7303917486
O   O5        1.0  0.34270  0.18241  0.13126  1.0000 -0.7303917486
O   O6        1.0  0.15730  0.68241  0.86874  1.0000 -0.7303917486
O   O7        1.0  0.65730  0.81759  0.63126  1.0000 -0.7303917486
O   O8        1.0  0.84270  0.31759  0.36874  1.0000 -0.7303917486
O   O9        1.0  0.39130  0.38552  0.04198  1.0000 -0.5840511698
O   O10       1.0  0.10870  0.88552  0.95802  1.0000 -0.5840511698
O   O11       1.0  0.60870  0.61448  0.54198  1.0000 -0.5840511698
O   O12       1.0  0.89130  0.11448  0.45802  1.0000 -0.5840511698
O   O13       1.0  0.60870  0.61448  0.95802  1.0000 -0.5840511698
O   O14       1.0  0.89130  0.11448  0.04198  1.0000 -0.5840511698
O   O15       1.0  0.39130  0.38552  0.45802  1.0000 -0.5840511698
O   O16       1.0  0.10870  0.88552  0.54198  1.0000 -0.5840511698
O   O17       1.0  0.25430  0.65063  0.95998  1.0000 -0.6571574512
O   O18       1.0  0.24570  0.15063  0.04002  1.0000 -0.6571574512
O   O19       1.0  0.74570  0.34937  0.45998  1.0000 -0.6571574512
O   O20       1.0  0.75430  0.84937  0.54002  1.0000 -0.6571574512
O   O21       1.0  0.74570  0.34937  0.04002  1.0000 -0.6571574512
O   O22       1.0  0.75430  0.84937  0.95998  1.0000 -0.6571574512
O   O23       1.0  0.25430  0.65063  0.54002  1.0000 -0.6571574512
O   O24       1.0  0.24570  0.15063  0.45998  1.0000 -0.6571574512
O   O25       1.0  0.48820  0.73235  0.83050  1.0000 -0.6233107675
O   O26       1.0  0.01180  0.23235  0.16950  1.0000 -0.6233107675
O   O27       1.0  0.51180  0.26765  0.33050  1.0000 -0.6233107675
O   O28       1.0  0.98820  0.76765  0.66950  1.0000 -0.6233107675
O   O29       1.0  0.51180  0.26765  0.16950  1.0000 -0.6233107675
O   O30       1.0  0.98820  0.76765  0.83050  1.0000 -0.6233107675
O   O31       1.0  0.48820  0.73235  0.66950  1.0000 -0.6233107675
O   O32       1.0  0.01180  0.23235  0.33050  1.0000 -0.6233107675
O   O33       1.0  0.23640  0.33781  0.09708  1.0000 -0.7303917486
O   O34       1.0  0.26360  0.83781  0.90292  1.0000 -0.7303917486
O   O35       1.0  0.76360  0.66219  0.59708  1.0000 -0.7303917486
O   O36       1.0  0.73640  0.16219  0.40292  1.0000 -0.7303917486
O   O37       1.0  0.76360  0.66219  0.90292  1.0000 -0.7303917486
O   O38       1.0  0.73640  0.16219  0.09708  1.0000 -0.7303917486
O   O39       1.0  0.23640  0.33781  0.40292  1.0000 -0.7303917486
O   O40       1.0  0.26360  0.83781  0.59708  1.0000 -0.7303917486
O   O41       1.0  0.00130  0.70828  0.96958  1.0000 -0.6526827443
O   O42       1.0  0.49870  0.20828  0.03042  1.0000 -0.6526827443
O   O43       1.0  0.99870  0.29172  0.46958  1.0000 -0.6526827443
O   O44       1.0  0.50130  0.79172  0.53042  1.0000 -0.6526827443
O   O45       1.0  0.99870  0.29172  0.03042  1.0000 -0.6526827443
O   O46       1.0  0.50130  0.79172  0.96958  1.0000 -0.6526827443
O   O47       1.0  0.00130  0.70828  0.53042  1.0000 -0.6526827443
O   O48       1.0  0.49870  0.20828  0.46958  1.0000 -0.6526827443
