# DDEC6 charges by PACMAN v1.1 (https://github.com/mtap-research/PACMAN-charge/)
data_2014[Cd][tfz]3[ASR]1
_chemical_formula_sum              "Cd6 H76 C128 N4 O24"
_cell_length_a       16.4918
_cell_length_b       16.8382
_cell_length_c       18.4883
_cell_angle_alpha    69.539
_cell_angle_beta     66.786
_cell_angle_gamma    63.792

_symmetry_space_group_name_H-M    "P 1"
_symmetry_Int_Tables_number       1

loop_
  _symmetry_equiv_pos_as_xyz
  'x, y, z'

loop_
  _atom_site_type_symbol
  _atom_site_label
  _atom_site_symmetry_multiplicity
  _atom_site_fract_x
  _atom_site_fract_y
  _atom_site_fract_z
  _atom_site_occupancy
  _atom_site_charge
Cd  Cd1       1.0  0.47832  0.77534  0.45499  1.0000 0.9068896686
Cd  Cd2       1.0  0.55525  0.70510  0.25213  1.0000 1.0724508678
Cd  Cd3       1.0  0.62583  0.62603  0.06084  1.0000 0.9068896686
Cd  Cd4       1.0  0.52168  0.22466  0.54501  1.0000 0.9068896686
Cd  Cd5       1.0  0.44475  0.29490  0.74787  1.0000 1.0724508678
Cd  Cd6       1.0  0.37417  0.37397  0.93916  1.0000 0.9068896686
H   H1        1.0  0.49600  0.61210  0.61600  1.0000 0.1112088397
H   H2        1.0  0.53280  0.57600  0.73530  1.0000 0.1474402239
H   H3        1.0  0.47390  0.84110  0.71230  1.0000 0.1397355015
H   H4        1.0  0.44370  0.87000  0.59140  1.0000 0.1112088397
H   H5        1.0  0.48760  0.58360  0.87700  1.0000 0.1397355015
H   H6        1.0  0.52930  0.56310  0.98890  1.0000 0.1112088397
H   H7        1.0  0.64220  0.75070  0.88260  1.0000 0.1199476376
H   H8        1.0  0.60670  0.77760  0.76590  1.0000 0.1397355015
H   H9        1.0  0.32050  0.71610  0.32080  1.0000 0.1112088397
H   H10       1.0  0.23820  0.64350  0.30530  1.0000 0.1199476376
H   H11       1.0  0.30670  0.44090  0.49460  1.0000 0.1112088397
H   H12       1.0  0.38630  0.51470  0.51130  1.0000 0.1290152808
H   H13       1.0  0.09330  0.59680  0.37370  1.0000 0.1199476376
H   H14       1.0  0.07220  0.35770  0.40110  1.0000 0.1112088397
H   H15       1.0  0.30870  0.36270  0.41140  1.0000 0.1112088397
H   H16       1.0  0.94080  0.64460  0.41740  1.0000 0.1112088397
H   H17       1.0  0.79020  0.72040  0.40450  1.0000 0.1199476376
H   H18       1.0  0.81580  0.51940  0.31700  1.0000 0.1290152808
H   H19       1.0  0.96710  0.44050  0.33240  1.0000 0.1112088397
H   H20       1.0  0.16630  0.22490  0.36530  1.0000 0.1199476376
H   H21       1.0  0.23810  0.06790  0.38300  1.0000 0.1199476376
H   H22       1.0  0.41080  0.07350  0.48560  1.0000 0.1199476376
H   H23       1.0  0.33070  0.22770  0.47670  1.0000 0.1112088397
H   H24       1.0  0.33550  0.70500  0.07370  1.0000 0.1199476376
H   H25       1.0  0.18430  0.78050  0.06040  1.0000 0.1199476376
H   H26       1.0  0.12870  0.94730  0.20000  1.0000 0.1199476376
H   H27       1.0  0.28100  0.87440  0.21080  1.0000 0.1290152808
H   H28       1.0  0.02260  0.81040  0.11770  1.0000 0.1112088397
H   H29       1.0  0.80030  0.04420  0.09310  1.0000 0.1112088397
H   H30       1.0  0.03240  0.04590  0.11990  1.0000 0.1112088397
H   H31       1.0  0.88300  0.76080  0.18890  1.0000 0.1199476376
H   H32       1.0  0.79920  0.68570  0.17850  1.0000 0.1199476376
H   H33       1.0  0.73120  0.88320  0.98730  1.0000 0.1199476376
H   H34       1.0  0.80830  0.96130  0.00140  1.0000 0.1112088397
H   H35       1.0  0.73290  0.15410  0.17600  1.0000 0.1112088397
H   H36       1.0  0.65360  0.31060  0.16470  1.0000 0.1002196187
H   H37       1.0  0.89880  0.35040  0.02610  1.0000 0.1199476376
H   H38       1.0  0.97640  0.19450  0.03710  1.0000 0.1112088397
H   H39       1.0  0.50400  0.38790  0.38400  1.0000 0.1112088397
H   H40       1.0  0.46720  0.42400  0.26470  1.0000 0.1474402239
H   H41       1.0  0.52610  0.15890  0.28770  1.0000 0.1397355015
H   H42       1.0  0.55630  0.13000  0.40860  1.0000 0.1112088397
H   H43       1.0  0.51240  0.41640  0.12300  1.0000 0.1397355015
H   H44       1.0  0.47070  0.43690  0.01110  1.0000 0.1112088397
H   H45       1.0  0.35780  0.24930  0.11740  1.0000 0.1199476376
H   H46       1.0  0.39330  0.22240  0.23410  1.0000 0.1397355015
H   H47       1.0  0.67950  0.28390  0.67920  1.0000 0.1112088397
H   H48       1.0  0.76180  0.35650  0.69470  1.0000 0.1199476376
H   H49       1.0  0.69330  0.55910  0.50540  1.0000 0.1112088397
H   H50       1.0  0.61370  0.48530  0.48870  1.0000 0.1290152808
H   H51       1.0  0.90670  0.40320  0.62630  1.0000 0.1199476376
H   H52       1.0  0.92780  0.64230  0.59890  1.0000 0.1112088397
H   H53       1.0  0.69130  0.63730  0.58860  1.0000 0.1112088397
H   H54       1.0  0.05920  0.35540  0.58260  1.0000 0.1112088397
H   H55       1.0  0.20980  0.27960  0.59550  1.0000 0.1199476376
H   H56       1.0  0.18420  0.48060  0.68300  1.0000 0.1290152808
H   H57       1.0  0.03290  0.55950  0.66760  1.0000 0.1112088397
H   H58       1.0  0.83370  0.77510  0.63470  1.0000 0.1199476376
H   H59       1.0  0.76190  0.93210  0.61700  1.0000 0.1199476376
H   H60       1.0  0.58920  0.92650  0.51440  1.0000 0.1199476376
H   H61       1.0  0.66930  0.77230  0.52330  1.0000 0.1112088397
H   H62       1.0  0.66450  0.29500  0.92630  1.0000 0.1199476376
H   H63       1.0  0.81570  0.21950  0.93960  1.0000 0.1199476376
H   H64       1.0  0.87130  0.05270  0.80000  1.0000 0.1199476376
H   H65       1.0  0.71900  0.12560  0.78920  1.0000 0.1290152808
H   H66       1.0  0.97740  0.18960  0.88230  1.0000 0.1112088397
H   H67       1.0  0.19970  0.95580  0.90690  1.0000 0.1112088397
H   H68       1.0  0.96760  0.95410  0.88010  1.0000 0.1112088397
H   H69       1.0  0.11700  0.23920  0.81110  1.0000 0.1199476376
H   H70       1.0  0.20080  0.31430  0.82150  1.0000 0.1199476376
H   H71       1.0  0.26880  0.11680  0.01270  1.0000 0.1199476376
H   H72       1.0  0.19170  0.03870  0.99860  1.0000 0.1112088397
H   H73       1.0  0.26710  0.84590  0.82400  1.0000 0.1112088397
H   H74       1.0  0.34640  0.68940  0.83530  1.0000 0.1002196187
H   H75       1.0  0.10120  0.64960  0.97390  1.0000 0.1199476376
H   H76       1.0  0.02360  0.80550  0.96290  1.0000 0.1112088397
C   C1        1.0  0.49420  0.65910  0.63440  1.0000 0.1002196187
C   C2        1.0  0.51590  0.63700  0.70630  1.0000 -0.1893060609
C   C3        1.0  0.51290  0.70350  0.73530  1.0000 0.1002196187
C   C4        1.0  0.48200  0.79230  0.69240  1.0000 -0.1893060609
C   C5        1.0  0.46310  0.80920  0.62060  1.0000 0.0793518327
C   C6        1.0  0.54080  0.68340  0.80780  1.0000 0.1199476376
C   C7        1.0  0.51970  0.61910  0.87610  1.0000 -0.184459814
C   C8        1.0  0.54520  0.60700  0.94250  1.0000 0.0793518327
C   C9        1.0  0.61110  0.71590  0.88050  1.0000 0.0871593849
C   C10       1.0  0.58950  0.73320  0.81110  1.0000 -0.2005467276
C   C11       1.0  0.41150  0.67000  0.42940  1.0000 0.5713833486
C   C12       1.0  0.36090  0.62260  0.41830  1.0000 -0.0321576619
C   C13       1.0  0.31680  0.66050  0.35640  1.0000 -0.1115147333
C   C14       1.0  0.26830  0.61730  0.34690  1.0000 -0.1493411194
C   C15       1.0  0.26370  0.53510  0.39870  1.0000 0.0793518327
C   C16       1.0  0.30900  0.49730  0.45970  1.0000 -0.1433432783
C   C17       1.0  0.35660  0.54070  0.46950  1.0000 -0.0972746144
C   C18       1.0  0.20970  0.48650  0.39450  1.0000 0.0871593849
C   C19       1.0  0.11920  0.53260  0.38320  1.0000 -0.1893060609
C   C20       1.0  0.06710  0.48410  0.38600  1.0000 0.0793518327
C   C21       1.0  0.10780  0.39080  0.39830  1.0000 -0.2005467276
C   C22       1.0  0.19800  0.34310  0.40680  1.0000 0.0871593849
C   C23       1.0  0.24710  0.39370  0.40500  1.0000 -0.1893060609
C   C24       1.0  0.97120  0.53390  0.37730  1.0000 0.0793518327
C   C25       1.0  0.91590  0.61780  0.39780  1.0000 -0.1493411194
C   C26       1.0  0.82580  0.66310  0.39020  1.0000 -0.0972746144
C   C27       1.0  0.78620  0.62700  0.36230  1.0000 -0.0472845855
C   C28       1.0  0.84070  0.54410  0.33880  1.0000 -0.0972746144
C   C29       1.0  0.93140  0.49760  0.34720  1.0000 -0.1578266072
C   C30       1.0  0.68630  0.67150  0.35930  1.0000 0.5811059092
C   C31       1.0  0.24260  0.24230  0.41770  1.0000 0.0696108257
C   C32       1.0  0.21530  0.19400  0.39070  1.0000 -0.1578266072
C   C33       1.0  0.25880  0.10080  0.40030  1.0000 -0.0972746144
C   C34       1.0  0.33310  0.05500  0.43510  1.0000 -0.0176285609
C   C35       1.0  0.36010  0.10360  0.46220  1.0000 -0.0972746144
C   C36       1.0  0.31360  0.19560  0.45530  1.0000 -0.1493411194
C   C37       1.0  0.38470  0.95450  0.44120  1.0000 0.5434869443
C   C38       1.0  0.42180  0.73550  0.15060  1.0000 0.5811059092
C   C39       1.0  0.32310  0.78410  0.14280  1.0000 -0.0374057433
C   C40       1.0  0.29380  0.75500  0.09860  1.0000 -0.0972746144
C   C41       1.0  0.20380  0.79950  0.09150  1.0000 -0.1493411194
C   C42       1.0  0.14020  0.87210  0.12870  1.0000 0.0793518327
C   C43       1.0  0.17070  0.89860  0.17350  1.0000 -0.1578266072
C   C44       1.0  0.26110  0.85510  0.18010  1.0000 -0.0972746144
C   C45       1.0  0.04310  0.91970  0.12040  1.0000 0.0793518327
C   C46       1.0  0.99360  0.87390  0.11460  1.0000 -0.2005467276
C   C47       1.0  0.90440  0.91710  0.10450  1.0000 0.0793518327
C   C48       1.0  0.86150  0.01270  0.10040  1.0000 -0.2005467276
C   C49       1.0  0.90860  0.06030  0.10700  1.0000 0.0871593849
C   C50       1.0  0.99970  0.01360  0.11630  1.0000 -0.2005467276
C   C51       1.0  0.85360  0.86810  0.09790  1.0000 0.0793518327
C   C52       1.0  0.85110  0.78650  0.14850  1.0000 -0.1493411194
C   C53       1.0  0.80240  0.74080  0.14160  1.0000 -0.0972746144
C   C54       1.0  0.75840  0.77600  0.08070  1.0000 -0.0472845855
C   C55       1.0  0.76130  0.85860  0.02870  1.0000 -0.0910771813
C   C56       1.0  0.80750  0.90480  0.03670  1.0000 -0.1578266072
C   C57       1.0  0.70770  0.72790  0.07220  1.0000 0.5811059092
C   C58       1.0  0.86110  0.15850  0.10440  1.0000 0.0696108257
C   C59       1.0  0.76650  0.19410  0.14390  1.0000 -0.1578266072
C   C60       1.0  0.71900  0.28740  0.13790  1.0000 -0.1115147333
C   C61       1.0  0.76860  0.34630  0.09200  1.0000 -0.0321576619
C   C62       1.0  0.86420  0.31080  0.05570  1.0000 -0.0910771813
C   C63       1.0  0.91050  0.21780  0.06200  1.0000 -0.1578266072
C   C64       1.0  0.71680  0.44540  0.08400  1.0000 0.5480890189
C   C65       1.0  0.50580  0.34090  0.36560  1.0000 0.1002196187
C   C66       1.0  0.48410  0.36300  0.29370  1.0000 -0.1893060609
C   C67       1.0  0.48710  0.29650  0.26470  1.0000 0.1002196187
C   C68       1.0  0.51800  0.20770  0.30760  1.0000 -0.1893060609
C   C69       1.0  0.53690  0.19080  0.37940  1.0000 0.0793518327
C   C70       1.0  0.45920  0.31660  0.19220  1.0000 0.1199476376
C   C71       1.0  0.48030  0.38090  0.12390  1.0000 -0.184459814
C   C72       1.0  0.45480  0.39300  0.05750  1.0000 0.0793518327
C   C73       1.0  0.38890  0.28410  0.11950  1.0000 0.0871593849
C   C74       1.0  0.41050  0.26680  0.18890  1.0000 -0.2005467276
C   C75       1.0  0.58850  0.33000  0.57060  1.0000 0.5713833486
C   C76       1.0  0.63910  0.37740  0.58170  1.0000 -0.0321576619
C   C77       1.0  0.68320  0.33950  0.64360  1.0000 -0.1115147333
C   C78       1.0  0.73170  0.38270  0.65310  1.0000 -0.1493411194
C   C79       1.0  0.73630  0.46490  0.60130  1.0000 0.0793518327
C   C80       1.0  0.69100  0.50270  0.54030  1.0000 -0.1433432783
C   C81       1.0  0.64340  0.45930  0.53050  1.0000 -0.0972746144
C   C82       1.0  0.79030  0.51350  0.60550  1.0000 0.0871593849
C   C83       1.0  0.88080  0.46740  0.61680  1.0000 -0.1893060609
C   C84       1.0  0.93290  0.51590  0.61400  1.0000 0.0793518327
C   C85       1.0  0.89220  0.60920  0.60170  1.0000 -0.2005467276
C   C86       1.0  0.80200  0.65690  0.59320  1.0000 0.0871593849
C   C87       1.0  0.75290  0.60630  0.59500  1.0000 -0.1893060609
C   C88       1.0  0.02880  0.46610  0.62270  1.0000 0.0793518327
C   C89       1.0  0.08410  0.38220  0.60220  1.0000 -0.1493411194
C   C90       1.0  0.17420  0.33690  0.60980  1.0000 -0.0910771813
C   C91       1.0  0.21380  0.37300  0.63770  1.0000 -0.0472845855
C   C92       1.0  0.15930  0.45590  0.66120  1.0000 -0.0972746144
C   C93       1.0  0.06860  0.50240  0.65280  1.0000 -0.1578266072
C   C94       1.0  0.31370  0.32850  0.64070  1.0000 0.5811059092
C   C95       1.0  0.75740  0.75770  0.58230  1.0000 0.0696108257
C   C96       1.0  0.78470  0.80600  0.60930  1.0000 -0.1578266072
C   C97       1.0  0.74120  0.89920  0.59970  1.0000 -0.0972746144
C   C98       1.0  0.66690  0.94500  0.56490  1.0000 -0.0176285609
C   C99       1.0  0.63990  0.89640  0.53780  1.0000 -0.0972746144
C   C100      1.0  0.68640  0.80440  0.54470  1.0000 -0.1493411194
C   C101      1.0  0.61530  0.04550  0.55880  1.0000 0.5434869443
C   C102      1.0  0.57820  0.26450  0.84940  1.0000 0.5811059092
C   C103      1.0  0.67690  0.21590  0.85720  1.0000 -0.0374057433
C   C104      1.0  0.70620  0.24500  0.90140  1.0000 -0.0972746144
C   C105      1.0  0.79620  0.20050  0.90850  1.0000 -0.1493411194
C   C106      1.0  0.85980  0.12790  0.87130  1.0000 0.0793518327
C   C107      1.0  0.82930  0.10140  0.82650  1.0000 -0.1578266072
C   C108      1.0  0.73890  0.14490  0.81990  1.0000 -0.0972746144
C   C109      1.0  0.95690  0.08030  0.87960  1.0000 0.0793518327
C   C110      1.0  0.00640  0.12610  0.88540  1.0000 -0.2005467276
C   C111      1.0  0.09560  0.08290  0.89550  1.0000 0.0793518327
C   C112      1.0  0.13850  0.98730  0.89960  1.0000 -0.2005467276
C   C113      1.0  0.09140  0.93970  0.89300  1.0000 0.0871593849
C   C114      1.0  0.00030  0.98640  0.88370  1.0000 -0.2005467276
C   C115      1.0  0.14640  0.13190  0.90210  1.0000 0.0793518327
C   C116      1.0  0.14890  0.21350  0.85150  1.0000 -0.1493411194
C   C117      1.0  0.19760  0.25920  0.85840  1.0000 -0.0972746144
C   C118      1.0  0.24160  0.22400  0.91930  1.0000 -0.0472845855
C   C119      1.0  0.23870  0.14140  0.97130  1.0000 -0.0910771813
C   C120      1.0  0.19250  0.09520  0.96330  1.0000 -0.1578266072
C   C121      1.0  0.29230  0.27210  0.92780  1.0000 0.5811059092
C   C122      1.0  0.13890  0.84150  0.89560  1.0000 0.0696108257
C   C123      1.0  0.23350  0.80590  0.85610  1.0000 -0.1578266072
C   C124      1.0  0.28100  0.71260  0.86210  1.0000 -0.1115147333
C   C125      1.0  0.23140  0.65370  0.90800  1.0000 -0.0321576619
C   C126      1.0  0.13580  0.68920  0.94430  1.0000 -0.0910771813
C   C127      1.0  0.08950  0.78220  0.93800  1.0000 -0.1578266072
C   C128      1.0  0.28320  0.55460  0.91600  1.0000 0.5480890189
N   N1        1.0  0.47110  0.74300  0.59070  1.0000 -0.2398103262
N   N2        1.0  0.59120  0.65350  0.94520  1.0000 -0.2315551872
N   N3        1.0  0.52890  0.25700  0.40930  1.0000 -0.2398103262
N   N4        1.0  0.40880  0.34650  0.05480  1.0000 -0.2315551872
O   O1        1.0  0.42090  0.65620  0.49600  1.0000 -0.5122097816
O   O2        1.0  0.43830  0.73010  0.37030  1.0000 -0.5908151056
O   O3        1.0  0.66410  0.64970  0.31480  1.0000 -0.5507510389
O   O4        1.0  0.63270  0.72720  0.40470  1.0000 -0.5574596311
O   O5        1.0  0.34660  0.90620  0.43630  1.0000 -0.5507510389
O   O6        1.0  0.46520  0.92200  0.45040  1.0000 -0.5574596311
O   O7        1.0  0.44800  0.76930  0.18480  1.0000 -0.5712549175
O   O8        1.0  0.47170  0.66570  0.12270  1.0000 -0.5507510389
O   O9        1.0  0.67580  0.67380  0.13340  1.0000 -0.5908151056
O   O10       1.0  0.69480  0.74010  0.00560  1.0000 -0.5384627964
O   O11       1.0  0.76050  0.49830  0.04020  1.0000 -0.5384627964
O   O12       1.0  0.62920  0.47640  0.11870  1.0000 -0.5712549175
O   O13       1.0  0.57910  0.34380  0.50400  1.0000 -0.5122097816
O   O14       1.0  0.56170  0.26990  0.62970  1.0000 -0.5908151056
O   O15       1.0  0.33590  0.35030  0.68520  1.0000 -0.5507510389
O   O16       1.0  0.36730  0.27280  0.59530  1.0000 -0.5574596311
O   O17       1.0  0.65340  0.09380  0.56370  1.0000 -0.5507510389
O   O18       1.0  0.53480  0.07800  0.54960  1.0000 -0.5574596311
O   O19       1.0  0.55200  0.23070  0.81520  1.0000 -0.5712549175
O   O20       1.0  0.52830  0.33430  0.87730  1.0000 -0.5507510389
O   O21       1.0  0.32420  0.32620  0.86660  1.0000 -0.5908151056
O   O22       1.0  0.30520  0.25990  0.99440  1.0000 -0.5384627964
O   O23       1.0  0.23950  0.50170  0.95980  1.0000 -0.5384627964
O   O24       1.0  0.37080  0.52360  0.88130  1.0000 -0.5712549175
