# DDEC6 charges by PACMAN v1.1 (https://github.com/mtap-research/PACMAN-charge/)
data_2014[Co][crb]3[ASR]1
_chemical_formula_sum              "Co16 H96 C128 S16 N64 O64"
_cell_length_a       16.835
_cell_length_b       16.842
_cell_length_c       20.258
_cell_angle_alpha    90
_cell_angle_beta     90
_cell_angle_gamma    90

_symmetry_space_group_name_H-M    "P 1"
_symmetry_Int_Tables_number       1

loop_
  _symmetry_equiv_pos_as_xyz
  'x, y, z'

loop_
  _atom_site_type_symbol
  _atom_site_label
  _atom_site_symmetry_multiplicity
  _atom_site_fract_x
  _atom_site_fract_y
  _atom_site_fract_z
  _atom_site_occupancy
  _atom_site_charge
Co  Co1       1.0  0.05195  0.60372  0.24930  1.0000 0.9036767706
Co  Co2       1.0  0.44805  0.39628  0.74930  1.0000 0.9036767706
Co  Co3       1.0  0.55195  0.89628  0.75070  1.0000 0.9036767706
Co  Co4       1.0  0.94805  0.10372  0.25070  1.0000 0.9036767706
Co  Co5       1.0  0.13641  0.69997  0.99015  1.0000 0.9036767706
Co  Co6       1.0  0.36359  0.30003  0.49015  1.0000 0.9036767706
Co  Co7       1.0  0.63641  0.80003  0.00985  1.0000 0.9036767706
Co  Co8       1.0  0.86359  0.19997  0.50985  1.0000 0.9036767706
Co  Co9       1.0  0.00509  0.61994  0.74845  1.0000 0.8750986158
Co  Co10      1.0  0.49491  0.38006  0.24845  1.0000 0.8718557655
Co  Co11      1.0  0.50509  0.88006  0.25155  1.0000 0.8718557655
Co  Co12      1.0  0.99491  0.11994  0.75155  1.0000 0.8718557655
Co  Co13      1.0  0.11795  0.71221  0.50764  1.0000 0.8871399759
Co  Co14      1.0  0.38205  0.28779  0.00764  1.0000 0.8871399759
Co  Co15      1.0  0.61795  0.78779  0.49236  1.0000 0.8871399759
Co  Co16      1.0  0.88205  0.21221  0.99236  1.0000 0.8871399759
H   H1        1.0  0.79850  0.75810  0.28460  1.0000 0.3116368576
H   H2        1.0  0.70150  0.24190  0.78460  1.0000 0.3116368576
H   H3        1.0  0.29850  0.74190  0.71540  1.0000 0.3116368576
H   H4        1.0  0.20150  0.25810  0.21540  1.0000 0.3116368576
H   H5        1.0  0.90680  0.67920  0.97060  1.0000 0.3116368576
H   H6        1.0  0.59320  0.32080  0.47060  1.0000 0.3116368576
H   H7        1.0  0.40680  0.82080  0.02940  1.0000 0.3116368576
H   H8        1.0  0.09320  0.17920  0.52940  1.0000 0.3116368576
H   H9        1.0  0.97860  0.94520  0.01870  1.0000 0.3116368576
H   H10       1.0  0.52140  0.05480  0.51870  1.0000 0.3116368576
H   H11       1.0  0.47860  0.55480  0.98130  1.0000 0.3116368576
H   H12       1.0  0.02140  0.44520  0.48130  1.0000 0.3116368576
H   H13       1.0  0.10410  0.85770  0.71030  1.0000 0.3188468087
H   H14       1.0  0.39590  0.14230  0.21030  1.0000 0.3188468087
H   H15       1.0  0.60410  0.64230  0.28970  1.0000 0.3188468087
H   H16       1.0  0.89590  0.35770  0.78970  1.0000 0.3188468087
H   H17       1.0  0.96890  0.95680  0.53820  1.0000 0.3116368576
H   H18       1.0  0.53110  0.04320  0.03820  1.0000 0.3116368576
H   H19       1.0  0.46890  0.54320  0.46180  1.0000 0.3116368576
H   H20       1.0  0.03110  0.45680  0.96180  1.0000 0.3116368576
H   H21       1.0  0.05360  0.83000  0.22940  1.0000 0.3188468087
H   H22       1.0  0.44640  0.17000  0.72940  1.0000 0.3188468087
H   H23       1.0  0.55360  0.67000  0.77060  1.0000 0.3188468087
H   H24       1.0  0.94640  0.33000  0.27060  1.0000 0.3188468087
H   H25       1.0  0.37710  0.84420  0.53700  1.0000 0.3188468087
H   H26       1.0  0.12290  0.15580  0.03700  1.0000 0.3188468087
H   H27       1.0  0.87710  0.65580  0.46300  1.0000 0.3188468087
H   H28       1.0  0.62290  0.34420  0.96300  1.0000 0.3188468087
H   H29       1.0  0.27300  0.71230  0.23680  1.0000 0.3188468087
H   H30       1.0  0.22700  0.28770  0.73680  1.0000 0.3188468087
H   H31       1.0  0.77300  0.78770  0.76320  1.0000 0.3188468087
H   H32       1.0  0.72700  0.21230  0.26320  1.0000 0.3188468087
H   H33       1.0  0.91850  0.69680  0.32540  1.0000 0.1201458141
H   H34       1.0  0.58150  0.30320  0.82540  1.0000 0.1201458141
H   H35       1.0  0.41850  0.80320  0.67460  1.0000 0.1201458141
H   H36       1.0  0.08150  0.19680  0.17460  1.0000 0.1201458141
H   H37       1.0  0.78330  0.73180  0.92980  1.0000 0.1142356423
H   H38       1.0  0.71670  0.26820  0.42980  1.0000 0.1142356423
H   H39       1.0  0.28330  0.76820  0.07020  1.0000 0.1142356423
H   H40       1.0  0.21670  0.23180  0.57020  1.0000 0.1142356423
H   H41       1.0  0.02230  0.82310  0.05960  1.0000 0.1321577147
H   H42       1.0  0.47770  0.17690  0.55960  1.0000 0.1201458141
H   H43       1.0  0.52230  0.67690  0.94040  1.0000 0.1201458141
H   H44       1.0  0.97770  0.32310  0.44040  1.0000 0.1201458141
H   H45       1.0  0.06440  0.98300  0.67250  1.0000 0.1142356423
H   H46       1.0  0.43560  0.01700  0.17250  1.0000 0.1142356423
H   H47       1.0  0.56440  0.51700  0.32750  1.0000 0.1142356423
H   H48       1.0  0.93560  0.48300  0.82750  1.0000 0.1142356423
H   H49       1.0  0.02010  0.84040  0.58460  1.0000 0.1201458141
H   H50       1.0  0.47990  0.15960  0.08460  1.0000 0.1201458141
H   H51       1.0  0.52010  0.65960  0.41540  1.0000 0.1201458141
H   H52       1.0  0.97990  0.34040  0.91540  1.0000 0.1201458141
H   H53       1.0  0.00410  0.95010  0.18190  1.0000 0.1201458141
H   H54       1.0  0.49590  0.04990  0.68190  1.0000 0.1201458141
H   H55       1.0  0.50410  0.54990  0.81810  1.0000 0.1201458141
H   H56       1.0  0.99590  0.45010  0.31810  1.0000 0.1201458141
H   H57       1.0  0.25720  0.80140  0.58490  1.0000 0.1201458141
H   H58       1.0  0.24280  0.19860  0.08490  1.0000 0.1201458141
H   H59       1.0  0.75720  0.69860  0.41510  1.0000 0.1201458141
H   H60       1.0  0.74280  0.30140  0.91510  1.0000 0.1201458141
H   H61       1.0  0.38870  0.77230  0.18590  1.0000 0.1321577147
H   H62       1.0  0.11130  0.22770  0.68590  1.0000 0.1321577147
H   H63       1.0  0.88870  0.72770  0.81410  1.0000 0.1321577147
H   H64       1.0  0.61130  0.27230  0.31410  1.0000 0.1321577147
H   H65       1.0  0.97090  0.64860  0.09600  1.0000 0.1578395953
H   H66       1.0  0.52910  0.35140  0.59600  1.0000 0.1578395953
H   H67       1.0  0.47090  0.85140  0.90400  1.0000 0.1578395953
H   H68       1.0  0.02910  0.14860  0.40400  1.0000 0.1578395953
H   H69       1.0  0.73110  0.78310  0.15930  1.0000 0.1578395953
H   H70       1.0  0.76890  0.21690  0.65930  1.0000 0.1578395953
H   H71       1.0  0.23110  0.71690  0.84070  1.0000 0.1578395953
H   H72       1.0  0.26890  0.28310  0.34070  1.0000 0.1578395953
H   H73       1.0  0.09910  0.77830  0.83460  1.0000 0.1578395953
H   H74       1.0  0.40090  0.22170  0.33460  1.0000 0.1578395953
H   H75       1.0  0.59910  0.72170  0.16540  1.0000 0.1578395953
H   H76       1.0  0.90090  0.27830  0.66540  1.0000 0.1578395953
H   H77       1.0  0.97710  0.02380  0.89570  1.0000 0.1578395953
H   H78       1.0  0.52290  0.97620  0.39570  1.0000 0.1578395953
H   H79       1.0  0.47710  0.47620  0.10430  1.0000 0.1578395953
H   H80       1.0  0.02290  0.52380  0.60430  1.0000 0.1578395953
H   H81       1.0  0.06600  0.76750  0.35760  1.0000 0.149208211
H   H82       1.0  0.43400  0.23250  0.85760  1.0000 0.149208211
H   H83       1.0  0.56600  0.73250  0.64240  1.0000 0.149208211
H   H84       1.0  0.93400  0.26750  0.14240  1.0000 0.149208211
H   H85       1.0  0.94860  0.01870  0.40760  1.0000 0.1669696997
H   H86       1.0  0.55140  0.98130  0.90760  1.0000 0.1669696997
H   H87       1.0  0.44860  0.48130  0.59240  1.0000 0.1669696997
H   H88       1.0  0.05140  0.51870  0.09240  1.0000 0.1669696997
H   H89       1.0  0.44690  0.85010  0.41130  1.0000 0.1578395953
H   H90       1.0  0.05310  0.14990  0.91130  1.0000 0.1578395953
H   H91       1.0  0.94690  0.64990  0.58870  1.0000 0.1578395953
H   H92       1.0  0.55310  0.35010  0.08870  1.0000 0.1578395953
H   H93       1.0  0.20830  0.70200  0.36450  1.0000 0.1669696997
H   H94       1.0  0.29170  0.29800  0.86450  1.0000 0.1669696997
H   H95       1.0  0.70830  0.79800  0.63550  1.0000 0.1669696997
H   H96       1.0  0.79170  0.20200  0.13550  1.0000 0.1669696997
C   C1        1.0  0.90330  0.69880  0.28080  1.0000 0.1891089095
C   C2        1.0  0.59670  0.30120  0.78080  1.0000 0.1823700605
C   C3        1.0  0.40330  0.80120  0.71920  1.0000 0.1823700605
C   C4        1.0  0.09670  0.19880  0.21920  1.0000 0.1823700605
C   C5        1.0  0.79780  0.72870  0.97450  1.0000 0.1823700605
C   C6        1.0  0.70220  0.27130  0.47450  1.0000 0.1823700605
C   C7        1.0  0.29780  0.77130  0.02550  1.0000 0.1823700605
C   C8        1.0  0.20220  0.22870  0.52550  1.0000 0.1823700605
C   C9        1.0  0.02920  0.84110  0.01610  1.0000 0.1891089095
C   C10       1.0  0.47080  0.15890  0.51610  1.0000 0.1891089095
C   C11       1.0  0.52920  0.65890  0.98390  1.0000 0.1891089095
C   C12       1.0  0.97080  0.34110  0.48390  1.0000 0.1891089095
C   C13       1.0  0.05930  0.96530  0.71630  1.0000 0.1986340582
C   C14       1.0  0.44070  0.03470  0.21630  1.0000 0.1986340582
C   C15       1.0  0.55930  0.53470  0.28370  1.0000 0.1986340582
C   C16       1.0  0.94070  0.46530  0.78370  1.0000 0.1986340582
C   C17       1.0  0.01770  0.85190  0.53930  1.0000 0.1823700605
C   C18       1.0  0.48230  0.14810  0.03930  1.0000 0.1823700605
C   C19       1.0  0.51770  0.64810  0.46070  1.0000 0.1823700605
C   C20       1.0  0.98230  0.35190  0.96070  1.0000 0.1823700605
C   C21       1.0  0.00570  0.93820  0.22720  1.0000 0.1823700605
C   C22       1.0  0.49430  0.06180  0.72720  1.0000 0.1823700605
C   C23       1.0  0.50570  0.56180  0.77280  1.0000 0.1823700605
C   C24       1.0  0.99430  0.43820  0.27280  1.0000 0.1891089095
C   C25       1.0  0.27310  0.79260  0.54100  1.0000 0.1891089095
C   C26       1.0  0.22690  0.20740  0.04100  1.0000 0.1823700605
C   C27       1.0  0.77310  0.70740  0.45900  1.0000 0.1823700605
C   C28       1.0  0.72690  0.29260  0.95900  1.0000 0.1823700605
C   C29       1.0  0.37610  0.77340  0.23110  1.0000 0.1891089095
C   C30       1.0  0.12390  0.22660  0.73110  1.0000 0.1891089095
C   C31       1.0  0.87610  0.72660  0.76890  1.0000 0.1891089095
C   C32       1.0  0.62390  0.27340  0.26890  1.0000 0.1891089095
C   C33       1.0  0.83220  0.72680  0.19190  1.0000 0.149208211
C   C34       1.0  0.66780  0.27320  0.69190  1.0000 0.149208211
C   C35       1.0  0.33220  0.77320  0.80810  1.0000 0.149208211
C   C36       1.0  0.16780  0.22680  0.30810  1.0000 0.149208211
C   C37       1.0  0.90510  0.68790  0.17460  1.0000 0.149208211
C   C38       1.0  0.59490  0.31210  0.67460  1.0000 0.149208211
C   C39       1.0  0.40510  0.81210  0.82540  1.0000 0.149208211
C   C40       1.0  0.09490  0.18790  0.32540  1.0000 0.149208211
C   C41       1.0  0.92380  0.67410  0.10890  1.0000 -0.2698887691
C   C42       1.0  0.57620  0.32590  0.60890  1.0000 -0.2698887691
C   C43       1.0  0.42380  0.82590  0.89110  1.0000 -0.2698887691
C   C44       1.0  0.07620  0.17410  0.39110  1.0000 -0.2698887691
C   C45       1.0  0.86830  0.70050  0.06410  1.0000 0.1425881009
C   C46       1.0  0.63170  0.29950  0.56410  1.0000 0.1425881009
C   C47       1.0  0.36830  0.79950  0.93590  1.0000 0.1425881009
C   C48       1.0  0.13170  0.20050  0.43590  1.0000 0.149208211
C   C49       1.0  0.79560  0.73670  0.08160  1.0000 0.149208211
C   C50       1.0  0.70440  0.26330  0.58160  1.0000 0.149208211
C   C51       1.0  0.29560  0.76330  0.91840  1.0000 0.149208211
C   C52       1.0  0.20440  0.23670  0.41840  1.0000 0.149208211
C   C53       1.0  0.77690  0.75470  0.14690  1.0000 -0.2619190415
C   C54       1.0  0.72310  0.24530  0.64690  1.0000 -0.2619190415
C   C55       1.0  0.27690  0.74530  0.85310  1.0000 -0.2619190415
C   C56       1.0  0.22310  0.25470  0.35310  1.0000 -0.2619190415
C   C57       1.0  0.01800  0.91520  0.92910  1.0000 0.149208211
C   C58       1.0  0.48200  0.08480  0.42910  1.0000 0.149208211
C   C59       1.0  0.51800  0.58480  0.07090  1.0000 0.149208211
C   C60       1.0  0.98200  0.41520  0.57090  1.0000 0.149208211
C   C61       1.0  0.05780  0.84320  0.91270  1.0000 0.1578395953
C   C62       1.0  0.44220  0.15680  0.41270  1.0000 0.1578395953
C   C63       1.0  0.55780  0.65680  0.08730  1.0000 0.1578395953
C   C64       1.0  0.94220  0.34320  0.58730  1.0000 0.1578395953
C   C65       1.0  0.07820  0.82770  0.84760  1.0000 -0.2619190415
C   C66       1.0  0.42180  0.17230  0.34760  1.0000 -0.2698887691
C   C67       1.0  0.57820  0.67230  0.15240  1.0000 -0.2619190415
C   C68       1.0  0.92180  0.32770  0.65240  1.0000 -0.2619190415
C   C69       1.0  0.06630  0.88820  0.80290  1.0000 0.1425881009
C   C70       1.0  0.43370  0.11180  0.30290  1.0000 0.1425881009
C   C71       1.0  0.56630  0.61180  0.19710  1.0000 0.1425881009
C   C72       1.0  0.93370  0.38820  0.69710  1.0000 0.1425881009
C   C73       1.0  0.02980  0.96210  0.82030  1.0000 0.1425881009
C   C74       1.0  0.47020  0.03790  0.32030  1.0000 0.1425881009
C   C75       1.0  0.52980  0.53790  0.17970  1.0000 0.1425881009
C   C76       1.0  0.97020  0.46210  0.67970  1.0000 0.1425881009
C   C77       1.0  0.00310  0.97660  0.88380  1.0000 -0.2698887691
C   C78       1.0  0.49690  0.02340  0.38380  1.0000 -0.2698887691
C   C79       1.0  0.50310  0.52340  0.11620  1.0000 -0.2698887691
C   C80       1.0  0.99690  0.47660  0.61620  1.0000 -0.2698887691
C   C81       1.0  0.99440  0.91550  0.44640  1.0000 0.1321577147
C   C82       1.0  0.50560  0.08450  0.94640  1.0000 0.1321577147
C   C83       1.0  0.49440  0.58450  0.55360  1.0000 0.1321577147
C   C84       1.0  0.00560  0.41550  0.05360  1.0000 0.1321577147
C   C85       1.0  0.03100  0.84160  0.43280  1.0000 0.1425881009
C   C86       1.0  0.46900  0.15840  0.93280  1.0000 0.1425881009
C   C87       1.0  0.53100  0.65840  0.56720  1.0000 0.1425881009
C   C88       1.0  0.96900  0.34160  0.06720  1.0000 0.1425881009
C   C89       1.0  0.04470  0.81760  0.36800  1.0000 -0.277327396
C   C90       1.0  0.45530  0.18240  0.86800  1.0000 -0.277327396
C   C91       1.0  0.54470  0.68240  0.63200  1.0000 -0.277327396
C   C92       1.0  0.95530  0.31760  0.13200  1.0000 -0.277327396
C   C93       1.0  0.02500  0.87190  0.32030  1.0000 0.149208211
C   C94       1.0  0.47500  0.12810  0.82030  1.0000 0.149208211
C   C95       1.0  0.52500  0.62810  0.67970  1.0000 0.149208211
C   C96       1.0  0.97500  0.37190  0.17970  1.0000 0.149208211
C   C97       1.0  0.98920  0.94750  0.33410  1.0000 0.149208211
C   C98       1.0  0.51080  0.05250  0.83410  1.0000 0.149208211
C   C99       1.0  0.48920  0.55250  0.66590  1.0000 0.149208211
C   C100      1.0  0.01080  0.44750  0.16590  1.0000 0.149208211
C   C101      1.0  0.97280  0.96990  0.39750  1.0000 -0.2503735881
C   C102      1.0  0.52720  0.03010  0.89750  1.0000 -0.2503735881
C   C103      1.0  0.47280  0.53010  0.60250  1.0000 -0.2503735881
C   C104      1.0  0.02720  0.46990  0.10250  1.0000 -0.2619190415
C   C105      1.0  0.27260  0.75780  0.43590  1.0000 0.1578395953
C   C106      1.0  0.22740  0.24220  0.93590  1.0000 0.1578395953
C   C107      1.0  0.77260  0.74220  0.56410  1.0000 0.1578395953
C   C108      1.0  0.72740  0.25780  0.06410  1.0000 0.1578395953
C   C109      1.0  0.34400  0.80050  0.44950  1.0000 0.149208211
C   C110      1.0  0.15600  0.19950  0.94950  1.0000 0.149208211
C   C111      1.0  0.84400  0.69950  0.55050  1.0000 0.149208211
C   C112      1.0  0.65600  0.30050  0.05050  1.0000 0.149208211
C   C113      1.0  0.40070  0.82070  0.40210  1.0000 -0.2698887691
C   C114      1.0  0.09930  0.17930  0.90210  1.0000 -0.2698887691
C   C115      1.0  0.90070  0.67930  0.59790  1.0000 -0.2698887691
C   C116      1.0  0.59930  0.32070  0.09790  1.0000 -0.2698887691
C   C117      1.0  0.38090  0.79230  0.33900  1.0000 0.1425881009
C   C118      1.0  0.11910  0.20770  0.83900  1.0000 0.1425881009
C   C119      1.0  0.88090  0.70770  0.66100  1.0000 0.1425881009
C   C120      1.0  0.61910  0.29230  0.16100  1.0000 0.1425881009
C   C121      1.0  0.30750  0.75280  0.32610  1.0000 0.1578395953
C   C122      1.0  0.19250  0.24720  0.82610  1.0000 0.1578395953
C   C123      1.0  0.80750  0.74720  0.67390  1.0000 0.1578395953
C   C124      1.0  0.69250  0.25280  0.17390  1.0000 0.1578395953
C   C125      1.0  0.25410  0.73190  0.37370  1.0000 -0.2619190415
C   C126      1.0  0.24590  0.26810  0.87370  1.0000 -0.2698887691
C   C127      1.0  0.75410  0.76810  0.62630  1.0000 -0.2698887691
C   C128      1.0  0.74590  0.23190  0.12630  1.0000 -0.2698887691
S   S1        1.0  0.14494  0.69684  0.15102  1.0000 1.4084692597
S   S2        1.0  0.35506  0.30316  0.65102  1.0000 1.4084692597
S   S3        1.0  0.64494  0.80316  0.84898  1.0000 1.4084692597
S   S4        1.0  0.85506  0.19684  0.34898  1.0000 1.4084692597
S   S5        1.0  0.04783  0.60803  0.89691  1.0000 1.3805945217
S   S6        1.0  0.45217  0.39197  0.39691  1.0000 1.3805945217
S   S7        1.0  0.54783  0.89197  0.10309  1.0000 1.3805945217
S   S8        1.0  0.95217  0.10803  0.60309  1.0000 1.3805945217
S   S9        1.0  0.04508  0.58590  0.41397  1.0000 1.424015373
S   S10       1.0  0.45492  0.41410  0.91397  1.0000 1.424015373
S   S11       1.0  0.54508  0.91410  0.58603  1.0000 1.424015373
S   S12       1.0  0.95492  0.08590  0.08603  1.0000 1.424015373
S   S13       1.0  0.14342  0.68603  0.65572  1.0000 1.4084692597
S   S14       1.0  0.35658  0.31397  0.15572  1.0000 1.4084692597
S   S15       1.0  0.64342  0.81397  0.34428  1.0000 1.4084692597
S   S16       1.0  0.85658  0.18603  0.84428  1.0000 1.4084692597
N   N1        1.0  0.94620  0.66740  0.23330  1.0000 -0.3672171981
N   N2        1.0  0.55380  0.33260  0.73330  1.0000 -0.3672171981
N   N3        1.0  0.44620  0.83260  0.76670  1.0000 -0.3672171981
N   N4        1.0  0.05380  0.16740  0.26670  1.0000 -0.3672171981
N   N5        1.0  0.83390  0.73500  0.26000  1.0000 -0.277327396
N   N6        1.0  0.66610  0.26500  0.76000  1.0000 -0.277327396
N   N7        1.0  0.33390  0.76500  0.74000  1.0000 -0.277327396
N   N8        1.0  0.16610  0.23500  0.24000  1.0000 -0.277327396
N   N9        1.0  0.75060  0.75450  0.02410  1.0000 -0.3976873085
N   N10       1.0  0.74940  0.24550  0.52410  1.0000 -0.3976873085
N   N11       1.0  0.25060  0.74550  0.97590  1.0000 -0.3976873085
N   N12       1.0  0.24940  0.25450  0.47590  1.0000 -0.3976873085
N   N13       1.0  0.86890  0.69740  0.99550  1.0000 -0.2698887691
N   N14       1.0  0.63110  0.30260  0.49550  1.0000 -0.2698887691
N   N15       1.0  0.36890  0.80260  0.00450  1.0000 -0.2698887691
N   N16       1.0  0.13110  0.19740  0.50450  1.0000 -0.2698887691
N   N17       1.0  0.06820  0.79850  0.96890  1.0000 -0.3792448603
N   N18       1.0  0.43180  0.20150  0.46890  1.0000 -0.3792448603
N   N19       1.0  0.56820  0.70150  0.03110  1.0000 -0.3792448603
N   N20       1.0  0.93180  0.29850  0.53110  1.0000 -0.3792448603
N   N21       1.0  0.00240  0.90950  0.99480  1.0000 -0.2212287623
N   N22       1.0  0.49760  0.09050  0.49480  1.0000 -0.2212287623
N   N23       1.0  0.50240  0.59050  0.00520  1.0000 -0.2212287623
N   N24       1.0  0.99760  0.40950  0.50520  1.0000 -0.2212287623
N   N25       1.0  0.02830  0.00980  0.76300  1.0000 -0.3792448603
N   N26       1.0  0.47170  0.99020  0.26300  1.0000 -0.3792448603
N   N27       1.0  0.52830  0.49020  0.23700  1.0000 -0.3792448603
N   N28       1.0  0.97170  0.50980  0.73700  1.0000 -0.3792448603
N   N29       1.0  0.08270  0.89400  0.73510  1.0000 -0.2503735881
N   N30       1.0  0.41730  0.10600  0.23510  1.0000 -0.2503735881
N   N31       1.0  0.58270  0.60600  0.26490  1.0000 -0.2443412841
N   N32       1.0  0.91730  0.39400  0.76490  1.0000 -0.2503735881
N   N33       1.0  0.04340  0.80310  0.49280  1.0000 -0.3882497624
N   N34       1.0  0.45660  0.19690  0.99280  1.0000 -0.3882497624
N   N35       1.0  0.54340  0.69690  0.50720  1.0000 -0.3882497624
N   N36       1.0  0.95660  0.30310  0.00720  1.0000 -0.3882497624
N   N37       1.0  0.98860  0.91790  0.51520  1.0000 -0.2212287623
N   N38       1.0  0.51140  0.08210  0.01520  1.0000 -0.2212287623
N   N39       1.0  0.48860  0.58210  0.48480  1.0000 -0.2212287623
N   N40       1.0  0.01140  0.41790  0.98480  1.0000 -0.2212287623
N   N41       1.0  0.98050  0.98750  0.27440  1.0000 -0.3792448603
N   N42       1.0  0.51950  0.01250  0.77440  1.0000 -0.3792448603
N   N43       1.0  0.48050  0.51250  0.72560  1.0000 -0.3792448603
N   N44       1.0  0.01950  0.48750  0.22560  1.0000 -0.3792448603
N   N45       1.0  0.03370  0.86910  0.25210  1.0000 -0.2503735881
N   N46       1.0  0.46630  0.13090  0.75210  1.0000 -0.2503735881
N   N47       1.0  0.53370  0.63090  0.74790  1.0000 -0.2503735881
N   N48       1.0  0.96630  0.36910  0.24790  1.0000 -0.2503735881
N   N49       1.0  0.22990  0.75150  0.49610  1.0000 -0.3882497624
N   N50       1.0  0.27010  0.24850  0.99610  1.0000 -0.3882497624
N   N51       1.0  0.72990  0.74850  0.50390  1.0000 -0.3882497624
N   N52       1.0  0.77010  0.25150  0.00390  1.0000 -0.3882497624
N   N53       1.0  0.34040  0.81890  0.51530  1.0000 -0.2212287623
N   N54       1.0  0.15960  0.18110  0.01530  1.0000 -0.2212287623
N   N55       1.0  0.84040  0.68110  0.48470  1.0000 -0.2212287623
N   N56       1.0  0.65960  0.31890  0.98470  1.0000 -0.2212287623
N   N57       1.0  0.41940  0.80770  0.27650  1.0000 -0.3792448603
N   N58       1.0  0.08060  0.19230  0.77650  1.0000 -0.3792448603
N   N59       1.0  0.91940  0.69230  0.72350  1.0000 -0.3792448603
N   N60       1.0  0.58060  0.30770  0.22350  1.0000 -0.3792448603
N   N61       1.0  0.30880  0.73870  0.25860  1.0000 -0.2503735881
N   N62       1.0  0.19120  0.26130  0.75860  1.0000 -0.2503735881
N   N63       1.0  0.80880  0.76130  0.74140  1.0000 -0.2503735881
N   N64       1.0  0.69120  0.23870  0.24140  1.0000 -0.2503735881
O   O1        1.0  0.09650  0.62370  0.15720  1.0000 -0.6665613726
O   O2        1.0  0.40350  0.37630  0.65720  1.0000 -0.6665613726
O   O3        1.0  0.59650  0.87630  0.84280  1.0000 -0.6665613726
O   O4        1.0  0.90350  0.12370  0.34280  1.0000 -0.6665613726
O   O5        1.0  0.12670  0.73400  0.08740  1.0000 -0.6665613726
O   O6        1.0  0.37330  0.26600  0.58740  1.0000 -0.6665613726
O   O7        1.0  0.62670  0.76600  0.91260  1.0000 -0.6665613726
O   O8        1.0  0.87330  0.23400  0.41260  1.0000 -0.6665613726
O   O9        1.0  0.12380  0.74890  0.20610  1.0000 -0.6778642759
O   O10       1.0  0.37620  0.25110  0.70610  1.0000 -0.6778642759
O   O11       1.0  0.62380  0.75110  0.79390  1.0000 -0.6778642759
O   O12       1.0  0.87620  0.24890  0.29390  1.0000 -0.6778642759
O   O13       1.0  0.23200  0.67820  0.15270  1.0000 -0.6608245492
O   O14       1.0  0.26800  0.32180  0.65270  1.0000 -0.6608245492
O   O15       1.0  0.73200  0.82180  0.84730  1.0000 -0.6608245492
O   O16       1.0  0.76800  0.17820  0.34730  1.0000 -0.6608245492
O   O17       1.0  0.12630  0.65110  0.89360  1.0000 -0.6608245492
O   O18       1.0  0.37370  0.34890  0.39360  1.0000 -0.6608245492
O   O19       1.0  0.62630  0.84890  0.10640  1.0000 -0.6608245492
O   O20       1.0  0.87370  0.15110  0.60640  1.0000 -0.6608245492
O   O21       1.0  0.99330  0.63860  0.84460  1.0000 -0.6608245492
O   O22       1.0  0.50670  0.36140  0.34460  1.0000 -0.6608245492
O   O23       1.0  0.49330  0.86140  0.15540  1.0000 -0.6608245492
O   O24       1.0  0.00670  0.13860  0.65540  1.0000 -0.6608245492
O   O25       1.0  0.01150  0.62350  0.96120  1.0000 -0.6665613726
O   O26       1.0  0.48850  0.37650  0.46120  1.0000 -0.6665613726
O   O27       1.0  0.51150  0.87650  0.03880  1.0000 -0.6665613726
O   O28       1.0  0.98850  0.12350  0.53880  1.0000 -0.6665613726
O   O29       1.0  0.06060  0.52410  0.88680  1.0000 -0.6297489554
O   O30       1.0  0.43940  0.47590  0.38680  1.0000 -0.6297489554
O   O31       1.0  0.56060  0.97590  0.11320  1.0000 -0.6297489554
O   O32       1.0  0.93940  0.02410  0.61320  1.0000 -0.6297489554
O   O33       1.0  0.10760  0.63700  0.70990  1.0000 -0.6459353098
O   O34       1.0  0.39240  0.36300  0.20990  1.0000 -0.6459353098
O   O35       1.0  0.60760  0.86300  0.29010  1.0000 -0.6459353098
O   O36       1.0  0.89240  0.13700  0.79010  1.0000 -0.6441806257
O   O37       1.0  0.11050  0.65560  0.59190  1.0000 -0.6608245492
O   O38       1.0  0.38950  0.34440  0.09190  1.0000 -0.6608245492
O   O39       1.0  0.61050  0.84440  0.40810  1.0000 -0.6608245492
O   O40       1.0  0.88950  0.15560  0.90810  1.0000 -0.6608245492
O   O41       1.0  0.23020  0.67480  0.65650  1.0000 -0.6608245492
O   O42       1.0  0.26980  0.32520  0.15650  1.0000 -0.6608245492
O   O43       1.0  0.73020  0.82520  0.34350  1.0000 -0.6608245492
O   O44       1.0  0.76980  0.17480  0.84350  1.0000 -0.6608245492
O   O45       1.0  0.12090  0.77010  0.65840  1.0000 -0.6977796853
O   O46       1.0  0.37910  0.22990  0.15840  1.0000 -0.6977796853
O   O47       1.0  0.62090  0.72990  0.34160  1.0000 -0.6977796853
O   O48       1.0  0.87910  0.27010  0.84160  1.0000 -0.6977796853
O   O49       1.0  0.11350  0.63750  0.43610  1.0000 -0.6665613726
O   O50       1.0  0.38650  0.36250  0.93610  1.0000 -0.6665613726
O   O51       1.0  0.61350  0.86250  0.56390  1.0000 -0.6665613726
O   O52       1.0  0.88650  0.13750  0.06390  1.0000 -0.6665613726
O   O53       1.0  0.02080  0.61080  0.34670  1.0000 -0.7078990341
O   O54       1.0  0.47920  0.38920  0.84670  1.0000 -0.7078990341
O   O55       1.0  0.52080  0.88920  0.65330  1.0000 -0.7078990341
O   O56       1.0  0.97920  0.11080  0.15330  1.0000 -0.7078990341
O   O57       1.0  0.06950  0.50290  0.41360  1.0000 -0.6459353098
O   O58       1.0  0.43050  0.49710  0.91360  1.0000 -0.6459353098
O   O59       1.0  0.56950  0.99710  0.58640  1.0000 -0.6459353098
O   O60       1.0  0.93050  0.00290  0.08640  1.0000 -0.6459353098
O   O61       1.0  0.97830  0.59740  0.45990  1.0000 -0.6778642759
O   O62       1.0  0.52170  0.40260  0.95990  1.0000 -0.6778642759
O   O63       1.0  0.47830  0.90260  0.54010  1.0000 -0.6778642759
O   O64       1.0  0.02170  0.09740  0.04010  1.0000 -0.6778642759
