# DDEC6 charges by PACMAN v1.1 (https://github.com/mtap-research/PACMAN-charge/)
data_2014[Zn][nan]3[ASR]28
_chemical_formula_sum              "Zn4 H72 C86 N10 O16"
_cell_length_a       9.572
_cell_length_b       14.718
_cell_length_c       19.571
_cell_angle_alpha    73.658
_cell_angle_beta     77.093
_cell_angle_gamma    80.26

_symmetry_space_group_name_H-M    "P 1"
_symmetry_Int_Tables_number       1

loop_
  _symmetry_equiv_pos_as_xyz
  'x, y, z'

loop_
  _atom_site_type_symbol
  _atom_site_label
  _atom_site_symmetry_multiplicity
  _atom_site_fract_x
  _atom_site_fract_y
  _atom_site_fract_z
  _atom_site_occupancy
  _atom_site_charge
Zn  Zn1       1.0  0.72721  0.12622  0.45317  1.0000 0.7666509023
Zn  Zn2       1.0  0.27279  0.87378  0.54683  1.0000 0.7666509023
Zn  Zn3       1.0  0.73997  0.88428  0.04875  1.0000 0.8259625306
Zn  Zn4       1.0  0.26003  0.11572  0.95125  1.0000 0.8259625306
H   H1        1.0  0.99330  0.66450  0.33200  1.0000 0.2593150458
H   H2        1.0  0.00670  0.33550  0.66800  1.0000 0.2593150458
H   H3        1.0  0.30550  0.32860  0.13400  1.0000 0.2593150458
H   H4        1.0  0.69450  0.67140  0.86600  1.0000 0.2593150458
H   H5        1.0  0.28970  0.86040  0.06790  1.0000 0.1191323635
H   H6        1.0  0.71030  0.13960  0.93210  1.0000 0.1191323635
H   H7        1.0  0.34130  0.73620  0.27330  1.0000 0.1191323635
H   H8        1.0  0.65870  0.26380  0.72670  1.0000 0.1191323635
H   H9        1.0  0.96270  0.73930  0.21370  1.0000 0.1393465755
H   H10       1.0  0.03730  0.26070  0.78630  1.0000 0.1393465755
H   H11       1.0  0.17230  0.68850  0.40120  1.0000 0.1094492359
H   H12       1.0  0.82770  0.31150  0.59880  1.0000 0.1094492359
H   H13       1.0  0.25200  0.60660  0.36470  1.0000 0.1032533517
H   H14       1.0  0.74800  0.39340  0.63530  1.0000 0.1032533517
H   H15       1.0  0.56800  0.32200  0.14350  1.0000 0.1094492359
H   H16       1.0  0.43200  0.67800  0.85650  1.0000 0.1094492359
H   H17       1.0  0.48770  0.40460  0.17890  1.0000 0.1094492359
H   H18       1.0  0.51230  0.59540  0.82110  1.0000 0.1094492359
H   H19       1.0  0.50820  0.25470  0.26970  1.0000 0.1293954859
H   H20       1.0  0.49180  0.74530  0.73030  1.0000 0.1293954859
H   H21       1.0  0.19180  0.14280  0.42860  1.0000 0.1293954859
H   H22       1.0  0.80820  0.85720  0.57140  1.0000 0.1293954859
H   H23       1.0  0.11290  0.26610  0.22800  1.0000 0.1293954859
H   H24       1.0  0.88710  0.73390  0.77200  1.0000 0.1293954859
H   H25       1.0  0.92950  0.07910  0.55320  1.0000 0.1191323635
H   H26       1.0  0.07050  0.92090  0.44680  1.0000 0.1191323635
H   H27       1.0  0.94380  0.02860  0.67400  1.0000 0.1393465755
H   H28       1.0  0.05620  0.97140  0.32600  1.0000 0.1393465755
H   H29       1.0  0.52070  0.00470  0.71970  1.0000 0.1393465755
H   H30       1.0  0.47930  0.99530  0.28030  1.0000 0.1393465755
H   H31       1.0  0.51850  0.05350  0.60030  1.0000 0.1191323635
H   H32       1.0  0.48150  0.94650  0.39970  1.0000 0.1191323635
H   H33       1.0  0.95410  0.97250  0.78250  1.0000 0.1393465755
H   H34       1.0  0.04590  0.02750  0.21750  1.0000 0.1393465755
H   H35       1.0  0.95760  0.92160  0.90560  1.0000 0.1293954859
H   H36       1.0  0.04240  0.07840  0.09440  1.0000 0.1293954859
H   H37       1.0  0.54340  0.91050  0.94910  1.0000 0.1191323635
H   H38       1.0  0.45660  0.08950  0.05090  1.0000 0.1191323635
H   H39       1.0  0.53120  0.96110  0.82950  1.0000 0.1393465755
H   H40       1.0  0.46880  0.03890  0.17050  1.0000 0.1393465755
H   H41       1.0  0.46180  0.23510  0.54120  1.0000 0.1094492359
H   H42       1.0  0.53820  0.76490  0.45880  1.0000 0.1094492359
H   H43       1.0  0.36080  0.38270  0.55030  1.0000 0.1393465755
H   H44       1.0  0.63920  0.61730  0.44970  1.0000 0.1393465755
H   H45       1.0  0.72620  0.48240  0.44060  1.0000 0.1293954859
H   H46       1.0  0.27380  0.51760  0.55940  1.0000 0.1293954859
H   H47       1.0  0.81670  0.33160  0.43170  1.0000 0.1191323635
H   H48       1.0  0.18330  0.66840  0.56830  1.0000 0.1191323635
H   H49       1.0  0.29990  0.40710  0.40290  1.0000 0.1393465755
H   H50       1.0  0.70010  0.59290  0.59710  1.0000 0.1393465755
H   H51       1.0  0.22770  0.48500  0.34420  1.0000 0.1293954859
H   H52       1.0  0.77230  0.51500  0.65580  1.0000 0.1293954859
H   H53       1.0  0.17400  0.38380  0.37360  1.0000 0.1393465755
H   H54       1.0  0.82600  0.61620  0.62640  1.0000 0.1393465755
H   H55       1.0  0.81830  0.71660  0.49420  1.0000 0.1393465755
H   H56       1.0  0.18170  0.28340  0.50580  1.0000 0.1393465755
H   H57       1.0  0.96050  0.73730  0.43730  1.0000 0.1191323635
H   H58       1.0  0.03950  0.26270  0.56270  1.0000 0.1191323635
H   H59       1.0  0.95900  0.72420  0.51980  1.0000 0.1393465755
H   H60       1.0  0.04100  0.27580  0.48020  1.0000 0.1393465755
H   H61       1.0  0.43270  0.59920  0.14030  1.0000 0.1393465755
H   H62       1.0  0.56730  0.40080  0.85970  1.0000 0.1393465755
H   H63       1.0  0.32890  0.51940  0.16620  1.0000 0.1191323635
H   H64       1.0  0.67110  0.48060  0.83380  1.0000 0.1191323635
H   H65       1.0  0.28380  0.61790  0.11500  1.0000 0.1293954859
H   H66       1.0  0.71620  0.38210  0.88500  1.0000 0.1293954859
H   H67       1.0  0.55720  0.27530  0.98220  1.0000 0.1393465755
H   H68       1.0  0.44280  0.72470  0.01780  1.0000 0.1393465755
H   H69       1.0  0.56270  0.26170  0.06400  1.0000 0.1094492359
H   H70       1.0  0.43730  0.73830  0.93600  1.0000 0.1094492359
H   H71       1.0  0.70010  0.28590  0.00430  1.0000 0.1472307613
H   H72       1.0  0.29990  0.71410  0.99570  1.0000 0.1472307613
C   C1        1.0  0.10940  0.80580  0.13290  1.0000 -0.0095295896
C   C2        1.0  0.89060  0.19420  0.86710  1.0000 -0.0095295896
C   C3        1.0  0.25260  0.82840  0.11510  1.0000 -0.1422759125
C   C4        1.0  0.74740  0.17160  0.88490  1.0000 -0.1422759125
C   C5        1.0  0.33760  0.80350  0.16700  1.0000 -0.0185135818
C   C6        1.0  0.66240  0.19650  0.83300  1.0000 -0.0185135818
C   C7        1.0  0.28380  0.75290  0.23810  1.0000 -0.2202964256
C   C8        1.0  0.71620  0.24710  0.76190  1.0000 -0.2202964256
C   C9        1.0  0.14250  0.72810  0.25530  1.0000 0.2143915241
C   C10       1.0  0.85750  0.27190  0.74470  1.0000 0.2143915241
C   C11       1.0  0.05650  0.75540  0.20210  1.0000 -0.2128422016
C   C12       1.0  0.94350  0.24460  0.79790  1.0000 -0.2128422016
C   C13       1.0  0.15810  0.63750  0.38190  1.0000 -0.0987743119
C   C14       1.0  0.84190  0.36250  0.61810  1.0000 -0.0987743119
C   C15       1.0  0.07020  0.56470  0.44160  1.0000 -0.0586469796
C   C16       1.0  0.92980  0.43530  0.55840  1.0000 -0.0586469796
C   C17       1.0  0.96390  0.59810  0.49470  1.0000 0.0393487124
C   C18       1.0  0.03610  0.40190  0.50530  1.0000 0.0393487124
C   C19       1.0  0.10170  0.46690  0.44570  1.0000 0.0511024941
C   C20       1.0  0.89830  0.53310  0.55430  1.0000 0.0511024941
C   C21       1.0  0.54910  0.40250  0.00760  1.0000 0.0611377863
C   C22       1.0  0.45090  0.59750  0.99240  1.0000 0.0611377863
C   C23       1.0  0.43390  0.53290  0.06100  1.0000 0.0511024941
C   C24       1.0  0.56610  0.46710  0.93900  1.0000 0.0511024941
C   C25       1.0  0.48730  0.43780  0.06880  1.0000 -0.0586469796
C   C26       1.0  0.51270  0.56220  0.93120  1.0000 -0.0586469796
C   C27       1.0  0.48430  0.36950  0.14430  1.0000 -0.0987743119
C   C28       1.0  0.51570  0.63050  0.85570  1.0000 -0.0987743119
C   C29       1.0  0.31620  0.27220  0.23770  1.0000 0.1997560432
C   C30       1.0  0.68380  0.72780  0.76230  1.0000 0.1997560432
C   C31       1.0  0.41260  0.24200  0.28530  1.0000 -0.2128422016
C   C32       1.0  0.58740  0.75800  0.71470  1.0000 -0.2128422016
C   C33       1.0  0.36470  0.19240  0.35710  1.0000 -0.0095295896
C   C34       1.0  0.63530  0.80760  0.64290  1.0000 -0.0095295896
C   C35       1.0  0.22400  0.17320  0.38040  1.0000 -0.1422759125
C   C36       1.0  0.77600  0.82680  0.61960  1.0000 -0.1422759125
C   C37       1.0  0.12950  0.19950  0.33130  1.0000 -0.0185135818
C   C38       1.0  0.87050  0.80050  0.66870  1.0000 -0.0185135818
C   C39       1.0  0.17610  0.24870  0.26060  1.0000 -0.2128422016
C   C40       1.0  0.82390  0.75130  0.73940  1.0000 -0.2128422016
C   C41       1.0  0.84650  0.06400  0.58720  1.0000 0.0801750107
C   C42       1.0  0.15350  0.93600  0.41280  1.0000 0.0801750107
C   C43       1.0  0.85570  0.03360  0.65980  1.0000 -0.1803483496
C   C44       1.0  0.14430  0.96640  0.34020  1.0000 -0.1803483496
C   C45       1.0  0.73300  0.01050  0.71150  1.0000 0.1191323635
C   C46       1.0  0.26700  0.98950  0.28850  1.0000 0.1191323635
C   C47       1.0  0.60560  0.01920  0.68700  1.0000 -0.1702248334
C   C48       1.0  0.39440  0.98080  0.31300  1.0000 -0.1702248334
C   C49       1.0  0.60560  0.04900  0.61530  1.0000 0.0801750107
C   C50       1.0  0.39440  0.95100  0.38470  1.0000 0.0801750107
C   C51       1.0  0.74280  0.97360  0.79120  1.0000 0.1094492359
C   C52       1.0  0.25720  0.02640  0.20880  1.0000 0.1094492359
C   C53       1.0  0.86850  0.96090  0.81550  1.0000 -0.1803483496
C   C54       1.0  0.13150  0.03910  0.18450  1.0000 -0.1702248334
C   C55       1.0  0.87020  0.93020  0.89010  1.0000 0.1032533517
C   C56       1.0  0.12980  0.06980  0.10990  1.0000 0.1032533517
C   C57       1.0  0.62760  0.92390  0.91550  1.0000 0.0696432313
C   C58       1.0  0.37240  0.07610  0.08450  1.0000 0.0696432313
C   C59       1.0  0.61990  0.95390  0.84360  1.0000 -0.1881825531
C   C60       1.0  0.38010  0.04610  0.15640  1.0000 -0.1881825531
C   C61       1.0  0.51530  0.28610  0.51820  1.0000 0.0696432313
C   C62       1.0  0.48470  0.71390  0.48180  1.0000 0.0696432313
C   C63       1.0  0.45490  0.37460  0.52540  1.0000 -0.1881825531
C   C64       1.0  0.54510  0.62540  0.47460  1.0000 -0.1881825531
C   C65       1.0  0.53130  0.45120  0.49630  1.0000 0.1094492359
C   C66       1.0  0.46870  0.54880  0.50370  1.0000 0.1094492359
C   C67       1.0  0.66830  0.43310  0.46090  1.0000 -0.1981058845
C   C68       1.0  0.33170  0.56690  0.53910  1.0000 -0.1981058845
C   C69       1.0  0.72170  0.34200  0.45500  1.0000 0.0696432313
C   C70       1.0  0.27830  0.65800  0.54500  1.0000 0.0696432313
C   C71       1.0  0.01230  0.83590  0.07860  1.0000 0.5564484766
C   C72       1.0  0.98770  0.16410  0.92140  1.0000 0.5564484766
C   C73       1.0  0.49040  0.82630  0.14780  1.0000 0.5499504676
C   C74       1.0  0.50960  0.17370  0.85220  1.0000 0.5499504676
C   C75       1.0  0.47140  0.15830  0.40870  1.0000 0.539577054
C   C76       1.0  0.52860  0.84170  0.59130  1.0000 0.539577054
C   C77       1.0  0.97830  0.17520  0.35570  1.0000 0.539577054
C   C78       1.0  0.02170  0.82480  0.64430  1.0000 0.539577054
C   C79       1.0  0.21090  0.43250  0.38610  1.0000 -0.4527690092
C   C80       1.0  0.78910  0.56750  0.61390  1.0000 -0.4527690092
C   C81       1.0  0.92160  0.70360  0.48570  1.0000 -0.4527690092
C   C82       1.0  0.07840  0.29640  0.51430  1.0000 -0.4527690092
C   C83       1.0  0.36330  0.57090  0.12670  1.0000 -0.431427134
C   C84       1.0  0.63670  0.42910  0.87330  1.0000 -0.431427134
C   C85       1.0  0.59670  0.29650  0.01520  1.0000 -0.4409606585
C   C86       1.0  0.40330  0.70350  0.98480  1.0000 -0.4409606585
N   N1        1.0  0.75040  0.91310  0.93927  1.0000 -0.2323097715
N   N2        1.0  0.24960  0.08690  0.06073  1.0000 -0.2323097715
N   N3        1.0  0.72130  0.07270  0.56402  1.0000 -0.2323097715
N   N4        1.0  0.27870  0.92730  0.43598  1.0000 -0.2323097715
N   N5        1.0  0.64520  0.26840  0.48070  1.0000 -0.2128422016
N   N6        1.0  0.35480  0.73160  0.51930  1.0000 -0.2128422016
N   N7        1.0  0.08200  0.67480  0.32450  1.0000 -0.3201644152
N   N8        1.0  0.91800  0.32520  0.67550  1.0000 -0.3137395809
N   N9        1.0  0.35800  0.32440  0.16540  1.0000 -0.3201644152
N   N10       1.0  0.64200  0.67560  0.83460  1.0000 -0.3201644152
O   O1        1.0  0.55700  0.82700  0.19437  1.0000 -0.5320740322
O   O2        1.0  0.44300  0.17300  0.80563  1.0000 -0.5320740322
O   O3        1.0  0.54580  0.84570  0.08072  1.0000 -0.5658914575
O   O4        1.0  0.45420  0.15430  0.91928  1.0000 -0.5658914575
O   O5        1.0  0.92860  0.15730  0.42250  1.0000 -0.5517605076
O   O6        1.0  0.07140  0.84270  0.57750  1.0000 -0.5517605076
O   O7        1.0  0.91260  0.17040  0.30953  1.0000 -0.5320740322
O   O8        1.0  0.08740  0.82960  0.69047  1.0000 -0.5320740322
O   O9        1.0  0.88560  0.80860  0.10006  1.0000 -0.5417474637
O   O10       1.0  0.11440  0.19140  0.89994  1.0000 -0.5417474637
O   O11       1.0  0.05360  0.88660  0.01749  1.0000 -0.555018259
O   O12       1.0  0.94640  0.11340  0.98251  1.0000 -0.555018259
O   O13       1.0  0.60100  0.17310  0.38072  1.0000 -0.5121935139
O   O14       1.0  0.39900  0.82690  0.61928  1.0000 -0.5121935139
O   O15       1.0  0.43330  0.11830  0.47328  1.0000 -0.555018259
O   O16       1.0  0.56670  0.88170  0.52672  1.0000 -0.555018259
