# DDEC6 charges by PACMAN v1.1 (https://github.com/mtap-research/PACMAN-charge/)
data_2014[Ni][fsc]3[ASR]1
_chemical_formula_sum              "Ni4 H48 C68 O26"
_cell_length_a       11.08
_cell_length_b       16.583
_cell_length_c       16.6
_cell_angle_alpha    68.533
_cell_angle_beta     89.208
_cell_angle_gamma    89.167

_symmetry_space_group_name_H-M    "P 1"
_symmetry_Int_Tables_number       1

loop_
  _symmetry_equiv_pos_as_xyz
  'x, y, z'

loop_
  _atom_site_type_symbol
  _atom_site_label
  _atom_site_symmetry_multiplicity
  _atom_site_fract_x
  _atom_site_fract_y
  _atom_site_fract_z
  _atom_site_occupancy
  _atom_site_charge
Ni  Ni1       1.0  0.64014  0.00459  0.49658  1.0000 0.9945463744
Ni  Ni2       1.0  0.35986  0.99541  0.50342  1.0000 0.9945463744
Ni  Ni3       1.0  0.49827  0.81226  0.50446  1.0000 1.0066165534
Ni  Ni4       1.0  0.50173  0.18774  0.49554  1.0000 1.0066165534
H   H1        1.0  0.18120  0.69350  0.48670  1.0000 0.129973352
H   H2        1.0  0.81880  0.30650  0.51330  1.0000 0.129973352
H   H3        1.0  0.44800  0.67610  0.77770  1.0000 0.1223889065
H   H4        1.0  0.55200  0.32390  0.22230  1.0000 0.1223889065
H   H5        1.0  0.06600  0.30790  0.65990  1.0000 0.1223889065
H   H6        1.0  0.93400  0.69210  0.34010  1.0000 0.1223889065
H   H7        1.0  0.08230  0.59190  0.64380  1.0000 0.1223889065
H   H8        1.0  0.91770  0.40810  0.35620  1.0000 0.1223889065
H   H9        1.0  0.33940  0.90650  0.77900  1.0000 0.1223889065
H   H10       1.0  0.66060  0.09350  0.22100  1.0000 0.1223889065
H   H11       1.0  0.38680  0.70760  0.00220  1.0000 0.1223889065
H   H12       1.0  0.61320  0.29240  0.99780  1.0000 0.1223889065
H   H13       1.0  0.76850  0.39270  0.01940  1.0000 0.1223889065
H   H14       1.0  0.23150  0.60730  0.98060  1.0000 0.1223889065
H   H15       1.0  0.64070  0.66830  0.84490  1.0000 0.1223889065
H   H16       1.0  0.35930  0.33170  0.15510  1.0000 0.1223889065
H   H17       1.0  0.86720  0.72420  0.68880  1.0000 0.129973352
H   H18       1.0  0.13280  0.27580  0.31120  1.0000 0.129973352
H   H19       1.0  0.79210  0.75080  0.75610  1.0000 0.129973352
H   H20       1.0  0.20790  0.24920  0.24390  1.0000 0.129973352
H   H21       1.0  0.73570  0.68960  0.71400  1.0000 0.129973352
H   H22       1.0  0.26430  0.31040  0.28600  1.0000 0.129973352
H   H23       1.0  0.26250  0.97110  0.93970  1.0000 0.3589127866
H   H24       1.0  0.73750  0.02890  0.06030  1.0000 0.3589127866
H   H25       1.0  0.22000  0.59750  0.74150  1.0000 0.129973352
H   H26       1.0  0.78000  0.40250  0.25850  1.0000 0.129973352
H   H27       1.0  0.20140  0.56470  0.84210  1.0000 0.129973352
H   H28       1.0  0.79860  0.43530  0.15790  1.0000 0.129973352
H   H29       1.0  0.08970  0.59290  0.78080  1.0000 0.1223889065
H   H30       1.0  0.91030  0.40710  0.21920  1.0000 0.1223889065
H   H31       1.0  0.06070  0.39240  0.95480  1.0000 0.129973352
H   H32       1.0  0.93930  0.60760  0.04520  1.0000 0.129973352
H   H33       1.0  0.93470  0.35430  0.94680  1.0000 0.129973352
H   H34       1.0  0.06530  0.64570  0.05320  1.0000 0.129973352
H   H35       1.0  0.95840  0.38690  0.02270  1.0000 0.1223889065
H   H36       1.0  0.04160  0.61310  0.97730  1.0000 0.1223889065
H   H37       1.0  0.17430  0.21790  0.77980  1.0000 0.1223889065
H   H38       1.0  0.82570  0.78210  0.22020  1.0000 0.1223889065
H   H39       1.0  0.03690  0.22590  0.79990  1.0000 0.129973352
H   H40       1.0  0.96310  0.77410  0.20010  1.0000 0.129973352
H   H41       1.0  0.13080  0.19920  0.87510  1.0000 0.129973352
H   H42       1.0  0.86920  0.80080  0.12490  1.0000 0.136608666
H   H43       1.0  0.81940  0.69160  0.49730  1.0000 0.129973352
H   H44       1.0  0.18060  0.30840  0.50270  1.0000 0.129973352
H   H45       1.0  0.99880  0.90510  0.48290  1.0000 0.136608666
H   H46       1.0  0.00120  0.09490  0.51710  1.0000 0.136608666
H   H47       1.0  0.50010  0.96150  0.40170  1.0000 0.4059829918
H   H48       1.0  0.49990  0.03850  0.59830  1.0000 0.4059829918
C   C1        1.0  0.10820  0.72170  0.48720  1.0000 -0.1635874602
C   C2        1.0  0.89180  0.27830  0.51280  1.0000 -0.1635874602
C   C3        1.0  0.03790  0.52040  0.57120  1.0000 0.0451240075
C   C4        1.0  0.96210  0.47960  0.42880  1.0000 0.042676792
C   C5        1.0  0.00210  0.58570  0.49640  1.0000 -0.0298624191
C   C6        1.0  0.99790  0.41430  0.50360  1.0000 -0.0298624191
C   C7        1.0  0.03510  0.43100  0.57610  1.0000 0.042676792
C   C8        1.0  0.96490  0.56900  0.42390  1.0000 0.042676792
C   C9        1.0  0.40810  0.83610  0.66680  1.0000 0.5907597748
C   C10       1.0  0.59190  0.16390  0.33320  1.0000 0.5907597748
C   C11       1.0  0.39510  0.79730  0.76300  1.0000 -0.0102787827
C   C12       1.0  0.60490  0.20270  0.23700  1.0000 -0.0102787827
C   C13       1.0  0.57850  0.55690  0.93980  1.0000 0.0451240075
C   C14       1.0  0.42150  0.44310  0.06020  1.0000 0.0451240075
C   C15       1.0  0.42540  0.71100  0.80840  1.0000 -0.1712257879
C   C16       1.0  0.57460  0.28900  0.19160  1.0000 -0.1712257879
C   C17       1.0  0.46060  0.58370  0.94920  1.0000 -0.0298624191
C   C18       1.0  0.53940  0.41630  0.05080  1.0000 -0.0298624191
C   C19       1.0  0.00040  0.67740  0.49210  1.0000 0.0723555071
C   C20       1.0  0.99960  0.32260  0.50790  1.0000 0.0723555071
C   C21       1.0  0.06960  0.36540  0.65540  1.0000 -0.2722905593
C   C22       1.0  0.93040  0.63460  0.34460  1.0000 -0.2722905593
C   C23       1.0  0.07880  0.53520  0.64570  1.0000 -0.2722905593
C   C24       1.0  0.92120  0.46480  0.35430  1.0000 -0.2722905593
C   C25       1.0  0.61870  0.47280  0.99180  1.0000 0.042676792
C   C26       1.0  0.38130  0.52720  0.00820  1.0000 0.042676792
C   C27       1.0  0.42290  0.67540  0.89770  1.0000 0.0723555071
C   C28       1.0  0.57710  0.32460  0.10230  1.0000 0.0723555071
C   C29       1.0  0.35900  0.84850  0.80890  1.0000 -0.1207629869
C   C30       1.0  0.64100  0.15150  0.19110  1.0000 -0.1207629869
C   C31       1.0  0.11260  0.47050  0.71850  1.0000 0.1622811762
C   C32       1.0  0.88740  0.52950  0.28150  1.0000 0.1622811762
C   C33       1.0  0.38700  0.72960  0.94200  1.0000 -0.1418141665
C   C34       1.0  0.61300  0.27040  0.05800  1.0000 -0.1418141665
C   C35       1.0  0.10700  0.38210  0.72410  1.0000 0.1676651967
C   C36       1.0  0.89300  0.61790  0.27590  1.0000 0.1676651967
C   C37       1.0  0.74100  0.44700  0.98330  1.0000 -0.289310539
C   C38       1.0  0.25900  0.55300  0.01670  1.0000 -0.289310539
C   C39       1.0  0.66360  0.61180  0.87810  1.0000 -0.289310539
C   C40       1.0  0.33640  0.38820  0.12190  1.0000 -0.289310539
C   C41       1.0  0.31260  0.86730  0.95050  1.0000 0.5371432809
C   C42       1.0  0.68740  0.13270  0.04950  1.0000 0.5371432809
C   C43       1.0  0.77540  0.58370  0.86730  1.0000 0.1622811762
C   C44       1.0  0.22460  0.41630  0.13270  1.0000 0.1622811762
C   C45       1.0  0.81720  0.50090  0.92310  1.0000 0.1622811762
C   C46       1.0  0.18280  0.49910  0.07690  1.0000 0.1622811762
C   C47       1.0  0.80880  0.70500  0.73500  1.0000 -0.2333488891
C   C48       1.0  0.19120  0.29500  0.26500  1.0000 -0.2333488891
C   C49       1.0  0.16790  0.56560  0.78880  1.0000 -0.2333488891
C   C50       1.0  0.83210  0.43440  0.21120  1.0000 -0.2333488891
C   C51       1.0  0.97530  0.39680  0.96300  1.0000 -0.2333488891
C   C52       1.0  0.02470  0.60320  0.03700  1.0000 -0.2333488891
C   C53       1.0  0.35160  0.81530  0.89830  1.0000 -0.0298624191
C   C54       1.0  0.64840  0.18470  0.10170  1.0000 -0.0298624191
C   C55       1.0  0.11760  0.23430  0.81540  1.0000 -0.2333488891
C   C56       1.0  0.88240  0.76570  0.18460  1.0000 -0.2333488891
C   C57       1.0  0.89180  0.72040  0.49380  1.0000 -0.1712257879
C   C58       1.0  0.10820  0.27960  0.50620  1.0000 -0.1712257879
C   C59       1.0  0.88960  0.80550  0.49020  1.0000 -0.0298624191
C   C60       1.0  0.11040  0.19450  0.50980  1.0000 -0.0298624191
C   C61       1.0  0.99940  0.84820  0.48500  1.0000 -0.1207629869
C   C62       1.0  0.00060  0.15180  0.51500  1.0000 -0.1207629869
C   C63       1.0  0.10890  0.80730  0.48310  1.0000 -0.0224587068
C   C64       1.0  0.89110  0.19270  0.51690  1.0000 -0.0224587068
C   C65       1.0  0.77100  0.84820  0.49290  1.0000 0.577619454
C   C66       1.0  0.22900  0.15180  0.50710  1.0000 0.577619454
C   C67       1.0  0.22590  0.85060  0.48200  1.0000 0.5907597748
C   C68       1.0  0.77410  0.14940  0.51800  1.0000 0.5907597748
O   O1        1.0  0.35680  0.90845  0.62862  1.0000 -0.5300541612
O   O2        1.0  0.64320  0.09155  0.37138  1.0000 -0.5300541612
O   O3        1.0  0.85730  0.62830  0.80650  1.0000 -0.1478899213
O   O4        1.0  0.14270  0.37170  0.19350  1.0000 -0.1478899213
O   O5        1.0  0.15700  0.47900  0.79150  1.0000 -0.1323119345
O   O6        1.0  0.84300  0.52100  0.20850  1.0000 -0.1323119345
O   O7        1.0  0.93350  0.48190  0.91000  1.0000 -0.1323119345
O   O8        1.0  0.06650  0.51810  0.09000  1.0000 -0.1323119345
O   O9        1.0  0.31890  0.80585  0.48530  1.0000 -0.5821504387
O   O10       1.0  0.68110  0.19415  0.51470  1.0000 -0.5821504387
O   O11       1.0  0.13350  0.32280  0.80290  1.0000 -0.1207629869
O   O12       1.0  0.86650  0.67720  0.19710  1.0000 -0.1207629869
O   O13       1.0  0.28310  0.94700  0.90650  1.0000 -0.4940025302
O   O14       1.0  0.71690  0.05300  0.09350  1.0000 -0.5012130531
O   O15       1.0  0.30090  0.83410  0.02900  1.0000 -0.5064769181
O   O16       1.0  0.69910  0.16590  0.97100  1.0000 -0.5064769181
O   O17       1.0  0.47010  0.79492  0.63160  1.0000 -0.546436766
O   O18       1.0  0.52990  0.20508  0.36840  1.0000 -0.546436766
O   O19       1.0  0.50240  0.93993  0.46513  1.0000 -0.893035272
O   O20       1.0  0.49760  0.06007  0.53487  1.0000 -0.893035272
O   O21       1.0  0.22330  0.92800  0.47540  1.0000 -0.5300541612
O   O22       1.0  0.77670  0.07200  0.52460  1.0000 -0.5300541612
O   O23       1.0  0.76990  0.93023  0.46610  1.0000 -0.5300541612
O   O24       1.0  0.23010  0.06977  0.53390  1.0000 -0.5300541612
O   O25       1.0  0.68290  0.79949  0.52400  1.0000 -0.5821504387
O   O26       1.0  0.31710  0.20051  0.47600  1.0000 -0.5821504387
