# DDEC6 charges by PACMAN v1.1 (https://github.com/mtap-research/PACMAN-charge/)
data_2014[Co][nan]3[ASR]22
_chemical_formula_sum              "Co6 H6 C24 O18"
_cell_length_a       15.0901
_cell_length_b       15.0901
_cell_length_c       15.0901
_cell_angle_alpha    117.797
_cell_angle_beta     117.797
_cell_angle_gamma    117.797

_symmetry_space_group_name_H-M    "P 1"
_symmetry_Int_Tables_number       1

loop_
  _symmetry_equiv_pos_as_xyz
  'x, y, z'

loop_
  _atom_site_type_symbol
  _atom_site_label
  _atom_site_symmetry_multiplicity
  _atom_site_fract_x
  _atom_site_fract_y
  _atom_site_fract_z
  _atom_site_occupancy
  _atom_site_charge
Co  Co1       1.0  0.88850  0.18290  0.60560  1.0000 0.9821498594
Co  Co2       1.0  0.18290  0.60560  0.88850  1.0000 0.9821498594
Co  Co3       1.0  0.60560  0.88850  0.18290  1.0000 0.9821498594
Co  Co4       1.0  0.18290  0.88850  0.60560  1.0000 0.9821498594
Co  Co5       1.0  0.88850  0.60560  0.18290  1.0000 0.9821498594
Co  Co6       1.0  0.60560  0.18290  0.88850  1.0000 0.9821498594
H   H1        1.0  0.74820  0.26460  0.74820  1.0000 0.1480482024
H   H2        1.0  0.26460  0.74820  0.74820  1.0000 0.1480482024
H   H3        1.0  0.74820  0.74820  0.26460  1.0000 0.1480482024
H   H4        1.0  0.47705  0.90090  0.47705  1.0000 0.1127464127
H   H5        1.0  0.90090  0.47705  0.47705  1.0000 0.1127464127
H   H6        1.0  0.47705  0.47705  0.90090  1.0000 0.1127464127
C   C1        1.0  0.05700  0.49530  0.96170  1.0000 0.3759192826
C   C2        1.0  0.49530  0.96170  0.05700  1.0000 0.3759192826
C   C3        1.0  0.96170  0.05700  0.49530  1.0000 0.3759192826
C   C4        1.0  0.49530  0.05700  0.96170  1.0000 0.3759192826
C   C5        1.0  0.05700  0.96170  0.49530  1.0000 0.3759192826
C   C6        1.0  0.96170  0.49530  0.05700  1.0000 0.3759192826
C   C7        1.0  0.91475  0.41150  0.91475  1.0000 -0.3364204664
C   C8        1.0  0.41150  0.91475  0.91475  1.0000 -0.3364204664
C   C9        1.0  0.91475  0.91475  0.41150  1.0000 -0.3364204664
C   C10       1.0  0.27230  0.68520  0.17840  1.0000 -0.2212080234
C   C11       1.0  0.68520  0.17840  0.27230  1.0000 -0.2212080234
C   C12       1.0  0.17840  0.27230  0.68520  1.0000 -0.2212080234
C   C13       1.0  0.68520  0.27230  0.17840  1.0000 -0.2212080234
C   C14       1.0  0.27230  0.17840  0.68520  1.0000 -0.2212080234
C   C15       1.0  0.17840  0.68520  0.27230  1.0000 -0.2212080234
C   C16       1.0  0.44080  0.79610  0.25510  1.0000 0.6201544405
C   C17       1.0  0.79610  0.25510  0.44080  1.0000 0.6201544405
C   C18       1.0  0.25510  0.44080  0.79610  1.0000 0.6201544405
C   C19       1.0  0.79610  0.44080  0.25510  1.0000 0.6201544405
C   C20       1.0  0.44080  0.25510  0.79610  1.0000 0.6201544405
C   C21       1.0  0.25510  0.79610  0.44080  1.0000 0.6201544405
C   C22       1.0  0.31075  0.75350  0.31075  1.0000 -0.0146604899
C   C23       1.0  0.75350  0.31075  0.31075  1.0000 -0.0146604899
C   C24       1.0  0.31075  0.31075  0.75350  1.0000 -0.0146604899
O   O1        1.0  0.00310  0.41760  0.82210  1.0000 -0.5806925196
O   O2        1.0  0.41760  0.82210  0.00310  1.0000 -0.5806925196
O   O3        1.0  0.82210  0.00310  0.41760  1.0000 -0.5806925196
O   O4        1.0  0.41760  0.00310  0.82210  1.0000 -0.5806925196
O   O5        1.0  0.00310  0.82210  0.41760  1.0000 -0.5806925196
O   O6        1.0  0.82210  0.41760  0.00310  1.0000 -0.5806925196
O   O7        1.0  0.40170  0.73940  0.12800  1.0000 -0.6118866601
O   O8        1.0  0.73940  0.12800  0.40170  1.0000 -0.6118866601
O   O9        1.0  0.12800  0.40170  0.73940  1.0000 -0.6118866601
O   O10       1.0  0.73940  0.40170  0.12800  1.0000 -0.6118866601
O   O11       1.0  0.40170  0.12800  0.73940  1.0000 -0.6118866601
O   O12       1.0  0.12800  0.73940  0.40170  1.0000 -0.6118866601
O   O13       1.0  0.61220  0.93870  0.44000  1.0000 -0.5192932088
O   O14       1.0  0.93870  0.44000  0.61220  1.0000 -0.5192932088
O   O15       1.0  0.44000  0.61220  0.93870  1.0000 -0.5192932088
O   O16       1.0  0.93870  0.61220  0.44000  1.0000 -0.5192932088
O   O17       1.0  0.61220  0.44000  0.93870  1.0000 -0.5192932088
O   O18       1.0  0.44000  0.93870  0.61220  1.0000 -0.5192932088
