# DDEC6 charges by PACMAN v1.1 (https://github.com/mtap-research/PACMAN-charge/)
data_2014[Cd][nan]3[ASR]2
_chemical_formula_sum              "Cd4 H44 C56 N8 O16"
_cell_length_a       11.4412
_cell_length_b       11.4412
_cell_length_c       12.1024
_cell_angle_alpha    74.8834
_cell_angle_beta     105.117
_cell_angle_gamma    91.2454

_symmetry_space_group_name_H-M    "P 1"
_symmetry_Int_Tables_number       1

loop_
  _symmetry_equiv_pos_as_xyz
  'x, y, z'

loop_
  _atom_site_type_symbol
  _atom_site_label
  _atom_site_symmetry_multiplicity
  _atom_site_fract_x
  _atom_site_fract_y
  _atom_site_fract_z
  _atom_site_occupancy
  _atom_site_charge
Cd  Cd1       1.0  0.33131  0.30749  0.40821  1.0000 0.8809243005
Cd  Cd2       1.0  0.30749  0.33131  0.09179  1.0000 0.8809243005
Cd  Cd3       1.0  0.66869  0.69251  0.59179  1.0000 0.8809243005
Cd  Cd4       1.0  0.69251  0.66869  0.90821  1.0000 0.8809243005
H   H1        1.0  0.56450  0.39270  0.42400  1.0000 0.3028044414
H   H2        1.0  0.39270  0.56450  0.07600  1.0000 0.3028044414
H   H3        1.0  0.43550  0.60730  0.57600  1.0000 0.3028044414
H   H4        1.0  0.60730  0.43550  0.92400  1.0000 0.3028044414
H   H5        1.0  0.56480  0.28480  0.38200  1.0000 0.3060474556
H   H6        1.0  0.28480  0.56480  0.11800  1.0000 0.3060474556
H   H7        1.0  0.43520  0.71520  0.61800  1.0000 0.3060474556
H   H8        1.0  0.71520  0.43520  0.88200  1.0000 0.3060474556
H   H9        1.0  0.28440  0.04820  0.57130  1.0000 0.1114928759
H   H10       1.0  0.04820  0.28440  0.92870  1.0000 0.1114928759
H   H11       1.0  0.71560  0.95180  0.42870  1.0000 0.1114928759
H   H12       1.0  0.95180  0.71560  0.07130  1.0000 0.1114928759
H   H13       1.0  0.42190  0.33130  0.66750  1.0000 0.1114928759
H   H14       1.0  0.33130  0.42190  0.83250  1.0000 0.1114928759
H   H15       1.0  0.57810  0.66870  0.33250  1.0000 0.1114928759
H   H16       1.0  0.66870  0.57810  0.16750  1.0000 0.1114928759
H   H17       1.0  0.33200  0.93520  0.76590  1.0000 0.1322567381
H   H18       1.0  0.93520  0.33200  0.73410  1.0000 0.1322567381
H   H19       1.0  0.66800  0.06480  0.23410  1.0000 0.1322567381
H   H20       1.0  0.06480  0.66800  0.26590  1.0000 0.1322567381
H   H21       1.0  0.47260  0.22560  0.86280  1.0000 0.1372740411
H   H22       1.0  0.22560  0.47260  0.63720  1.0000 0.1372740411
H   H23       1.0  0.52740  0.77440  0.13720  1.0000 0.1372740411
H   H24       1.0  0.77440  0.52740  0.36280  1.0000 0.1372740411
H   H25       1.0  0.58520  0.08380  0.52140  1.0000 0.1372740411
H   H26       1.0  0.08380  0.58520  0.97860  1.0000 0.1372740411
H   H27       1.0  0.41480  0.91620  0.47860  1.0000 0.1372740411
H   H28       1.0  0.91620  0.41480  0.02140  1.0000 0.1372740411
H   H29       1.0  0.75690  0.27550  0.81360  1.0000 0.1114928759
H   H30       1.0  0.27550  0.75690  0.68640  1.0000 0.1114928759
H   H31       1.0  0.24310  0.72450  0.18640  1.0000 0.1114928759
H   H32       1.0  0.72450  0.24310  0.31360  1.0000 0.1114928759
H   H33       1.0  0.76040  0.06720  0.86040  1.0000 0.1192341756
H   H34       1.0  0.06720  0.76040  0.63960  1.0000 0.1192341756
H   H35       1.0  0.23960  0.93280  0.13960  1.0000 0.1192341756
H   H36       1.0  0.93280  0.23960  0.36040  1.0000 0.1192341756
H   H37       1.0  0.41860  0.91440  0.97330  1.0000 0.1192341756
H   H38       1.0  0.91440  0.41860  0.52670  1.0000 0.1192341756
H   H39       1.0  0.58140  0.08560  0.02670  1.0000 0.1192341756
H   H40       1.0  0.08560  0.58140  0.47330  1.0000 0.1192341756
H   H41       1.0  0.38670  0.03090  0.00660  1.0000 0.1322567381
H   H42       1.0  0.03090  0.38670  0.49340  1.0000 0.1322567381
H   H43       1.0  0.61330  0.96910  0.99340  1.0000 0.1322567381
H   H44       1.0  0.96910  0.61330  0.50660  1.0000 0.1322567381
C   C1        1.0  0.66853  0.44373  0.61380  1.0000 0.5492426318
C   C2        1.0  0.44373  0.66853  0.88620  1.0000 0.5492426318
C   C3        1.0  0.33147  0.55627  0.38620  1.0000 0.5492426318
C   C4        1.0  0.55627  0.33147  0.11380  1.0000 0.5492426318
C   C5        1.0  0.32270  0.08470  0.63060  1.0000 0.0847905811
C   C6        1.0  0.08470  0.32270  0.86940  1.0000 0.0847905811
C   C7        1.0  0.67730  0.91530  0.36940  1.0000 0.0847905811
C   C8        1.0  0.91530  0.67730  0.13060  1.0000 0.0847905811
C   C9        1.0  0.40330  0.25030  0.68730  1.0000 0.0747160178
C   C10       1.0  0.25030  0.40330  0.81270  1.0000 0.0747160178
C   C11       1.0  0.59670  0.74970  0.31270  1.0000 0.0747160178
C   C12       1.0  0.74970  0.59670  0.18730  1.0000 0.0747160178
C   C13       1.0  0.61460  0.24900  0.55170  1.0000 0.2309582059
C   C14       1.0  0.24900  0.61460  0.94830  1.0000 0.2309582059
C   C15       1.0  0.38540  0.75100  0.44830  1.0000 0.2309582059
C   C16       1.0  0.75100  0.38540  0.05170  1.0000 0.2309582059
C   C17       1.0  0.66913  0.30833  0.63910  1.0000 -0.1432801138
C   C18       1.0  0.30833  0.66913  0.86090  1.0000 -0.1432801138
C   C19       1.0  0.33087  0.69167  0.36090  1.0000 -0.1432801138
C   C20       1.0  0.69167  0.33087  0.13910  1.0000 -0.1432801138
C   C21       1.0  0.35090  0.01630  0.74790  1.0000 -0.1968423713
C   C22       1.0  0.01630  0.35090  0.75210  1.0000 -0.1968423713
C   C23       1.0  0.64910  0.98370  0.25210  1.0000 -0.1968423713
C   C24       1.0  0.98370  0.64910  0.24790  1.0000 -0.1968423713
C   C25       1.0  0.43370  0.18730  0.80520  1.0000 -0.1968423713
C   C26       1.0  0.18730  0.43370  0.69480  1.0000 -0.1968423713
C   C27       1.0  0.56630  0.81270  0.19480  1.0000 -0.1968423713
C   C28       1.0  0.81270  0.56630  0.30520  1.0000 -0.1968423713
C   C29       1.0  0.61890  0.12270  0.58000  1.0000 -0.2266787614
C   C30       1.0  0.12270  0.61890  0.92000  1.0000 -0.2266787614
C   C31       1.0  0.38110  0.87730  0.42000  1.0000 -0.2266787614
C   C32       1.0  0.87730  0.38110  0.08000  1.0000 -0.2266787614
C   C33       1.0  0.72230  0.23730  0.75470  1.0000 -0.1214473534
C   C34       1.0  0.23730  0.72230  0.74530  1.0000 -0.1214473534
C   C35       1.0  0.27770  0.76270  0.24530  1.0000 -0.1214473534
C   C36       1.0  0.76270  0.27770  0.25470  1.0000 -0.1214473534
C   C37       1.0  0.40680  0.06800  0.83800  1.0000 0.1771141004
C   C38       1.0  0.06800  0.40680  0.66200  1.0000 0.1771141004
C   C39       1.0  0.59320  0.93200  0.16200  1.0000 0.1771141004
C   C40       1.0  0.93200  0.59320  0.33800  1.0000 0.1771141004
C   C41       1.0  0.67310  0.05390  0.69530  1.0000 -0.0013705329
C   C42       1.0  0.05390  0.67310  0.80470  1.0000 -0.0013705329
C   C43       1.0  0.32690  0.94610  0.30470  1.0000 -0.0013705329
C   C44       1.0  0.94610  0.32690  0.19530  1.0000 -0.0013705329
C   C45       1.0  0.72470  0.11230  0.78320  1.0000 -0.1338796492
C   C46       1.0  0.11230  0.72470  0.71680  1.0000 -0.1338796492
C   C47       1.0  0.27530  0.88770  0.21680  1.0000 -0.1338796492
C   C48       1.0  0.88770  0.27530  0.28320  1.0000 -0.1338796492
C   C49       1.0  0.43790  0.99830  0.96800  1.0000 -0.2266787614
C   C50       1.0  0.99830  0.43790  0.53200  1.0000 -0.2266787614
C   C51       1.0  0.56210  0.00170  0.03200  1.0000 -0.2266787614
C   C52       1.0  0.00170  0.56210  0.46800  1.0000 -0.2266787614
C   C53       1.0  0.67350  0.91670  0.72640  1.0000 0.5782998961
C   C54       1.0  0.91670  0.67350  0.77360  1.0000 0.5782998961
C   C55       1.0  0.32650  0.08330  0.27360  1.0000 0.5782998961
C   C56       1.0  0.08330  0.32650  0.22640  1.0000 0.5782998961
N   N1        1.0  0.34839  0.20121  0.60000  1.0000 -0.248840871
N   N2        1.0  0.20121  0.34839  0.90000  1.0000 -0.248840871
N   N3        1.0  0.65161  0.79879  0.40000  1.0000 -0.248840871
N   N4        1.0  0.79879  0.65161  0.10000  1.0000 -0.248840871
N   N5        1.0  0.54458  0.31466  0.43670  1.0000 -0.5996782619
N   N6        1.0  0.31466  0.54458  0.06330  1.0000 -0.5996782619
N   N7        1.0  0.45542  0.68534  0.56330  1.0000 -0.5996782619
N   N8        1.0  0.68534  0.45542  0.93670  1.0000 -0.5996782619
O   O1        1.0  0.65015  0.50805  0.50888  1.0000 -0.5484302256
O   O2        1.0  0.50805  0.65015  0.99112  1.0000 -0.5484302256
O   O3        1.0  0.34985  0.49195  0.49112  1.0000 -0.5484302256
O   O4        1.0  0.49195  0.34985  0.00888  1.0000 -0.5484302256
O   O5        1.0  0.68566  0.49084  0.69930  1.0000 -0.5404103536
O   O6        1.0  0.49084  0.68566  0.80070  1.0000 -0.5404103536
O   O7        1.0  0.31434  0.50916  0.30070  1.0000 -0.5404103536
O   O8        1.0  0.50916  0.31434  0.19930  1.0000 -0.5404103536
O   O9        1.0  0.63536  0.86746  0.64350  1.0000 -0.5640963155
O   O10       1.0  0.86746  0.63536  0.85650  1.0000 -0.5640963155
O   O11       1.0  0.36464  0.13254  0.35650  1.0000 -0.5640963155
O   O12       1.0  0.13254  0.36464  0.14350  1.0000 -0.5640963155
O   O13       1.0  0.71091  0.86327  0.83510  1.0000 -0.5484302256
O   O14       1.0  0.86327  0.71091  0.66490  1.0000 -0.5484302256
O   O15       1.0  0.28909  0.13673  0.16490  1.0000 -0.5484302256
O   O16       1.0  0.13673  0.28909  0.33510  1.0000 -0.5484302256
