# DDEC6 charges by PACMAN v1.1 (https://github.com/mtap-research/PACMAN-charge/)
data_2014[Zn][dia]3[ASR]3
_chemical_formula_sum              "Zn2 H24 C36 N12 O8"
_cell_length_a       7.6033
_cell_length_b       9.352
_cell_length_c       15.193
_cell_angle_alpha    89.33
_cell_angle_beta     99.43
_cell_angle_gamma    94.103

_symmetry_space_group_name_H-M    "P 1"
_symmetry_Int_Tables_number       1

loop_
  _symmetry_equiv_pos_as_xyz
  'x, y, z'

loop_
  _atom_site_type_symbol
  _atom_site_label
  _atom_site_symmetry_multiplicity
  _atom_site_fract_x
  _atom_site_fract_y
  _atom_site_fract_z
  _atom_site_occupancy
  _atom_site_charge
Zn  Zn1       1.0  0.10546  0.62017  0.76330  1.0000 0.7615280287
Zn  Zn2       1.0  0.89454  0.37983  0.23670  1.0000 0.7615280287
H   H1        1.0  0.09900  0.22630  0.05340  1.0000 0.1287202225
H   H2        1.0  0.90100  0.77370  0.94660  1.0000 0.1287202225
H   H3        1.0  0.86730  0.97090  0.85320  1.0000 0.1197842908
H   H4        1.0  0.13270  0.02910  0.14680  1.0000 0.1197842908
H   H5        1.0  0.16680  0.37830  0.92380  1.0000 0.1393806608
H   H6        1.0  0.83320  0.62170  0.07620  1.0000 0.1393806608
H   H7        1.0  0.72790  0.18360  0.79890  1.0000 0.1197842908
H   H8        1.0  0.27210  0.81640  0.20110  1.0000 0.1197842908
H   H9        1.0  0.48250  0.05210  0.64740  1.0000 0.1393806608
H   H10       1.0  0.51750  0.94790  0.35260  1.0000 0.1393806608
H   H11       1.0  0.66070  0.81110  0.46980  1.0000 0.1393806608
H   H12       1.0  0.33930  0.18890  0.53020  1.0000 0.1393806608
H   H13       1.0  0.90780  0.79980  0.59890  1.0000 0.1393806608
H   H14       1.0  0.09220  0.20020  0.40110  1.0000 0.1393806608
H   H15       1.0  0.51020  0.81340  0.73220  1.0000 0.1287202225
H   H16       1.0  0.48980  0.18660  0.26780  1.0000 0.1287202225
H   H17       1.0  0.43520  0.76260  0.03190  1.0000 0.1143098684
H   H18       1.0  0.56480  0.23740  0.96810  1.0000 0.1143098684
H   H19       1.0  0.59500  0.91250  0.14050  1.0000 0.1197842908
H   H20       1.0  0.40500  0.08750  0.85950  1.0000 0.1197842908
H   H21       1.0  0.23650  0.59300  0.43420  1.0000 0.1197842908
H   H22       1.0  0.76350  0.40700  0.56580  1.0000 0.1197842908
H   H23       1.0  0.43800  0.52430  0.34700  1.0000 0.1143098684
H   H24       1.0  0.56200  0.47570  0.65300  1.0000 0.1143098684
C   C1        1.0  0.98000  0.11690  0.94520  1.0000 0.1393806608
C   C2        1.0  0.02000  0.88310  0.05480  1.0000 0.1393806608
C   C3        1.0  0.05890  0.13510  0.03180  1.0000 -0.1486185256
C   C4        1.0  0.94110  0.86490  0.96820  1.0000 -0.1486185256
C   C5        1.0  0.92080  0.98260  0.91250  1.0000 -0.1486185256
C   C6        1.0  0.07920  0.01740  0.08750  1.0000 -0.1486185256
C   C7        1.0  0.06310  0.35650  0.88320  1.0000 0.1197842908
C   C8        1.0  0.93690  0.64350  0.11680  1.0000 0.1143098684
C   C9        1.0  0.82400  0.25080  0.81450  1.0000 0.089368897
C   C10       1.0  0.17600  0.74920  0.18550  1.0000 0.089368897
C   C11       1.0  0.58310  0.92030  0.56700  1.0000 0.1519812704
C   C12       1.0  0.41690  0.07970  0.43300  1.0000 0.1519812704
C   C13       1.0  0.48920  0.03160  0.58830  1.0000 -0.1486185256
C   C14       1.0  0.51080  0.96840  0.41170  1.0000 -0.1486185256
C   C15       1.0  0.59590  0.88720  0.48160  1.0000 -0.1437264247
C   C16       1.0  0.40410  0.11280  0.51840  1.0000 -0.1437264247
C   C17       1.0  0.83610  0.78630  0.64280  1.0000 0.1197842908
C   C18       1.0  0.16390  0.21370  0.35720  1.0000 0.1197842908
C   C19       1.0  0.61840  0.79250  0.71610  1.0000 0.089368897
C   C20       1.0  0.38160  0.20750  0.28390  1.0000 0.089368897
C   C21       1.0  0.40350  0.90910  0.93440  1.0000 -0.0028770385
C   C22       1.0  0.59650  0.09090  0.06560  1.0000 -0.0028770385
C   C23       1.0  0.46090  0.85830  0.01850  1.0000 -0.1303618117
C   C24       1.0  0.53910  0.14170  0.98150  1.0000 -0.1303618117
C   C25       1.0  0.55690  0.94850  0.08370  1.0000 -0.1303618117
C   C26       1.0  0.44310  0.05150  0.91630  1.0000 -0.1303618117
C   C27       1.0  0.29760  0.81100  0.86220  1.0000 0.5344072716
C   C28       1.0  0.70240  0.18900  0.13780  1.0000 0.5344072716
C   C29       1.0  0.37870  0.54240  0.55210  1.0000 -0.0214724096
C   C30       1.0  0.62130  0.45760  0.44790  1.0000 -0.0214724096
C   C31       1.0  0.34250  0.55580  0.46100  1.0000 -0.1129295541
C   C32       1.0  0.65750  0.44420  0.53900  1.0000 -0.1129295541
C   C33       1.0  0.46310  0.51430  0.40860  1.0000 -0.1189466207
C   C34       1.0  0.53690  0.48570  0.59140  1.0000 -0.1189466207
C   C35       1.0  0.24860  0.59380  0.60780  1.0000 0.5518263118
C   C36       1.0  0.75140  0.40620  0.39220  1.0000 0.5518263118
N   N1        1.0  0.00300  0.43830  0.81730  1.0000 -0.1795974834
N   N2        1.0  0.99700  0.56170  0.18270  1.0000 -0.1795974834
N   N3        1.0  0.84740  0.36940  0.77130  1.0000 -0.1897714003
N   N4        1.0  0.15260  0.63060  0.22870  1.0000 -0.1897714003
N   N5        1.0  0.95620  0.23630  0.88520  1.0000 -0.0214724096
N   N6        1.0  0.04380  0.76370  0.11480  1.0000 -0.0214724096
N   N7        1.0  0.87730  0.71410  0.71710  1.0000 -0.1795974834
N   N8        1.0  0.12270  0.28590  0.28290  1.0000 -0.1795974834
N   N9        1.0  0.73650  0.71590  0.76440  1.0000 -0.2132360204
N   N10       1.0  0.26350  0.28410  0.23560  1.0000 -0.2132360204
N   N11       1.0  0.67550  0.83730  0.63960  1.0000 -0.0276316306
N   N12       1.0  0.32450  0.16270  0.36040  1.0000 -0.0276316306
O   O1        1.0  0.25550  0.86230  0.78640  1.0000 -0.5471489741
O   O2        1.0  0.74450  0.13770  0.21360  1.0000 -0.5471489741
O   O3        1.0  0.25680  0.68550  0.88140  1.0000 -0.5260984166
O   O4        1.0  0.74320  0.31450  0.11860  1.0000 -0.5260984166
O   O5        1.0  0.26060  0.54580  0.68740  1.0000 -0.5471489741
O   O6        1.0  0.73940  0.45420  0.31260  1.0000 -0.5471489741
O   O7        1.0  0.14310  0.68000  0.57780  1.0000 -0.5391786559
O   O8        1.0  0.85690  0.32000  0.42220  1.0000 -0.5391786559
