# DDEC6 charges by PACMAN v1.1 (https://github.com/mtap-research/PACMAN-charge/)
data_2014[Cu][dia]3[ASR]7
_chemical_formula_sum              "Cu8 H80 C96 N28 O18"
_cell_length_a       20.7004
_cell_length_b       18.1264
_cell_length_c       14.3869
_cell_angle_alpha    78.1571
_cell_angle_beta     58.9828
_cell_angle_gamma    42.8601

_symmetry_space_group_name_H-M    "P 1"
_symmetry_Int_Tables_number       1

loop_
  _symmetry_equiv_pos_as_xyz
  'x, y, z'

loop_
  _atom_site_type_symbol
  _atom_site_label
  _atom_site_symmetry_multiplicity
  _atom_site_fract_x
  _atom_site_fract_y
  _atom_site_fract_z
  _atom_site_occupancy
  _atom_site_charge
Cu  Cu1       1.0  0.82991  0.60081  0.77145  1.0000 0.7761363839
Cu  Cu2       1.0  0.60081  0.82991  0.79783  1.0000 0.7761363839
Cu  Cu3       1.0  0.77145  0.79783  0.82991  1.0000 0.7761363839
Cu  Cu4       1.0  0.79783  0.77145  0.60081  1.0000 0.7761363839
Cu  Cu5       1.0  0.42009  0.64919  0.47855  1.0000 0.7761363839
Cu  Cu6       1.0  0.64919  0.42009  0.45217  1.0000 0.7746471122
Cu  Cu7       1.0  0.47855  0.45217  0.42009  1.0000 0.7761363839
Cu  Cu8       1.0  0.45217  0.47855  0.64919  1.0000 0.7746471122
H   H1        1.0  0.70320  0.54380  0.61400  1.0000 0.1412880171
H   H2        1.0  0.54380  0.70320  0.13900  1.0000 0.1412880171
H   H3        1.0  0.61400  0.13900  0.70320  1.0000 0.1412880171
H   H4        1.0  0.13900  0.61400  0.54380  1.0000 0.1412880171
H   H5        1.0  0.54680  0.70620  0.63600  1.0000 0.1412880171
H   H6        1.0  0.70620  0.54680  0.11100  1.0000 0.1412880171
H   H7        1.0  0.63600  0.11100  0.54680  1.0000 0.1412880171
H   H8        1.0  0.11100  0.63600  0.70620  1.0000 0.1412880171
H   H9        1.0  0.79050  0.53750  0.51270  1.0000 0.1412880171
H   H10       1.0  0.53750  0.79050  0.15930  1.0000 0.1412880171
H   H11       1.0  0.51270  0.15930  0.79050  1.0000 0.1412880171
H   H12       1.0  0.15930  0.51270  0.53750  1.0000 0.1412880171
H   H13       1.0  0.45950  0.71250  0.73730  1.0000 0.1412880171
H   H14       1.0  0.71250  0.45950  0.09070  1.0000 0.1412880171
H   H15       1.0  0.73730  0.09070  0.45950  1.0000 0.1412880171
H   H16       1.0  0.09070  0.73730  0.71250  1.0000 0.1412880171
H   H17       1.0  0.76430  0.38810  0.66650  1.0000 0.1096659286
H   H18       1.0  0.38810  0.76430  0.18110  1.0000 0.1096659286
H   H19       1.0  0.66650  0.18110  0.76430  1.0000 0.1096659286
H   H20       1.0  0.18110  0.66650  0.38810  1.0000 0.1096659286
H   H21       1.0  0.48570  0.86190  0.58350  1.0000 0.1096659286
H   H22       1.0  0.86190  0.48570  0.06890  1.0000 0.1096659286
H   H23       1.0  0.58350  0.06890  0.48570  1.0000 0.1096659286
H   H24       1.0  0.06890  0.58350  0.86190  1.0000 0.1096659286
H   H25       1.0  0.98730  0.38270  0.47190  1.0000 0.1198892499
H   H26       1.0  0.38270  0.98730  0.15810  1.0000 0.1198892499
H   H27       1.0  0.47190  0.15810  0.98730  1.0000 0.1198892499
H   H28       1.0  0.15810  0.47190  0.38270  1.0000 0.1198892499
H   H29       1.0  0.26270  0.86730  0.77810  1.0000 0.1198892499
H   H30       1.0  0.86730  0.26270  0.09190  1.0000 0.1198892499
H   H31       1.0  0.77810  0.09190  0.26270  1.0000 0.1198892499
H   H32       1.0  0.09190  0.77810  0.86730  1.0000 0.1198892499
H   H33       1.0  0.90540  0.19780  0.64700  1.0000 0.1261520192
H   H34       1.0  0.19780  0.90540  0.24980  1.0000 0.1261520192
H   H35       1.0  0.64700  0.24980  0.90540  1.0000 0.1261520192
H   H36       1.0  0.24980  0.64700  0.19780  1.0000 0.1261520192
H   H37       1.0  0.34460  0.05220  0.60300  1.0000 0.1261520192
H   H38       1.0  0.05220  0.34460  0.00020  1.0000 0.1261520192
H   H39       1.0  0.60300  0.00020  0.34460  1.0000 0.1261520192
H   H40       1.0  0.00020  0.60300  0.05220  1.0000 0.1261520192
H   H41       1.0  0.13220  0.19360  0.44700  1.0000 0.1198892499
H   H42       1.0  0.19360  0.13220  0.22720  1.0000 0.1198892499
H   H43       1.0  0.44700  0.22720  0.13220  1.0000 0.1198892499
H   H44       1.0  0.22720  0.44700  0.19360  1.0000 0.1198892499
H   H45       1.0  0.11780  0.05640  0.80300  1.0000 0.1198892499
H   H46       1.0  0.05640  0.11780  0.02280  1.0000 0.1198892499
H   H47       1.0  0.80300  0.02280  0.11780  1.0000 0.1198892499
H   H48       1.0  0.02280  0.80300  0.05640  1.0000 0.1198892499
H   H49       1.0  0.03590  0.02370  0.58090  1.0000 0.1261520192
H   H50       1.0  0.02370  0.03590  0.35950  1.0000 0.1261520192
H   H51       1.0  0.58090  0.35950  0.03590  1.0000 0.1261520192
H   H52       1.0  0.35950  0.58090  0.02370  1.0000 0.1261520192
H   H53       1.0  0.21410  0.22630  0.66910  1.0000 0.1261520192
H   H54       1.0  0.22630  0.21410  0.89050  1.0000 0.1261520192
H   H55       1.0  0.66910  0.89050  0.21410  1.0000 0.1261520192
H   H56       1.0  0.89050  0.66910  0.22630  1.0000 0.1261520192
H   H57       1.0  0.25690  0.02550  0.45830  1.0000 0.1198892499
H   H58       1.0  0.02550  0.25690  0.25930  1.0000 0.1198892499
H   H59       1.0  0.45830  0.25930  0.25690  1.0000 0.1198892499
H   H60       1.0  0.25930  0.45830  0.02550  1.0000 0.1198892499
H   H61       1.0  0.99310  0.22450  0.79170  1.0000 0.1198892499
H   H62       1.0  0.22450  0.99310  0.99070  1.0000 0.1198892499
H   H63       1.0  0.79170  0.99070  0.99310  1.0000 0.1198892499
H   H64       1.0  0.99070  0.79170  0.22450  1.0000 0.1198892499
H   H65       1.0  0.17960  0.83220  0.54920  1.0000 0.099573537
H   H66       1.0  0.83220  0.17960  0.43900  1.0000 0.099573537
H   H67       1.0  0.54920  0.43900  0.17960  1.0000 0.099573537
H   H68       1.0  0.43900  0.54920  0.83220  1.0000 0.099573537
H   H69       1.0  0.07040  0.41780  0.70080  1.0000 0.099573537
H   H70       1.0  0.41780  0.07040  0.81100  1.0000 0.099573537
H   H71       1.0  0.70080  0.81100  0.07040  1.0000 0.099573537
H   H72       1.0  0.81100  0.70080  0.41780  1.0000 0.099573537
H   H73       1.0  0.39570  0.83430  0.42830  1.0000 0.1096659286
H   H74       1.0  0.83430  0.39570  0.34170  1.0000 0.1096659286
H   H75       1.0  0.42830  0.34170  0.39570  1.0000 0.1096659286
H   H76       1.0  0.34170  0.42830  0.83430  1.0000 0.1096659286
H   H77       1.0  0.85430  0.41570  0.82170  1.0000 0.1096659286
H   H78       1.0  0.41570  0.85430  0.90830  1.0000 0.1096659286
H   H79       1.0  0.82170  0.90830  0.85430  1.0000 0.1096659286
H   H80       1.0  0.90830  0.82170  0.41570  1.0000 0.1096659286
C   C1        1.0  0.74152  0.59732  0.66828  1.0000 0.5893059254
C   C2        1.0  0.59732  0.74152  0.99288  1.0000 0.5893059254
C   C3        1.0  0.66828  0.99288  0.74152  1.0000 0.5893059254
C   C4        1.0  0.99288  0.66828  0.59732  1.0000 0.5893059254
C   C5        1.0  0.50848  0.65268  0.58172  1.0000 0.5893059254
C   C6        1.0  0.65268  0.50848  0.25712  1.0000 0.5893059254
C   C7        1.0  0.58172  0.25712  0.50848  1.0000 0.5893059254
C   C8        1.0  0.25712  0.58172  0.65268  1.0000 0.5893059254
C   C9        1.0  0.77000  0.52300  0.58560  1.0000 -0.2873534903
C   C10       1.0  0.52300  0.77000  0.12140  1.0000 -0.2873534903
C   C11       1.0  0.58560  0.12140  0.77000  1.0000 -0.2873534903
C   C12       1.0  0.12140  0.58560  0.52300  1.0000 -0.2873534903
C   C13       1.0  0.48000  0.72700  0.66440  1.0000 -0.2873534903
C   C14       1.0  0.72700  0.48000  0.12860  1.0000 -0.2873534903
C   C15       1.0  0.66440  0.12860  0.48000  1.0000 -0.2873534903
C   C16       1.0  0.12860  0.66440  0.72700  1.0000 -0.2873534903
C   C17       1.0  0.83960  0.34740  0.62180  1.0000 -0.031571145
C   C18       1.0  0.34740  0.83960  0.19120  1.0000 -0.031571145
C   C19       1.0  0.62180  0.19120  0.83960  1.0000 -0.031571145
C   C20       1.0  0.19120  0.62180  0.34740  1.0000 -0.031571145
C   C21       1.0  0.41040  0.90260  0.62820  1.0000 -0.031571145
C   C22       1.0  0.90260  0.41040  0.05880  1.0000 -0.031571145
C   C23       1.0  0.62820  0.05880  0.41040  1.0000 -0.031571145
C   C24       1.0  0.05880  0.62820  0.90260  1.0000 -0.031571145
C   C25       1.0  0.97140  0.34440  0.50660  1.0000 0.0064347081
C   C26       1.0  0.34440  0.97140  0.17760  1.0000 0.0048348952
C   C27       1.0  0.50660  0.17760  0.97140  1.0000 0.0064347081
C   C28       1.0  0.17760  0.50660  0.34440  1.0000 0.0064347081
C   C29       1.0  0.27860  0.90560  0.74340  1.0000 0.0064347081
C   C30       1.0  0.90560  0.27860  0.07240  1.0000 0.0064347081
C   C31       1.0  0.74340  0.07240  0.27860  1.0000 0.0064347081
C   C32       1.0  0.07240  0.74340  0.90560  1.0000 0.0048348952
C   C33       1.0  0.92380  0.23360  0.61020  1.0000 -0.2097571266
C   C34       1.0  0.23360  0.92380  0.23240  1.0000 -0.2097571266
C   C35       1.0  0.61020  0.23240  0.92380  1.0000 -0.2097571266
C   C36       1.0  0.23240  0.61020  0.23360  1.0000 -0.2097571266
C   C37       1.0  0.32620  0.01640  0.63980  1.0000 -0.2097571266
C   C38       1.0  0.01640  0.32620  0.01760  1.0000 -0.2097571266
C   C39       1.0  0.63980  0.01760  0.32620  1.0000 -0.2097571266
C   C40       1.0  0.01760  0.63980  0.01640  1.0000 -0.2097571266
C   C41       1.0  0.05761  0.23181  0.49199  1.0000 -0.229228894
C   C42       1.0  0.23181  0.05761  0.21859  1.0000 -0.229228894
C   C43       1.0  0.49199  0.21859  0.05761  1.0000 -0.229228894
C   C44       1.0  0.21859  0.49199  0.23181  1.0000 -0.229228894
C   C45       1.0  0.19239  0.01819  0.75801  1.0000 -0.229228894
C   C46       1.0  0.01819  0.19239  0.03141  1.0000 -0.229228894
C   C47       1.0  0.75801  0.03141  0.19239  1.0000 -0.229228894
C   C48       1.0  0.03141  0.75801  0.01819  1.0000 -0.229228894
C   C49       1.0  0.03570  0.17290  0.54370  1.0000 0.0914831499
C   C50       1.0  0.17290  0.03570  0.24770  1.0000 0.0914831499
C   C51       1.0  0.54370  0.24770  0.03570  1.0000 0.0914831499
C   C52       1.0  0.24770  0.54370  0.17290  1.0000 0.0914831499
C   C53       1.0  0.21430  0.07710  0.70630  1.0000 0.0914831499
C   C54       1.0  0.07710  0.21430  0.00230  1.0000 0.0914831499
C   C55       1.0  0.70630  0.00230  0.21430  1.0000 0.0914831499
C   C56       1.0  0.00230  0.70630  0.07710  1.0000 0.0914831499
C   C57       1.0  0.12900  0.04820  0.52420  1.0000 0.099573537
C   C58       1.0  0.04820  0.12900  0.29860  1.0000 0.099573537
C   C59       1.0  0.52420  0.29860  0.12900  1.0000 0.099573537
C   C60       1.0  0.29860  0.52420  0.04820  1.0000 0.099573537
C   C61       1.0  0.12100  0.20180  0.72580  1.0000 0.099573537
C   C62       1.0  0.20180  0.12100  0.95140  1.0000 0.099573537
C   C63       1.0  0.72580  0.95140  0.12100  1.0000 0.099573537
C   C64       1.0  0.95140  0.72580  0.20180  1.0000 0.099573537
C   C65       1.0  0.10840  0.98700  0.55040  1.0000 -0.2097571266
C   C66       1.0  0.98700  0.10840  0.35420  1.0000 -0.2097571266
C   C67       1.0  0.55040  0.35420  0.10840  1.0000 -0.2097571266
C   C68       1.0  0.35420  0.55040  0.98700  1.0000 -0.2097571266
C   C69       1.0  0.14160  0.26300  0.69960  1.0000 -0.2097571266
C   C70       1.0  0.26300  0.14160  0.89580  1.0000 -0.2097571266
C   C71       1.0  0.69960  0.89580  0.14160  1.0000 -0.2097571266
C   C72       1.0  0.89580  0.69960  0.26300  1.0000 -0.2097571266
C   C73       1.0  0.23914  0.98774  0.47786  1.0000 -0.2181925967
C   C74       1.0  0.98774  0.23914  0.29526  1.0000 -0.2181925967
C   C75       1.0  0.47786  0.29526  0.23914  1.0000 -0.2181925967
C   C76       1.0  0.29526  0.47786  0.98774  1.0000 -0.2181925967
C   C77       1.0  0.01086  0.26226  0.77214  1.0000 -0.2181925967
C   C78       1.0  0.26226  0.01086  0.95474  1.0000 -0.2181925967
C   C79       1.0  0.77214  0.95474  0.01086  1.0000 -0.2181925967
C   C80       1.0  0.95474  0.77214  0.26226  1.0000 -0.2181925967
C   C81       1.0  0.19507  0.87187  0.53133  1.0000 0.0461049408
C   C82       1.0  0.87187  0.19507  0.40173  1.0000 0.0461049408
C   C83       1.0  0.53133  0.40173  0.19507  1.0000 0.0461049408
C   C84       1.0  0.40173  0.53133  0.87187  1.0000 0.0446756773
C   C85       1.0  0.05493  0.37813  0.71867  1.0000 0.0461049408
C   C86       1.0  0.37813  0.05493  0.84827  1.0000 0.0446756773
C   C87       1.0  0.71867  0.84827  0.05493  1.0000 0.0446756773
C   C88       1.0  0.84827  0.71867  0.37813  1.0000 0.0461049408
C   C89       1.0  0.32218  0.87298  0.46042  1.0000 0.0770317076
C   C90       1.0  0.87298  0.32218  0.34442  1.0000 0.0770317076
C   C91       1.0  0.46042  0.34442  0.32218  1.0000 0.0770317076
C   C92       1.0  0.34442  0.46042  0.87298  1.0000 0.0770317076
C   C93       1.0  0.92782  0.37702  0.78958  1.0000 0.0770317076
C   C94       1.0  0.37702  0.92782  0.90558  1.0000 0.0770317076
C   C95       1.0  0.78958  0.90558  0.92782  1.0000 0.0770317076
C   C96       1.0  0.90558  0.78958  0.37702  1.0000 0.0770317076
N   N1        1.0  0.85390  0.64610  0.85390  1.0000 -0.5213722929
N   N2        1.0  0.64610  0.85390  0.64610  1.0000 -0.5213722929
N   N3        1.0  0.39610  0.60390  0.39610  1.0000 -0.5213722929
N   N4        1.0  0.60390  0.39610  0.60390  1.0000 -0.5213722929
N   N5        1.0  0.90170  0.59830  0.90170  1.0000 0.390929322
N   N6        1.0  0.59830  0.90170  0.59830  1.0000 0.390929322
N   N7        1.0  0.34830  0.65170  0.34830  1.0000 0.390929322
N   N8        1.0  0.65170  0.34830  0.65170  1.0000 0.390929322
N   N9        1.0  0.94780  0.55220  0.94780  1.0000 -0.3659464463
N   N10       1.0  0.55220  0.94780  0.55220  1.0000 -0.3659464463
N   N11       1.0  0.30220  0.69780  0.30220  1.0000 -0.3659464463
N   N12       1.0  0.69780  0.30220  0.69780  1.0000 -0.3659464463
N   N13       1.0  0.86463  0.40023  0.56977  1.0000 0.1096659286
N   N14       1.0  0.40023  0.86463  0.16537  1.0000 0.1096659286
N   N15       1.0  0.56977  0.16537  0.86463  1.0000 0.1096659286
N   N16       1.0  0.16537  0.56977  0.40023  1.0000 0.1096659286
N   N17       1.0  0.38537  0.84977  0.68023  1.0000 0.1096659286
N   N18       1.0  0.84977  0.38537  0.08463  1.0000 0.1096659286
N   N19       1.0  0.68023  0.08463  0.38537  1.0000 0.1096659286
N   N20       1.0  0.08463  0.68023  0.84977  1.0000 0.1096659286
N   N21       1.0  0.30118  0.81428  0.48792  1.0000 -0.23934809
N   N22       1.0  0.81428  0.30118  0.39662  1.0000 -0.23934809
N   N23       1.0  0.48792  0.39662  0.30118  1.0000 -0.23934809
N   N24       1.0  0.39662  0.48792  0.81428  1.0000 -0.23934809
N   N25       1.0  0.94882  0.43572  0.76208  1.0000 -0.23934809
N   N26       1.0  0.43572  0.94882  0.85338  1.0000 -0.23934809
N   N27       1.0  0.76208  0.85338  0.94882  1.0000 -0.23934809
N   N28       1.0  0.85338  0.76208  0.43572  1.0000 -0.23934809
O   O1        1.0  0.75000  0.75000  0.75000  1.0000 -0.8753981635
O   O2        1.0  0.50000  0.50000  0.50000  1.0000 -0.8735013052
O   O3        1.0  0.82380  0.55160  0.67060  1.0000 -0.5467383459
O   O4        1.0  0.55160  0.82380  0.95400  1.0000 -0.5467383459
O   O5        1.0  0.67060  0.95400  0.82380  1.0000 -0.5467383459
O   O6        1.0  0.95400  0.67060  0.55160  1.0000 -0.5467383459
O   O7        1.0  0.42620  0.69840  0.57940  1.0000 -0.5467383459
O   O8        1.0  0.69840  0.42620  0.29600  1.0000 -0.5467383459
O   O9        1.0  0.57940  0.29600  0.42620  1.0000 -0.5467383459
O   O10       1.0  0.29600  0.57940  0.69840  1.0000 -0.5467383459
O   O11       1.0  0.64324  0.69500  0.71860  1.0000 -0.5691272959
O   O12       1.0  0.69500  0.64324  0.94316  1.0000 -0.5691272959
O   O13       1.0  0.71860  0.94316  0.64324  1.0000 -0.5691272959
O   O14       1.0  0.94316  0.71860  0.69500  1.0000 -0.5691272959
O   O15       1.0  0.60676  0.55500  0.53140  1.0000 -0.5691272959
O   O16       1.0  0.55500  0.60676  0.30684  1.0000 -0.5691272959
O   O17       1.0  0.53140  0.30684  0.60676  1.0000 -0.5691272959
O   O18       1.0  0.30684  0.53140  0.55500  1.0000 -0.5691272959
