# DDEC6 charges by PACMAN v1.1 (https://github.com/mtap-research/PACMAN-charge/)
data_2014[Zn][bnn]3[ASR]1
_chemical_formula_sum              "Zn4 H44 C76 N4 O16"
_cell_length_a       8.311
_cell_length_b       15.1275
_cell_length_c       15.3645
_cell_angle_alpha    90
_cell_angle_beta     91.85
_cell_angle_gamma    90

_symmetry_space_group_name_H-M    "P 1"
_symmetry_Int_Tables_number       1

loop_
  _symmetry_equiv_pos_as_xyz
  'x, y, z'

loop_
  _atom_site_type_symbol
  _atom_site_label
  _atom_site_symmetry_multiplicity
  _atom_site_fract_x
  _atom_site_fract_y
  _atom_site_fract_z
  _atom_site_occupancy
  _atom_site_charge
Zn  Zn1       1.0  0.98704  0.73272  0.74590  1.0000 0.8878749083
Zn  Zn2       1.0  0.51296  0.23272  0.25410  1.0000 0.8878749083
Zn  Zn3       1.0  0.01296  0.26728  0.25410  1.0000 0.8878749083
Zn  Zn4       1.0  0.48704  0.76728  0.74590  1.0000 0.8878749083
H   H1        1.0  0.09250  0.88320  0.63460  1.0000 0.1099347691
H   H2        1.0  0.40750  0.38320  0.36540  1.0000 0.1099347691
H   H3        1.0  0.90750  0.11680  0.36540  1.0000 0.1099347691
H   H4        1.0  0.59250  0.61680  0.63460  1.0000 0.1099347691
H   H5        1.0  0.00610  0.11310  0.75310  1.0000 0.1208762939
H   H6        1.0  0.49390  0.61310  0.24690  1.0000 0.1208762939
H   H7        1.0  0.99390  0.88690  0.24690  1.0000 0.1208762939
H   H8        1.0  0.50610  0.38690  0.75310  1.0000 0.1208762939
H   H9        1.0  0.88350  0.88200  0.85880  1.0000 0.1099347691
H   H10       1.0  0.61650  0.38200  0.14120  1.0000 0.1099347691
H   H11       1.0  0.11650  0.11800  0.14120  1.0000 0.1099347691
H   H12       1.0  0.38350  0.61800  0.85880  1.0000 0.1099347691
H   H13       1.0  0.28510  0.96110  0.56830  1.0000 0.1264282907
H   H14       1.0  0.21490  0.46110  0.43170  1.0000 0.1264282907
H   H15       1.0  0.71490  0.03890  0.43170  1.0000 0.1264282907
H   H16       1.0  0.78510  0.53890  0.56830  1.0000 0.1264282907
H   H17       1.0  0.37860  0.03590  0.44900  1.0000 0.1208762939
H   H18       1.0  0.12140  0.53590  0.55100  1.0000 0.1208762939
H   H19       1.0  0.62140  0.96410  0.55100  1.0000 0.1208762939
H   H20       1.0  0.87860  0.46410  0.44900  1.0000 0.1208762939
H   H21       1.0  0.07180  0.23490  0.49120  1.0000 0.1208762939
H   H22       1.0  0.42820  0.73490  0.50880  1.0000 0.1208762939
H   H23       1.0  0.92820  0.76510  0.50880  1.0000 0.1208762939
H   H24       1.0  0.57180  0.26510  0.49120  1.0000 0.1208762939
H   H25       1.0  0.98070  0.16200  0.61220  1.0000 0.1208762939
H   H26       1.0  0.51930  0.66200  0.38780  1.0000 0.1208762939
H   H27       1.0  0.01930  0.83800  0.38780  1.0000 0.1208762939
H   H28       1.0  0.48070  0.33800  0.61220  1.0000 0.1208762939
H   H29       1.0  0.70800  0.96420  0.93260  1.0000 0.1264282907
H   H30       1.0  0.79200  0.46420  0.06740  1.0000 0.1264282907
H   H31       1.0  0.29200  0.03580  0.06740  1.0000 0.1264282907
H   H32       1.0  0.20800  0.53580  0.93260  1.0000 0.1264282907
H   H33       1.0  0.62500  0.03880  0.05450  1.0000 0.1208762939
H   H34       1.0  0.87500  0.53880  0.94550  1.0000 0.1208762939
H   H35       1.0  0.37500  0.96120  0.94550  1.0000 0.1208762939
H   H36       1.0  0.12500  0.46120  0.05450  1.0000 0.1208762939
H   H37       1.0  0.95500  0.22720  0.01690  1.0000 0.1208762939
H   H38       1.0  0.54500  0.72720  0.98310  1.0000 0.1208762939
H   H39       1.0  0.04500  0.77280  0.98310  1.0000 0.1208762939
H   H40       1.0  0.45500  0.27280  0.01690  1.0000 0.1208762939
H   H41       1.0  0.04050  0.15330  0.89540  1.0000 0.1208762939
H   H42       1.0  0.45950  0.65330  0.10460  1.0000 0.1208762939
H   H43       1.0  0.95950  0.84670  0.10460  1.0000 0.1208762939
H   H44       1.0  0.54050  0.34670  0.89540  1.0000 0.1208762939
C   C1        1.0  0.05150  0.91434  0.68109  1.0000 0.0456204065
C   C2        1.0  0.44850  0.41434  0.31891  1.0000 0.0456204065
C   C3        1.0  0.94850  0.08566  0.31891  1.0000 0.0456204065
C   C4        1.0  0.55150  0.58566  0.68109  1.0000 0.0456204065
C   C5        1.0  0.05820  0.00631  0.67954  1.0000 0.0402774741
C   C6        1.0  0.44180  0.50631  0.32046  1.0000 0.0402774741
C   C7        1.0  0.94180  0.99369  0.32046  1.0000 0.0402774741
C   C8        1.0  0.55820  0.49369  0.67954  1.0000 0.0402774741
C   C9        1.0  0.00140  0.05173  0.75144  1.0000 -0.147983613
C   C10       1.0  0.49860  0.55173  0.24856  1.0000 -0.147983613
C   C11       1.0  0.99860  0.94827  0.24856  1.0000 -0.147983613
C   C12       1.0  0.50140  0.44827  0.75144  1.0000 -0.147983613
C   C13       1.0  0.93760  0.00534  0.82080  1.0000 0.0402774741
C   C14       1.0  0.56240  0.50534  0.17920  1.0000 0.0402774741
C   C15       1.0  0.06240  0.99466  0.17920  1.0000 0.0402774741
C   C16       1.0  0.43760  0.49466  0.82080  1.0000 0.0402774741
C   C17       1.0  0.93040  0.91357  0.81436  1.0000 0.0402774741
C   C18       1.0  0.56960  0.41357  0.18564  1.0000 0.0402774741
C   C19       1.0  0.06960  0.08643  0.18564  1.0000 0.0402774741
C   C20       1.0  0.43040  0.58643  0.81436  1.0000 0.0402774741
C   C21       1.0  0.12110  0.05331  0.60292  1.0000 0.0784609388
C   C22       1.0  0.37890  0.55331  0.39708  1.0000 0.0784609388
C   C23       1.0  0.87890  0.94669  0.39708  1.0000 0.0784609388
C   C24       1.0  0.62110  0.44669  0.60292  1.0000 0.0784609388
C   C25       1.0  0.24220  0.01598  0.55323  1.0000 -0.1428520722
C   C26       1.0  0.25780  0.51598  0.44677  1.0000 -0.1428520722
C   C27       1.0  0.75780  0.98402  0.44677  1.0000 -0.1428520722
C   C28       1.0  0.74220  0.48402  0.55323  1.0000 -0.1428520722
C   C29       1.0  0.29790  0.06099  0.48150  1.0000 -0.1021585101
C   C30       1.0  0.20210  0.56099  0.51850  1.0000 -0.1021585101
C   C31       1.0  0.70210  0.93901  0.51850  1.0000 -0.1021585101
C   C32       1.0  0.79790  0.43901  0.48150  1.0000 -0.1021585101
C   C33       1.0  0.23550  0.14289  0.45738  1.0000 -0.0351322484
C   C34       1.0  0.26450  0.64289  0.54262  1.0000 -0.0351322484
C   C35       1.0  0.76450  0.85711  0.54262  1.0000 -0.0351322484
C   C36       1.0  0.73550  0.35711  0.45738  1.0000 -0.0344502521
C   C37       1.0  0.11510  0.18020  0.50679  1.0000 -0.1021585101
C   C38       1.0  0.38490  0.68020  0.49321  1.0000 -0.1021585101
C   C39       1.0  0.88490  0.81980  0.49321  1.0000 -0.1021585101
C   C40       1.0  0.61510  0.31980  0.50679  1.0000 -0.1021585101
C   C41       1.0  0.05980  0.13609  0.57911  1.0000 -0.147983613
C   C42       1.0  0.44020  0.63609  0.42089  1.0000 -0.147983613
C   C43       1.0  0.94020  0.86391  0.42089  1.0000 -0.147983613
C   C44       1.0  0.55980  0.36391  0.57911  1.0000 -0.147983613
C   C45       1.0  0.29090  0.19068  0.37780  1.0000 0.5577836703
C   C46       1.0  0.20910  0.69068  0.62220  1.0000 0.5577836703
C   C47       1.0  0.70910  0.80932  0.62220  1.0000 0.5577836703
C   C48       1.0  0.79090  0.30932  0.37780  1.0000 0.5577836703
C   C49       1.0  0.88270  0.05109  0.90018  1.0000 0.0784609388
C   C50       1.0  0.61730  0.55109  0.09982  1.0000 0.0784609388
C   C51       1.0  0.11730  0.94891  0.09982  1.0000 0.0784609388
C   C52       1.0  0.38270  0.44891  0.90018  1.0000 0.0784609388
C   C53       1.0  0.75770  0.01695  0.94913  1.0000 -0.147983613
C   C54       1.0  0.74230  0.51695  0.05087  1.0000 -0.147983613
C   C55       1.0  0.24230  0.98305  0.05087  1.0000 -0.147983613
C   C56       1.0  0.25770  0.48305  0.94913  1.0000 -0.147983613
C   C57       1.0  0.70810  0.06181  0.02231  1.0000 -0.1021585101
C   C58       1.0  0.79190  0.56181  0.97769  1.0000 -0.1021585101
C   C59       1.0  0.29190  0.93819  0.97769  1.0000 -0.1021585101
C   C60       1.0  0.20810  0.43819  0.02231  1.0000 -0.1021585101
C   C61       1.0  0.78090  0.14079  0.04834  1.0000 -0.0344502521
C   C62       1.0  0.71910  0.64079  0.95166  1.0000 -0.0344502521
C   C63       1.0  0.21910  0.85921  0.95166  1.0000 -0.0344502521
C   C64       1.0  0.28090  0.35921  0.04834  1.0000 -0.0344502521
C   C65       1.0  0.90550  0.17451  0.00002  1.0000 -0.1021585101
C   C66       1.0  0.59450  0.67451  0.99998  1.0000 -0.1021585101
C   C67       1.0  0.09450  0.82549  0.99998  1.0000 -0.1021585101
C   C68       1.0  0.40550  0.32549  0.00002  1.0000 -0.1021585101
C   C69       1.0  0.95660  0.13027  0.92691  1.0000 -0.147983613
C   C70       1.0  0.54340  0.63027  0.07309  1.0000 -0.147983613
C   C71       1.0  0.04340  0.86973  0.07309  1.0000 -0.147983613
C   C72       1.0  0.45660  0.36973  0.92691  1.0000 -0.147983613
C   C73       1.0  0.72960  0.18898  0.12871  1.0000 0.5577836703
C   C74       1.0  0.77040  0.68898  0.87129  1.0000 0.5577836703
C   C75       1.0  0.27040  0.81102  0.87129  1.0000 0.5577836703
C   C76       1.0  0.22960  0.31102  0.12871  1.0000 0.5577836703
N   N1        1.0  0.98839  0.86861  0.74669  1.0000 -0.2317930464
N   N2        1.0  0.51161  0.36861  0.25331  1.0000 -0.2317930464
N   N3        1.0  0.01161  0.13139  0.25331  1.0000 -0.2317930464
N   N4        1.0  0.48839  0.63139  0.74669  1.0000 -0.2317930464
O   O1        1.0  0.61110  0.15769  0.16773  1.0000 -0.5196137656
O   O2        1.0  0.88890  0.65769  0.83227  1.0000 -0.5196137656
O   O3        1.0  0.38890  0.84231  0.83227  1.0000 -0.5196137656
O   O4        1.0  0.11110  0.34231  0.16773  1.0000 -0.5196137656
O   O5        1.0  0.80510  0.25741  0.15221  1.0000 -0.5809119945
O   O6        1.0  0.69490  0.75741  0.84779  1.0000 -0.5809119945
O   O7        1.0  0.19490  0.74259  0.84779  1.0000 -0.5809119945
O   O8        1.0  0.30510  0.24259  0.15221  1.0000 -0.5809119945
O   O9        1.0  0.41030  0.15854  0.34006  1.0000 -0.5196137656
O   O10       1.0  0.08970  0.65854  0.65994  1.0000 -0.5196137656
O   O11       1.0  0.58970  0.84146  0.65994  1.0000 -0.5196137656
O   O12       1.0  0.91030  0.34146  0.34006  1.0000 -0.5196137656
O   O13       1.0  0.21780  0.25955  0.35350  1.0000 -0.5809119945
O   O14       1.0  0.28220  0.75955  0.64650  1.0000 -0.5809119945
O   O15       1.0  0.78220  0.74045  0.64650  1.0000 -0.5809119945
O   O16       1.0  0.71780  0.24045  0.35350  1.0000 -0.5809119945
