# DDEC6 charges by PACMAN v1.1 (https://github.com/mtap-research/PACMAN-charge/)
data_2014[Cd][sqc]3[ASR]1
_chemical_formula_sum              "Cd4 H32 C32 N20 O12"
_cell_length_a       7.545
_cell_length_b       15.626
_cell_length_c       12.8331
_cell_angle_alpha    90
_cell_angle_beta     93.225
_cell_angle_gamma    90

_symmetry_space_group_name_H-M    "P 1"
_symmetry_Int_Tables_number       1

loop_
  _symmetry_equiv_pos_as_xyz
  'x, y, z'

loop_
  _atom_site_type_symbol
  _atom_site_label
  _atom_site_symmetry_multiplicity
  _atom_site_fract_x
  _atom_site_fract_y
  _atom_site_fract_z
  _atom_site_occupancy
  _atom_site_charge
Cd  Cd1       1.0  0.25000  0.54111  0.00000  1.0000 0.9679046858
Cd  Cd2       1.0  0.75000  0.45889  0.00000  1.0000 0.9679046858
Cd  Cd3       1.0  0.00000  0.00000  0.50000  1.0000 1.211744218
Cd  Cd4       1.0  0.50000  0.00000  0.50000  1.0000 1.2239260961
H   H1        1.0  0.95610  0.37870  0.73700  1.0000 0.1401282836
H   H2        1.0  0.54390  0.37870  0.26300  1.0000 0.1401282836
H   H3        1.0  0.04390  0.62130  0.26300  1.0000 0.1401282836
H   H4        1.0  0.45610  0.62130  0.73700  1.0000 0.1401282836
H   H5        1.0  0.00460  0.30500  0.81650  1.0000 0.133483826
H   H6        1.0  0.49540  0.30500  0.18350  1.0000 0.133483826
H   H7        1.0  0.99540  0.69500  0.18350  1.0000 0.133483826
H   H8        1.0  0.50460  0.69500  0.81650  1.0000 0.133483826
H   H9        1.0  0.81820  0.47240  0.31580  1.0000 0.3205701698
H   H10       1.0  0.68180  0.47240  0.68420  1.0000 0.3205701698
H   H11       1.0  0.18180  0.52760  0.68420  1.0000 0.3205701698
H   H12       1.0  0.31820  0.52760  0.31580  1.0000 0.3205701698
H   H13       1.0  0.90700  0.50730  0.41330  1.0000 0.3058392097
H   H14       1.0  0.59300  0.50730  0.58670  1.0000 0.3058392097
H   H15       1.0  0.09300  0.49270  0.58670  1.0000 0.3058392097
H   H16       1.0  0.40700  0.49270  0.41330  1.0000 0.3058392097
H   H17       1.0  0.25340  0.36550  0.67590  1.0000 0.1117843882
H   H18       1.0  0.24660  0.36550  0.32410  1.0000 0.1117843882
H   H19       1.0  0.74660  0.63450  0.32410  1.0000 0.1117843882
H   H20       1.0  0.75340  0.63450  0.67590  1.0000 0.1117843882
H   H21       1.0  0.27600  0.28280  0.74460  1.0000 0.1117843882
H   H22       1.0  0.22400  0.28280  0.25540  1.0000 0.1117843882
H   H23       1.0  0.72400  0.71720  0.25540  1.0000 0.1117843882
H   H24       1.0  0.77600  0.71720  0.74460  1.0000 0.1117843882
H   H25       1.0  0.14690  0.14500  0.66560  1.0000 0.1203966987
H   H26       1.0  0.35310  0.14500  0.33440  1.0000 0.1203966987
H   H27       1.0  0.85310  0.85500  0.33440  1.0000 0.1203966987
H   H28       1.0  0.64690  0.85500  0.66560  1.0000 0.1203966987
H   H29       1.0  0.84140  0.19550  0.33530  1.0000 0.1203966987
H   H30       1.0  0.65860  0.19550  0.66470  1.0000 0.1203966987
H   H31       1.0  0.15860  0.80450  0.66470  1.0000 0.1203966987
H   H32       1.0  0.34140  0.80450  0.33530  1.0000 0.1203966987
C   C1        1.0  0.05300  0.35230  0.77820  1.0000 -0.3398772787
C   C2        1.0  0.44700  0.35230  0.22180  1.0000 -0.3398772787
C   C3        1.0  0.94700  0.64770  0.22180  1.0000 -0.3398772787
C   C4        1.0  0.55300  0.64770  0.77820  1.0000 -0.3398772787
C   C5        1.0  0.13260  0.41730  0.85520  1.0000 0.6209127445
C   C6        1.0  0.36740  0.41730  0.14480  1.0000 0.6209127445
C   C7        1.0  0.86740  0.58270  0.14480  1.0000 0.6209127445
C   C8        1.0  0.63260  0.58270  0.85520  1.0000 0.6209127445
C   C9        1.0  0.97190  0.22510  0.47220  1.0000 0.0079744347
C   C10       1.0  0.52810  0.22510  0.52780  1.0000 0.0079744347
C   C11       1.0  0.02810  0.77490  0.52780  1.0000 0.0079744347
C   C12       1.0  0.47190  0.77490  0.47220  1.0000 0.0079744347
C   C13       1.0  0.02300  0.29670  0.52960  1.0000 0.2331468005
C   C14       1.0  0.47700  0.29670  0.47040  1.0000 0.2331468005
C   C15       1.0  0.97700  0.70330  0.47040  1.0000 0.2331468005
C   C16       1.0  0.52300  0.70330  0.52960  1.0000 0.2331468005
C   C17       1.0  0.19020  0.31780  0.70480  1.0000 -0.0479779478
C   C18       1.0  0.30980  0.31780  0.29520  1.0000 -0.0479779478
C   C19       1.0  0.80980  0.68220  0.29520  1.0000 -0.0479779478
C   C20       1.0  0.69020  0.68220  0.70480  1.0000 -0.0479779478
C   C21       1.0  0.91050  0.38540  0.40780  1.0000 0.5222974111
C   C22       1.0  0.58950  0.38540  0.59220  1.0000 0.5222974111
C   C23       1.0  0.08950  0.61460  0.59220  1.0000 0.5222974111
C   C24       1.0  0.41050  0.61460  0.40780  1.0000 0.5222974111
C   C25       1.0  0.09940  0.18060  0.61320  1.0000 0.1500071872
C   C26       1.0  0.40060  0.18060  0.38680  1.0000 0.1500071872
C   C27       1.0  0.90060  0.81940  0.38680  1.0000 0.1500071872
C   C28       1.0  0.59940  0.81940  0.61320  1.0000 0.1500071872
C   C29       1.0  0.88260  0.24100  0.37670  1.0000 0.0753102515
C   C30       1.0  0.61740  0.24100  0.62330  1.0000 0.0753102515
C   C31       1.0  0.11740  0.75900  0.62330  1.0000 0.0744963575
C   C32       1.0  0.38260  0.75900  0.37670  1.0000 0.0744963575
N   N1        1.0  0.10900  0.26700  0.61980  1.0000 -0.0582786586
N   N2        1.0  0.39100  0.26700  0.38020  1.0000 -0.0582786586
N   N3        1.0  0.89100  0.73300  0.38020  1.0000 -0.0582786586
N   N4        1.0  0.60900  0.73300  0.61980  1.0000 -0.0582786586
N   N5        1.0  0.99910  0.37750  0.50250  1.0000 -0.4684867348
N   N6        1.0  0.50090  0.37750  0.49750  1.0000 -0.4684867348
N   N7        1.0  0.00090  0.62250  0.49750  1.0000 -0.4684867348
N   N8        1.0  0.49910  0.62250  0.50250  1.0000 -0.4684867348
N   N9        1.0  0.87430  0.46430  0.37510  1.0000 -0.5864776086
N   N10       1.0  0.62570  0.46430  0.62490  1.0000 -0.5864776086
N   N11       1.0  0.12570  0.53570  0.62490  1.0000 -0.5842916678
N   N12       1.0  0.37430  0.53570  0.37510  1.0000 -0.5842916678
N   N13       1.0  0.85600  0.31970  0.34460  1.0000 -0.3645205955
N   N14       1.0  0.64400  0.31970  0.65540  1.0000 -0.3645205955
N   N15       1.0  0.14400  0.68030  0.65540  1.0000 -0.3645205955
N   N16       1.0  0.35600  0.68030  0.34460  1.0000 -0.3645205955
N   N17       1.0  0.01840  0.15060  0.52780  1.0000 -0.2919571261
N   N18       1.0  0.48160  0.15060  0.47220  1.0000 -0.2919571261
N   N19       1.0  0.98160  0.84940  0.47220  1.0000 -0.2919571261
N   N20       1.0  0.51840  0.84940  0.52780  1.0000 -0.2919571261
O   O1        1.0  0.26610  0.45900  0.83120  1.0000 -0.5597790192
O   O2        1.0  0.23390  0.45900  0.16880  1.0000 -0.5597790192
O   O3        1.0  0.73390  0.54100  0.16880  1.0000 -0.5597790192
O   O4        1.0  0.76610  0.54100  0.83120  1.0000 -0.5597790192
O   O5        1.0  0.05800  0.42890  0.93810  1.0000 -0.5597790192
O   O6        1.0  0.44200  0.42890  0.06190  1.0000 -0.5597790192
O   O7        1.0  0.94200  0.57110  0.06190  1.0000 -0.5597790192
O   O8        1.0  0.55800  0.57110  0.93810  1.0000 -0.5597790192
O   O9        1.0  0.77520  0.00890  0.58990  1.0000 -0.7904544483
O   O10       1.0  0.72480  0.00890  0.41010  1.0000 -0.7904544483
O   O11       1.0  0.22480  0.99110  0.41010  1.0000 -0.7904544483
O   O12       1.0  0.27520  0.99110  0.58990  1.0000 -0.7904544483
