# DDEC6 charges by PACMAN v1.1 (https://github.com/mtap-research/PACMAN-charge/)
data_2014[FeAu][fsc]3[ASR]1
_chemical_formula_sum              "Fe2 H16 Au4 C32 N20"
_cell_length_a       10.0682
_cell_length_b       10.0682
_cell_length_c       15.099
_cell_angle_alpha    90
_cell_angle_beta     90
_cell_angle_gamma    106.373

_symmetry_space_group_name_H-M    "P 1"
_symmetry_Int_Tables_number       1

loop_
  _symmetry_equiv_pos_as_xyz
  'x, y, z'

loop_
  _atom_site_type_symbol
  _atom_site_label
  _atom_site_symmetry_multiplicity
  _atom_site_fract_x
  _atom_site_fract_y
  _atom_site_fract_z
  _atom_site_occupancy
  _atom_site_charge
Fe  Fe1       1.0  0.75000  0.25000  0.61550  1.0000 0.5827682384
Fe  Fe2       1.0  0.25000  0.75000  0.38450  1.0000 0.5827682384
H   H1        1.0  0.58710  0.08710  0.76200  1.0000 0.1173230365
H   H2        1.0  0.91290  0.41290  0.76200  1.0000 0.1173230365
H   H3        1.0  0.58110  0.08110  0.91480  1.0000 0.1336457573
H   H4        1.0  0.91890  0.41890  0.91480  1.0000 0.1336457573
H   H5        1.0  0.58450  0.08450  0.31400  1.0000 0.1336457573
H   H6        1.0  0.91550  0.41550  0.31400  1.0000 0.1336457573
H   H7        1.0  0.58670  0.08670  0.46830  1.0000 0.1173230365
H   H8        1.0  0.91330  0.41330  0.46830  1.0000 0.1173230365
H   H9        1.0  0.41290  0.91290  0.23800  1.0000 0.1173230365
H   H10       1.0  0.08710  0.58710  0.23800  1.0000 0.1173230365
H   H11       1.0  0.41890  0.91890  0.08520  1.0000 0.1336457573
H   H12       1.0  0.08110  0.58110  0.08520  1.0000 0.1336457573
H   H13       1.0  0.41550  0.91550  0.68600  1.0000 0.1336457573
H   H14       1.0  0.08450  0.58450  0.68600  1.0000 0.1336457573
H   H15       1.0  0.41330  0.91330  0.53170  1.0000 0.1173230365
H   H16       1.0  0.08670  0.58670  0.53170  1.0000 0.1173230365
Au  Au1       1.0  0.75000  0.75000  0.60729  1.0000 -0.0092153948
Au  Au2       1.0  0.25000  0.25000  0.60729  1.0000 -0.0092153948
Au  Au3       1.0  0.75000  0.75000  0.39271  1.0000 -0.0092153948
Au  Au4       1.0  0.25000  0.25000  0.39271  1.0000 -0.0092153948
C   C1        1.0  0.73180  0.94020  0.61090  1.0000 0.0449109331
C   C2        1.0  0.76820  0.55980  0.61090  1.0000 0.0449109331
C   C3        1.0  0.44020  0.23180  0.61090  1.0000 0.0449109331
C   C4        1.0  0.05980  0.26820  0.61090  1.0000 0.0449109331
C   C5        1.0  0.65500  0.15500  0.79390  1.0000 0.0814889011
C   C6        1.0  0.84500  0.34500  0.79390  1.0000 0.0814889011
C   C7        1.0  0.65050  0.15050  0.88500  1.0000 -0.1532347582
C   C8        1.0  0.84950  0.34950  0.88500  1.0000 -0.1532347582
C   C9        1.0  0.75000  0.25000  0.93300  1.0000 0.0642523535
C   C10       1.0  0.75000  0.25000  0.03110  1.0000 0.2590615891
C   C11       1.0  0.75000  0.25000  0.20020  1.0000 0.2590615891
C   C12       1.0  0.75000  0.25000  0.29940  1.0000 0.0716543861
C   C13       1.0  0.65310  0.15310  0.34480  1.0000 -0.1532347582
C   C14       1.0  0.84690  0.34690  0.34480  1.0000 -0.1532347582
C   C15       1.0  0.65510  0.15510  0.43710  1.0000 0.0814889011
C   C16       1.0  0.84490  0.34490  0.43710  1.0000 0.0814889011
C   C17       1.0  0.55980  0.76820  0.38910  1.0000 0.0449109331
C   C18       1.0  0.94020  0.73180  0.38910  1.0000 0.0449109331
C   C19       1.0  0.26820  0.05980  0.38910  1.0000 0.0449109331
C   C20       1.0  0.23180  0.44020  0.38910  1.0000 0.0449109331
C   C21       1.0  0.34500  0.84500  0.20610  1.0000 0.0814889011
C   C22       1.0  0.15500  0.65500  0.20610  1.0000 0.0814889011
C   C23       1.0  0.34950  0.84950  0.11500  1.0000 -0.1532347582
C   C24       1.0  0.15050  0.65050  0.11500  1.0000 -0.1532347582
C   C25       1.0  0.25000  0.75000  0.06700  1.0000 0.0642523535
C   C26       1.0  0.25000  0.75000  0.96890  1.0000 0.2590615891
C   C27       1.0  0.25000  0.75000  0.79980  1.0000 0.2590615891
C   C28       1.0  0.25000  0.75000  0.70060  1.0000 0.0716543861
C   C29       1.0  0.34690  0.84690  0.65520  1.0000 -0.1532347582
C   C30       1.0  0.15310  0.65310  0.65520  1.0000 -0.1532347582
C   C31       1.0  0.34490  0.84490  0.56290  1.0000 0.0814889011
C   C32       1.0  0.15510  0.65510  0.56290  1.0000 0.0814889011
N   N1        1.0  0.72670  0.05290  0.61450  1.0000 -0.3076007597
N   N2        1.0  0.77330  0.44710  0.61450  1.0000 -0.3076007597
N   N3        1.0  0.55290  0.22670  0.61450  1.0000 -0.3076007597
N   N4        1.0  0.94710  0.27330  0.61450  1.0000 -0.3076007597
N   N5        1.0  0.75000  0.25000  0.74730  1.0000 -0.1211405925
N   N6        1.0  0.65130  0.15130  0.07220  1.0000 -0.1605546556
N   N7        1.0  0.84870  0.34870  0.07220  1.0000 -0.1605546556
N   N8        1.0  0.65180  0.15180  0.16020  1.0000 -0.1605546556
N   N9        1.0  0.84820  0.34820  0.16020  1.0000 -0.1605546556
N   N10       1.0  0.75000  0.25000  0.48360  1.0000 -0.1211405925
N   N11       1.0  0.44710  0.77330  0.38550  1.0000 -0.3076007597
N   N12       1.0  0.05290  0.72670  0.38550  1.0000 -0.3076007597
N   N13       1.0  0.27330  0.94710  0.38550  1.0000 -0.3076007597
N   N14       1.0  0.22670  0.55290  0.38550  1.0000 -0.3076007597
N   N15       1.0  0.25000  0.75000  0.25270  1.0000 -0.1211405925
N   N16       1.0  0.34870  0.84870  0.92780  1.0000 -0.1605546556
N   N17       1.0  0.15130  0.65130  0.92780  1.0000 -0.1605546556
N   N18       1.0  0.34820  0.84820  0.83980  1.0000 -0.1605546556
N   N19       1.0  0.15180  0.65180  0.83980  1.0000 -0.1605546556
N   N20       1.0  0.25000  0.75000  0.51640  1.0000 -0.1211405925
