# DDEC6 charges by PACMAN v1.1 (https://github.com/mtap-research/PACMAN-charge/)
data_2014[Co][nan]3[ASR]25
_chemical_formula_sum              "Co6 H6 C24 O18"
_cell_length_a       15.1144
_cell_length_b       15.1144
_cell_length_c       15.1144
_cell_angle_alpha    117.79
_cell_angle_beta     117.79
_cell_angle_gamma    117.79

_symmetry_space_group_name_H-M    "P 1"
_symmetry_Int_Tables_number       1

loop_
  _symmetry_equiv_pos_as_xyz
  'x, y, z'

loop_
  _atom_site_type_symbol
  _atom_site_label
  _atom_site_symmetry_multiplicity
  _atom_site_fract_x
  _atom_site_fract_y
  _atom_site_fract_z
  _atom_site_occupancy
  _atom_site_charge
Co  Co1       1.0  0.89890  0.19830  0.61580  1.0000 1.0014958676
Co  Co2       1.0  0.19830  0.61580  0.89890  1.0000 1.0014958676
Co  Co3       1.0  0.61580  0.89890  0.19830  1.0000 1.0014958676
Co  Co4       1.0  0.19830  0.89890  0.61580  1.0000 1.0014958676
Co  Co5       1.0  0.89890  0.61580  0.19830  1.0000 1.0014958676
Co  Co6       1.0  0.61580  0.19830  0.89890  1.0000 1.0014958676
H   H1        1.0  0.76025  0.27650  0.76025  1.0000 0.1703521009
H   H2        1.0  0.27650  0.76025  0.76025  1.0000 0.1703521009
H   H3        1.0  0.76025  0.76025  0.27650  1.0000 0.1703521009
H   H4        1.0  0.46150  0.89300  0.46150  1.0000 0.1342680152
H   H5        1.0  0.89300  0.46150  0.46150  1.0000 0.1342680152
H   H6        1.0  0.46150  0.46150  0.89300  1.0000 0.1342680152
C   C1        1.0  0.05430  0.49220  0.96000  1.0000 0.3753315206
C   C2        1.0  0.49220  0.96000  0.05430  1.0000 0.3753315206
C   C3        1.0  0.96000  0.05430  0.49220  1.0000 0.3753315206
C   C4        1.0  0.49220  0.05430  0.96000  1.0000 0.3753315206
C   C5        1.0  0.05430  0.96000  0.49220  1.0000 0.3753315206
C   C6        1.0  0.96000  0.49220  0.05430  1.0000 0.3753315206
C   C7        1.0  0.91220  0.41300  0.91220  1.0000 -0.3656489555
C   C8        1.0  0.41300  0.91220  0.91220  1.0000 -0.3656489555
C   C9        1.0  0.91220  0.91220  0.41300  1.0000 -0.3656489555
C   C10       1.0  0.27190  0.68670  0.17730  1.0000 -0.2367477123
C   C11       1.0  0.68670  0.17730  0.27190  1.0000 -0.2367477123
C   C12       1.0  0.17730  0.27190  0.68670  1.0000 -0.2367477123
C   C13       1.0  0.68670  0.27190  0.17730  1.0000 -0.2367477123
C   C14       1.0  0.27190  0.17730  0.68670  1.0000 -0.2367477123
C   C15       1.0  0.17730  0.68670  0.27190  1.0000 -0.2367477123
C   C16       1.0  0.43870  0.79680  0.25260  1.0000 0.6169765289
C   C17       1.0  0.79680  0.25260  0.43870  1.0000 0.6169765289
C   C18       1.0  0.25260  0.43870  0.79680  1.0000 0.6169765289
C   C19       1.0  0.79680  0.43870  0.25260  1.0000 0.6169765289
C   C20       1.0  0.43870  0.25260  0.79680  1.0000 0.6169765289
C   C21       1.0  0.25260  0.79680  0.43870  1.0000 0.6169765289
C   C22       1.0  0.32845  0.77150  0.32845  1.0000 -0.0310217668
C   C23       1.0  0.77150  0.32845  0.32845  1.0000 -0.0310217668
C   C24       1.0  0.32845  0.32845  0.77150  1.0000 -0.0310217668
O   O1        1.0  0.00210  0.42060  0.81950  1.0000 -0.6067806784
O   O2        1.0  0.42060  0.81950  0.00210  1.0000 -0.6067806784
O   O3        1.0  0.81950  0.00210  0.42060  1.0000 -0.6067806784
O   O4        1.0  0.42060  0.00210  0.81950  1.0000 -0.6067806784
O   O5        1.0  0.00210  0.81950  0.42060  1.0000 -0.6067806784
O   O6        1.0  0.81950  0.42060  0.00210  1.0000 -0.6067806784
O   O7        1.0  0.40380  0.74430  0.12880  1.0000 -0.5854285364
O   O8        1.0  0.74430  0.12880  0.40380  1.0000 -0.5854285364
O   O9        1.0  0.12880  0.40380  0.74430  1.0000 -0.5854285364
O   O10       1.0  0.74430  0.40380  0.12880  1.0000 -0.5854285364
O   O11       1.0  0.40380  0.12880  0.74430  1.0000 -0.5854285364
O   O12       1.0  0.12880  0.74430  0.40380  1.0000 -0.5854285364
O   O13       1.0  0.61980  0.94790  0.44030  1.0000 -0.5188216869
O   O14       1.0  0.94790  0.44030  0.61980  1.0000 -0.5188216869
O   O15       1.0  0.44030  0.61980  0.94790  1.0000 -0.5188216869
O   O16       1.0  0.94790  0.61980  0.44030  1.0000 -0.5188216869
O   O17       1.0  0.61980  0.44030  0.94790  1.0000 -0.5188216869
O   O18       1.0  0.44030  0.94790  0.61980  1.0000 -0.5188216869
