# DDEC6 charges by PACMAN v1.1 (https://github.com/mtap-research/PACMAN-charge/)
data_2014[Zn][nan]3[ASR]27
_chemical_formula_sum              "Zn20 H128 C168 O92"
_cell_length_a       15.519
_cell_length_b       22.982
_cell_length_c       16.102
_cell_angle_alpha    90
_cell_angle_beta     100.2
_cell_angle_gamma    90

_symmetry_space_group_name_H-M    "P 1"
_symmetry_Int_Tables_number       1

loop_
  _symmetry_equiv_pos_as_xyz
  'x, y, z'

loop_
  _atom_site_type_symbol
  _atom_site_label
  _atom_site_symmetry_multiplicity
  _atom_site_fract_x
  _atom_site_fract_y
  _atom_site_fract_z
  _atom_site_occupancy
  _atom_site_charge
Zn  Zn1       1.0  0.66375  0.02807  0.65101  1.0000 0.9689043934
Zn  Zn2       1.0  0.33625  0.52807  0.84899  1.0000 0.9689043934
Zn  Zn3       1.0  0.33625  0.97193  0.34899  1.0000 0.9689043934
Zn  Zn4       1.0  0.66375  0.47193  0.15101  1.0000 0.9689043934
Zn  Zn5       1.0  0.64760  0.16283  0.61698  1.0000 1.0506860241
Zn  Zn6       1.0  0.35240  0.66283  0.88302  1.0000 1.0584794903
Zn  Zn7       1.0  0.35240  0.83717  0.38302  1.0000 1.0506860241
Zn  Zn8       1.0  0.64760  0.33717  0.11698  1.0000 1.0506860241
Zn  Zn9       1.0  0.84336  0.12250  0.64606  1.0000 1.0584794903
Zn  Zn10      1.0  0.15664  0.62250  0.85394  1.0000 1.0584794903
Zn  Zn11      1.0  0.15664  0.87750  0.35394  1.0000 1.0584794903
Zn  Zn12      1.0  0.84336  0.37750  0.14606  1.0000 1.0584794903
Zn  Zn13      1.0  0.83186  0.37652  0.81058  1.0000 0.9862602973
Zn  Zn14      1.0  0.16814  0.87652  0.68942  1.0000 0.9835370803
Zn  Zn15      1.0  0.16814  0.62348  0.18942  1.0000 0.9835370803
Zn  Zn16      1.0  0.83186  0.12348  0.31058  1.0000 0.9862602973
Zn  Zn17      1.0  0.82542  0.25102  0.74668  1.0000 1.0998234177
Zn  Zn18      1.0  0.17458  0.75102  0.75332  1.0000 1.0998234177
Zn  Zn19      1.0  0.17458  0.74898  0.25332  1.0000 1.0998234177
Zn  Zn20      1.0  0.82542  0.24898  0.24668  1.0000 1.0998234177
H   H1        1.0  0.87170  0.02170  0.86100  1.0000 0.1415328507
H   H2        1.0  0.12830  0.52170  0.63900  1.0000 0.1415328507
H   H3        1.0  0.12830  0.97830  0.13900  1.0000 0.1415328507
H   H4        1.0  0.87170  0.47830  0.36100  1.0000 0.1415328507
H   H5        1.0  0.84660  0.01300  0.10410  1.0000 0.1513042549
H   H6        1.0  0.15340  0.51300  0.39590  1.0000 0.1513042549
H   H7        1.0  0.15340  0.98700  0.89590  1.0000 0.1513042549
H   H8        1.0  0.84660  0.48700  0.60410  1.0000 0.1513042549
H   H9        1.0  0.82990  0.16650  0.98500  1.0000 0.1415328507
H   H10       1.0  0.17010  0.66650  0.51500  1.0000 0.1415328507
H   H11       1.0  0.17010  0.83350  0.01500  1.0000 0.1415328507
H   H12       1.0  0.82990  0.33350  0.48500  1.0000 0.1415328507
H   H13       1.0  0.85310  0.92190  0.87190  1.0000 0.1011176848
H   H14       1.0  0.14690  0.42190  0.62810  1.0000 0.1011176848
H   H15       1.0  0.14690  0.07810  0.12810  1.0000 0.1011176848
H   H16       1.0  0.85310  0.57810  0.37190  1.0000 0.1011176848
H   H17       1.0  0.95160  0.93470  0.90980  1.0000 0.1011176848
H   H18       1.0  0.04840  0.43470  0.59020  1.0000 0.1011176848
H   H19       1.0  0.04840  0.06530  0.09020  1.0000 0.1011176848
H   H20       1.0  0.95160  0.56530  0.40980  1.0000 0.1011176848
H   H21       1.0  0.94140  0.83780  0.90020  1.0000 0.1201310496
H   H22       1.0  0.05860  0.33780  0.59980  1.0000 0.1201310496
H   H23       1.0  0.05860  0.16220  0.09980  1.0000 0.1201310496
H   H24       1.0  0.94140  0.66220  0.40020  1.0000 0.1201310496
H   H25       1.0  0.95130  0.85220  0.99630  1.0000 0.1201310496
H   H26       1.0  0.04870  0.35220  0.50370  1.0000 0.1201310496
H   H27       1.0  0.04870  0.14780  0.00370  1.0000 0.1201310496
H   H28       1.0  0.95130  0.64780  0.49630  1.0000 0.1201310496
H   H29       1.0  0.78880  0.82590  0.89640  1.0000 0.1011176848
H   H30       1.0  0.21120  0.32590  0.60360  1.0000 0.1011176848
H   H31       1.0  0.21120  0.17410  0.10360  1.0000 0.1011176848
H   H32       1.0  0.78880  0.67410  0.39640  1.0000 0.1011176848
H   H33       1.0  0.80610  0.83310  0.99480  1.0000 0.1063547568
H   H34       1.0  0.19390  0.33310  0.50520  1.0000 0.1063547568
H   H35       1.0  0.19390  0.16690  0.00520  1.0000 0.1063547568
H   H36       1.0  0.80610  0.66690  0.49480  1.0000 0.1063547568
H   H37       1.0  0.88260  0.74360  0.91220  1.0000 0.1201310496
H   H38       1.0  0.11740  0.24360  0.58780  1.0000 0.1201310496
H   H39       1.0  0.11740  0.25640  0.08780  1.0000 0.1201310496
H   H40       1.0  0.88260  0.75640  0.41220  1.0000 0.1201310496
H   H41       1.0  0.89280  0.74980  0.01030  1.0000 0.1201310496
H   H42       1.0  0.10720  0.24980  0.48970  1.0000 0.1201310496
H   H43       1.0  0.10720  0.25020  0.98970  1.0000 0.1201310496
H   H44       1.0  0.89280  0.75020  0.51030  1.0000 0.1201310496
H   H45       1.0  0.73140  0.72370  0.90510  1.0000 0.1011176848
H   H46       1.0  0.26860  0.22370  0.59490  1.0000 0.1011176848
H   H47       1.0  0.26860  0.27630  0.09490  1.0000 0.1011176848
H   H48       1.0  0.73140  0.77630  0.40510  1.0000 0.1011176848
H   H49       1.0  0.74570  0.72630  0.00440  1.0000 0.1011176848
H   H50       1.0  0.25430  0.22630  0.49560  1.0000 0.1011176848
H   H51       1.0  0.25430  0.27370  0.99560  1.0000 0.1011176848
H   H52       1.0  0.74570  0.77370  0.50440  1.0000 0.1011176848
H   H53       1.0  0.83920  0.55700  0.93540  1.0000 0.1415328507
H   H54       1.0  0.16080  0.05700  0.56460  1.0000 0.1415328507
H   H55       1.0  0.16080  0.44300  0.06460  1.0000 0.1415328507
H   H56       1.0  0.83920  0.94300  0.43540  1.0000 0.1415328507
H   H57       1.0  0.60100  0.48410  0.91870  1.0000 0.1415328507
H   H58       1.0  0.39900  0.98410  0.58130  1.0000 0.1415328507
H   H59       1.0  0.39900  0.51590  0.08130  1.0000 0.1415328507
H   H60       1.0  0.60100  0.01590  0.41870  1.0000 0.1415328507
H   H61       1.0  0.63110  0.65630  0.95550  1.0000 0.1316010092
H   H62       1.0  0.36890  0.15630  0.54450  1.0000 0.1316010092
H   H63       1.0  0.36890  0.34370  0.04450  1.0000 0.1316010092
H   H64       1.0  0.63110  0.84370  0.45550  1.0000 0.1316010092
H   H65       1.0  0.63380  0.20430  0.86790  1.0000 0.1415328507
H   H66       1.0  0.36620  0.70430  0.63210  1.0000 0.1415328507
H   H67       1.0  0.36620  0.79570  0.13210  1.0000 0.1415328507
H   H68       1.0  0.63380  0.29570  0.36790  1.0000 0.1415328507
H   H69       1.0  0.60450  0.14690  0.09510  1.0000 0.1513042549
H   H70       1.0  0.39550  0.64690  0.40490  1.0000 0.1513042549
H   H71       1.0  0.39550  0.85310  0.90490  1.0000 0.1513042549
H   H72       1.0  0.60450  0.35310  0.59510  1.0000 0.1513042549
H   H73       1.0  0.62470  0.03430  0.90930  1.0000 0.1316010092
H   H74       1.0  0.37530  0.53430  0.59070  1.0000 0.1316010092
H   H75       1.0  0.37530  0.96570  0.09070  1.0000 0.1316010092
H   H76       1.0  0.62470  0.46570  0.40930  1.0000 0.1316010092
H   H77       1.0  0.57400  0.96780  0.01010  1.0000 0.1011176848
H   H78       1.0  0.42600  0.46780  0.48990  1.0000 0.1011176848
H   H79       1.0  0.42600  0.03220  0.98990  1.0000 0.1011176848
H   H80       1.0  0.57400  0.53220  0.51010  1.0000 0.1011176848
H   H81       1.0  0.67600  0.97630  0.03670  1.0000 0.1011176848
H   H82       1.0  0.32400  0.47630  0.46330  1.0000 0.1011176848
H   H83       1.0  0.32400  0.02370  0.96330  1.0000 0.1011176848
H   H84       1.0  0.67600  0.52370  0.53670  1.0000 0.1011176848
H   H85       1.0  0.66470  0.96420  0.18030  1.0000 0.1316010092
H   H86       1.0  0.33530  0.46420  0.31970  1.0000 0.1316010092
H   H87       1.0  0.33530  0.03580  0.81970  1.0000 0.1316010092
H   H88       1.0  0.66470  0.53580  0.68030  1.0000 0.1316010092
H   H89       1.0  0.56250  0.95840  0.15570  1.0000 0.1201310496
H   H90       1.0  0.43750  0.45840  0.34430  1.0000 0.1201310496
H   H91       1.0  0.43750  0.04160  0.84430  1.0000 0.1201310496
H   H92       1.0  0.56250  0.54160  0.65570  1.0000 0.1201310496
H   H93       1.0  0.58210  0.87020  0.08040  1.0000 0.0949994722
H   H94       1.0  0.41790  0.37020  0.41960  1.0000 0.0949994722
H   H95       1.0  0.41790  0.12980  0.91960  1.0000 0.0949994722
H   H96       1.0  0.58210  0.62980  0.58040  1.0000 0.0949994722
H   H97       1.0  0.68360  0.87530  0.11150  1.0000 0.1011176848
H   H98       1.0  0.31640  0.37530  0.38850  1.0000 0.1011176848
H   H99       1.0  0.31640  0.12470  0.88850  1.0000 0.1011176848
H   H100      1.0  0.68360  0.62470  0.61150  1.0000 0.1011176848
H   H101      1.0  0.55820  0.85550  0.21580  1.0000 0.1201310496
H   H102      1.0  0.44180  0.35550  0.28420  1.0000 0.1201310496
H   H103      1.0  0.44180  0.14450  0.78420  1.0000 0.1201310496
H   H104      1.0  0.55820  0.64450  0.71580  1.0000 0.1201310496
H   H105      1.0  0.65580  0.87060  0.25370  1.0000 0.1201310496
H   H106      1.0  0.34420  0.37060  0.24630  1.0000 0.1201310496
H   H107      1.0  0.34420  0.12940  0.74630  1.0000 0.1201310496
H   H108      1.0  0.65580  0.62940  0.75370  1.0000 0.1201310496
H   H109      1.0  0.61320  0.77090  0.15080  1.0000 0.1063547568
H   H110      1.0  0.38680  0.27090  0.34920  1.0000 0.1063547568
H   H111      1.0  0.38680  0.22910  0.84920  1.0000 0.1063547568
H   H112      1.0  0.61320  0.72910  0.65080  1.0000 0.1063547568
H   H113      1.0  0.62500  0.76730  0.24990  1.0000 0.1011176848
H   H114      1.0  0.37500  0.26730  0.25010  1.0000 0.1011176848
H   H115      1.0  0.37500  0.23270  0.75010  1.0000 0.1011176848
H   H116      1.0  0.62500  0.73270  0.74990  1.0000 0.1011176848
H   H117      1.0  0.66880  0.67900  0.18460  1.0000 0.1316010092
H   H118      1.0  0.33120  0.17900  0.31540  1.0000 0.1316010092
H   H119      1.0  0.33120  0.32100  0.81540  1.0000 0.1316010092
H   H120      1.0  0.66880  0.82100  0.68460  1.0000 0.1316010092
H   H121      1.0  0.89510  0.59840  0.17640  1.0000 0.1415328507
H   H122      1.0  0.10490  0.09840  0.32360  1.0000 0.1415328507
H   H123      1.0  0.10490  0.40160  0.82360  1.0000 0.1415328507
H   H124      1.0  0.89510  0.90160  0.67640  1.0000 0.1415328507
H   H125      1.0  0.89160  0.77100  0.20860  1.0000 0.1575990493
H   H126      1.0  0.10840  0.27100  0.29140  1.0000 0.1575990493
H   H127      1.0  0.10840  0.22900  0.79140  1.0000 0.1575990493
H   H128      1.0  0.89160  0.72900  0.70860  1.0000 0.1575990493
C   C1        1.0  0.85220  0.13348  0.83320  1.0000 0.5958589489
C   C2        1.0  0.14780  0.63348  0.66680  1.0000 0.5958589489
C   C3        1.0  0.14780  0.86652  0.16680  1.0000 0.5958589489
C   C4        1.0  0.85220  0.36652  0.33320  1.0000 0.5958589489
C   C5        1.0  0.85350  0.09890  0.91200  1.0000 -0.0099956392
C   C6        1.0  0.14650  0.59890  0.58800  1.0000 -0.0099956392
C   C7        1.0  0.14650  0.90110  0.08800  1.0000 -0.0099956392
C   C8        1.0  0.85350  0.40110  0.41200  1.0000 -0.0099956392
C   C9        1.0  0.86350  0.04004  0.91050  1.0000 -0.2155405557
C   C10       1.0  0.13650  0.54004  0.58950  1.0000 -0.2092946892
C   C11       1.0  0.13650  0.95996  0.08950  1.0000 -0.2155405557
C   C12       1.0  0.86350  0.45996  0.41050  1.0000 -0.2092946892
C   C13       1.0  0.86160  0.00722  0.98280  1.0000 0.237361834
C   C14       1.0  0.13840  0.50722  0.51720  1.0000 0.237361834
C   C15       1.0  0.13840  0.99278  0.01720  1.0000 0.237361834
C   C16       1.0  0.86160  0.49278  0.48280  1.0000 0.237361834
C   C17       1.0  0.84850  0.03474  0.05570  1.0000 -0.2155405557
C   C18       1.0  0.15150  0.53474  0.44430  1.0000 -0.2155405557
C   C19       1.0  0.15150  0.96526  0.94430  1.0000 -0.2155405557
C   C20       1.0  0.84850  0.46526  0.55570  1.0000 -0.2155405557
C   C21       1.0  0.83810  0.09454  0.05710  1.0000 -0.0099956392
C   C22       1.0  0.16190  0.59454  0.44290  1.0000 -0.0099956392
C   C23       1.0  0.16190  0.90546  0.94290  1.0000 -0.0099956392
C   C24       1.0  0.83810  0.40546  0.55710  1.0000 -0.0099956392
C   C25       1.0  0.83900  0.12650  0.98490  1.0000 -0.1213280168
C   C26       1.0  0.16100  0.62650  0.51510  1.0000 -0.1213280168
C   C27       1.0  0.16100  0.87350  0.01510  1.0000 -0.1213280168
C   C28       1.0  0.83900  0.37350  0.48490  1.0000 -0.1213280168
C   C29       1.0  0.82390  0.12431  0.13690  1.0000 0.557745936
C   C30       1.0  0.17610  0.62431  0.36310  1.0000 0.557745936
C   C31       1.0  0.17610  0.87569  0.86310  1.0000 0.557745936
C   C32       1.0  0.82390  0.37569  0.63690  1.0000 0.557745936
C   C33       1.0  0.89780  0.91794  0.92200  1.0000 -0.0212342153
C   C34       1.0  0.10220  0.41794  0.57800  1.0000 -0.0212342153
C   C35       1.0  0.10220  0.08206  0.07800  1.0000 -0.0212342153
C   C36       1.0  0.89780  0.58206  0.42200  1.0000 -0.0212342153
C   C37       1.0  0.91200  0.85520  0.94250  1.0000 -0.198793408
C   C38       1.0  0.08800  0.35520  0.55750  1.0000 -0.198793408
C   C39       1.0  0.08800  0.14480  0.05750  1.0000 -0.198793408
C   C40       1.0  0.91200  0.64480  0.44250  1.0000 -0.198793408
C   C41       1.0  0.83160  0.81995  0.94730  1.0000 -0.1588248971
C   C42       1.0  0.16840  0.31995  0.55270  1.0000 -0.1588248971
C   C43       1.0  0.16840  0.18005  0.05270  1.0000 -0.1588248971
C   C44       1.0  0.83160  0.68005  0.44730  1.0000 -0.1588248971
C   C45       1.0  0.85280  0.75566  0.95740  1.0000 -0.198793408
C   C46       1.0  0.14720  0.25566  0.54260  1.0000 -0.198793408
C   C47       1.0  0.14720  0.24434  0.04260  1.0000 -0.198793408
C   C48       1.0  0.85280  0.74434  0.45740  1.0000 -0.198793408
C   C49       1.0  0.77350  0.71744  0.95650  1.0000 -0.0212342153
C   C50       1.0  0.22650  0.21744  0.54350  1.0000 -0.0212342153
C   C51       1.0  0.22650  0.28256  0.04350  1.0000 -0.0212342153
C   C52       1.0  0.77350  0.78256  0.45650  1.0000 -0.0212342153
C   C53       1.0  0.74440  0.61365  0.94910  1.0000 0.237361834
C   C54       1.0  0.25560  0.11365  0.55090  1.0000 0.237361834
C   C55       1.0  0.25560  0.38635  0.05090  1.0000 0.237361834
C   C56       1.0  0.74440  0.88635  0.44910  1.0000 0.237361834
C   C57       1.0  0.77960  0.56016  0.93630  1.0000 -0.2092946892
C   C58       1.0  0.22040  0.06016  0.56370  1.0000 -0.2092946892
C   C59       1.0  0.22040  0.43984  0.06370  1.0000 -0.2092946892
C   C60       1.0  0.77960  0.93984  0.43630  1.0000 -0.2092946892
C   C61       1.0  0.72720  0.51083  0.92470  1.0000 0.0212765751
C   C62       1.0  0.27280  0.01083  0.57530  1.0000 0.0212765751
C   C63       1.0  0.27280  0.48917  0.07530  1.0000 0.0212765751
C   C64       1.0  0.72720  0.98917  0.42470  1.0000 0.0212765751
C   C65       1.0  0.63710  0.51667  0.92490  1.0000 -0.1213280168
C   C66       1.0  0.36290  0.01667  0.57510  1.0000 -0.1213280168
C   C67       1.0  0.36290  0.48333  0.07510  1.0000 -0.1213280168
C   C68       1.0  0.63710  0.98333  0.42490  1.0000 -0.1213280168
C   C69       1.0  0.60250  0.57115  0.93440  1.0000 0.0075521137
C   C70       1.0  0.39750  0.07115  0.56560  1.0000 0.0075521137
C   C71       1.0  0.39750  0.42885  0.06560  1.0000 0.0075521137
C   C72       1.0  0.60250  0.92885  0.43440  1.0000 0.0075521137
C   C73       1.0  0.65490  0.62006  0.94770  1.0000 -0.2439670613
C   C74       1.0  0.34510  0.12006  0.55230  1.0000 -0.2439670613
C   C75       1.0  0.34510  0.37994  0.05230  1.0000 -0.2439670613
C   C76       1.0  0.65490  0.87994  0.44770  1.0000 -0.2439670613
C   C77       1.0  0.50430  0.57747  0.92220  1.0000 0.5889153952
C   C78       1.0  0.49570  0.07747  0.57780  1.0000 0.5889153952
C   C79       1.0  0.49570  0.42253  0.07780  1.0000 0.5889153952
C   C80       1.0  0.50430  0.92253  0.42220  1.0000 0.5889153952
C   C81       1.0  0.76220  0.45230  0.90700  1.0000 0.5430724496
C   C82       1.0  0.23780  0.95230  0.59300  1.0000 0.5430724496
C   C83       1.0  0.23780  0.54770  0.09300  1.0000 0.5430724496
C   C84       1.0  0.76220  0.04770  0.40700  1.0000 0.5430724496
C   C85       1.0  0.64010  0.10702  0.78600  1.0000 0.5796377981
C   C86       1.0  0.35990  0.60702  0.71400  1.0000 0.5796377981
C   C87       1.0  0.35990  0.89298  0.21400  1.0000 0.5796377981
C   C88       1.0  0.64010  0.39298  0.28600  1.0000 0.5796377981
C   C89       1.0  0.62850  0.11772  0.87540  1.0000 -0.0099956392
C   C90       1.0  0.37150  0.61772  0.62460  1.0000 -0.0099956392
C   C91       1.0  0.37150  0.88228  0.12460  1.0000 -0.0099956392
C   C92       1.0  0.62850  0.38228  0.37540  1.0000 -0.0099956392
C   C93       1.0  0.62840  0.17373  0.90440  1.0000 -0.1213280168
C   C94       1.0  0.37160  0.67373  0.59560  1.0000 -0.1213280168
C   C95       1.0  0.37160  0.82627  0.09560  1.0000 -0.1213280168
C   C96       1.0  0.62840  0.32627  0.40440  1.0000 -0.1213280168
C   C97       1.0  0.62060  0.18568  0.98590  1.0000 0.0212765751
C   C98       1.0  0.37940  0.68568  0.51410  1.0000 0.0212765751
C   C99       1.0  0.37940  0.81432  0.01410  1.0000 0.0212765751
C   C100      1.0  0.62060  0.31432  0.48590  1.0000 0.0212765751
C   C101      1.0  0.61150  0.13946  0.03990  1.0000 -0.198793408
C   C102      1.0  0.38850  0.63946  0.46010  1.0000 -0.198793408
C   C103      1.0  0.38850  0.86054  0.96010  1.0000 -0.198793408
C   C104      1.0  0.61150  0.36054  0.53990  1.0000 -0.198793408
C   C105      1.0  0.61280  0.08303  0.01180  1.0000 0.237361834
C   C106      1.0  0.38720  0.58303  0.48820  1.0000 0.237361834
C   C107      1.0  0.38720  0.91697  0.98820  1.0000 0.237361834
C   C108      1.0  0.61280  0.41697  0.51180  1.0000 0.237361834
C   C109      1.0  0.62240  0.07237  0.92850  1.0000 -0.2321931397
C   C110      1.0  0.37760  0.57237  0.57150  1.0000 -0.2321931397
C   C111      1.0  0.37760  0.92763  0.07150  1.0000 -0.2321931397
C   C112      1.0  0.62240  0.42763  0.42850  1.0000 -0.2321931397
C   C113      1.0  0.62640  0.24686  0.02030  1.0000 0.5493912274
C   C114      1.0  0.37360  0.74686  0.47970  1.0000 0.5493912274
C   C115      1.0  0.37360  0.75314  0.97970  1.0000 0.5493912274
C   C116      1.0  0.62640  0.25314  0.52030  1.0000 0.5493912274
C   C117      1.0  0.61990  0.98201  0.05430  1.0000 -0.0099956392
C   C118      1.0  0.38010  0.48201  0.44570  1.0000 -0.0099956392
C   C119      1.0  0.38010  0.01799  0.94570  1.0000 -0.0099956392
C   C120      1.0  0.61990  0.51799  0.55430  1.0000 -0.0099956392
C   C121      1.0  0.61740  0.95022  0.13730  1.0000 -0.198793408
C   C122      1.0  0.38260  0.45022  0.36270  1.0000 -0.1946467435
C   C123      1.0  0.38260  0.04978  0.86270  1.0000 -0.198793408
C   C124      1.0  0.61740  0.54978  0.63730  1.0000 -0.198793408
C   C125      1.0  0.62690  0.88378  0.12610  1.0000 -0.1480835578
C   C126      1.0  0.37310  0.38378  0.37390  1.0000 -0.1480835578
C   C127      1.0  0.37310  0.11622  0.87390  1.0000 -0.1480835578
C   C128      1.0  0.62690  0.61622  0.62610  1.0000 -0.1480835578
C   C129      1.0  0.61810  0.85228  0.20650  1.0000 -0.198793408
C   C130      1.0  0.38190  0.35228  0.29350  1.0000 -0.198793408
C   C131      1.0  0.38190  0.14772  0.79350  1.0000 -0.198793408
C   C132      1.0  0.61810  0.64772  0.70650  1.0000 -0.198793408
C   C133      1.0  0.64230  0.78824  0.20320  1.0000 -0.0212342153
C   C134      1.0  0.35770  0.28824  0.29680  1.0000 -0.0212342153
C   C135      1.0  0.35770  0.21176  0.79680  1.0000 -0.0212342153
C   C136      1.0  0.64230  0.71176  0.70320  1.0000 -0.0212342153
C   C137      1.0  0.77320  0.73319  0.20090  1.0000 0.237361834
C   C138      1.0  0.22680  0.23319  0.29910  1.0000 0.237361834
C   C139      1.0  0.22680  0.26681  0.79910  1.0000 0.237361834
C   C140      1.0  0.77320  0.76681  0.70090  1.0000 0.237361834
C   C141      1.0  0.72930  0.68043  0.18860  1.0000 -0.2450850284
C   C142      1.0  0.27070  0.18043  0.31140  1.0000 -0.2450850284
C   C143      1.0  0.27070  0.31957  0.81140  1.0000 -0.2450850284
C   C144      1.0  0.72930  0.81957  0.68860  1.0000 -0.2450850284
C   C145      1.0  0.77620  0.62991  0.18230  1.0000 0.0075521137
C   C146      1.0  0.22380  0.12991  0.31770  1.0000 0.0075521137
C   C147      1.0  0.22380  0.37009  0.81770  1.0000 0.0075521137
C   C148      1.0  0.77620  0.87009  0.68230  1.0000 0.0075521137
C   C149      1.0  0.86430  0.63225  0.18370  1.0000 -0.1346241062
C   C150      1.0  0.13570  0.13225  0.31630  1.0000 -0.1356146609
C   C151      1.0  0.13570  0.36775  0.81630  1.0000 -0.1356146609
C   C152      1.0  0.86430  0.86775  0.68370  1.0000 -0.1356146609
C   C153      1.0  0.90800  0.68508  0.19580  1.0000 -0.002644813
C   C154      1.0  0.09200  0.18508  0.30420  1.0000 -0.002644813
C   C155      1.0  0.09200  0.31492  0.80420  1.0000 -0.002644813
C   C156      1.0  0.90800  0.81492  0.69580  1.0000 -0.002644813
C   C157      1.0  0.86250  0.73549  0.20270  1.0000 -0.2092946892
C   C158      1.0  0.13750  0.23549  0.29730  1.0000 -0.2092946892
C   C159      1.0  0.13750  0.26451  0.79730  1.0000 -0.2092946892
C   C160      1.0  0.86250  0.76451  0.70270  1.0000 -0.2092946892
C   C161      1.0  0.72800  0.57288  0.17130  1.0000 0.5323573375
C   C162      1.0  0.27200  0.07288  0.32870  1.0000 0.5323573375
C   C163      1.0  0.27200  0.42712  0.82870  1.0000 0.5323573375
C   C164      1.0  0.72800  0.92712  0.67130  1.0000 0.5323573375
C   C165      1.0  0.00560  0.68747  0.19810  1.0000 0.5796377981
C   C166      1.0  0.99440  0.18747  0.30190  1.0000 0.5796377981
C   C167      1.0  0.99440  0.31253  0.80190  1.0000 0.5796377981
C   C168      1.0  0.00560  0.81253  0.69810  1.0000 0.5796377981
O   O1        1.0  0.86440  0.10672  0.76830  1.0000 -0.553659839
O   O2        1.0  0.13560  0.60672  0.73170  1.0000 -0.553659839
O   O3        1.0  0.13560  0.89328  0.23170  1.0000 -0.553659839
O   O4        1.0  0.86440  0.39328  0.26830  1.0000 -0.553659839
O   O5        1.0  0.83981  0.18763  0.83603  1.0000 -0.4931309274
O   O6        1.0  0.16019  0.68763  0.66397  1.0000 -0.4931309274
O   O7        1.0  0.16019  0.81237  0.16397  1.0000 -0.4931309274
O   O8        1.0  0.83981  0.31237  0.33603  1.0000 -0.4931309274
O   O9        1.0  0.82270  0.17868  0.14019  1.0000 -0.5114234761
O   O10       1.0  0.17730  0.67868  0.35981  1.0000 -0.5114234761
O   O11       1.0  0.17730  0.82132  0.85981  1.0000 -0.5114234761
O   O12       1.0  0.82270  0.32132  0.64019  1.0000 -0.5114234761
O   O13       1.0  0.81060  0.09144  0.19774  1.0000 -0.5397076806
O   O14       1.0  0.18940  0.59144  0.30226  1.0000 -0.5397076806
O   O15       1.0  0.18940  0.90856  0.80226  1.0000 -0.5397076806
O   O16       1.0  0.81060  0.40856  0.69774  1.0000 -0.5397076806
O   O17       1.0  0.87220  0.94786  0.98830  1.0000 -0.1588248971
O   O18       1.0  0.12780  0.44786  0.51170  1.0000 -0.1588248971
O   O19       1.0  0.12780  0.05214  0.01170  1.0000 -0.1588248971
O   O20       1.0  0.87220  0.55214  0.48830  1.0000 -0.1588248971
O   O21       1.0  0.80342  0.65869  0.96070  1.0000 -0.1775773478
O   O22       1.0  0.19658  0.15869  0.53930  1.0000 -0.1775773478
O   O23       1.0  0.19658  0.34131  0.03930  1.0000 -0.1775773478
O   O24       1.0  0.80342  0.84131  0.46070  1.0000 -0.1775773478
O   O25       1.0  0.47318  0.62646  0.93304  1.0000 -0.5209452039
O   O26       1.0  0.52682  0.12646  0.56696  1.0000 -0.5209452039
O   O27       1.0  0.52682  0.37354  0.06696  1.0000 -0.5209452039
O   O28       1.0  0.47318  0.87354  0.43304  1.0000 -0.5209452039
O   O29       1.0  0.45959  0.53220  0.90281  1.0000 -0.5114234761
O   O30       1.0  0.54041  0.03220  0.59719  1.0000 -0.5114234761
O   O31       1.0  0.54041  0.46780  0.09719  1.0000 -0.5114234761
O   O32       1.0  0.45959  0.96780  0.40281  1.0000 -0.5114234761
O   O33       1.0  0.72454  0.40708  0.92658  1.0000 -0.4258768385
O   O34       1.0  0.27546  0.90708  0.57342  1.0000 -0.4258768385
O   O35       1.0  0.27546  0.59292  0.07342  1.0000 -0.4258768385
O   O36       1.0  0.72454  0.09292  0.42658  1.0000 -0.4258768385
O   O37       1.0  0.82844  0.45091  0.87137  1.0000 -0.5397076806
O   O38       1.0  0.17156  0.95091  0.62863  1.0000 -0.5397076806
O   O39       1.0  0.17156  0.54909  0.12863  1.0000 -0.5397076806
O   O40       1.0  0.82844  0.04909  0.37137  1.0000 -0.5397076806
O   O41       1.0  0.76798  0.30483  0.81469  1.0000 -0.5989827191
O   O42       1.0  0.23202  0.80483  0.68531  1.0000 -0.6086408174
O   O43       1.0  0.23202  0.69517  0.18531  1.0000 -0.6086408174
O   O44       1.0  0.76798  0.19517  0.31469  1.0000 -0.5989827191
O   O45       1.0  0.78331  0.20160  0.64955  1.0000 -0.8291127359
O   O46       1.0  0.21669  0.70160  0.85045  1.0000 -0.8291127359
O   O47       1.0  0.21669  0.79840  0.35045  1.0000 -0.8291127359
O   O48       1.0  0.78331  0.29840  0.14955  1.0000 -0.8291127359
O   O49       1.0  0.72005  0.09332  0.59634  1.0000 -0.8670038855
O   O50       1.0  0.27995  0.59332  0.90366  1.0000 -0.8670038855
O   O51       1.0  0.27995  0.90668  0.40366  1.0000 -0.8670038855
O   O52       1.0  0.72005  0.40668  0.09634  1.0000 -0.8670038855
O   O53       1.0  0.63567  0.15006  0.73725  1.0000 -0.5209452039
O   O54       1.0  0.36433  0.65006  0.76275  1.0000 -0.5209452039
O   O55       1.0  0.36433  0.84994  0.26275  1.0000 -0.5209452039
O   O56       1.0  0.63567  0.34994  0.23725  1.0000 -0.5209452039
O   O57       1.0  0.65436  0.05517  0.76533  1.0000 -0.5304931974
O   O58       1.0  0.34564  0.55517  0.73467  1.0000 -0.5304931974
O   O59       1.0  0.34564  0.94483  0.23467  1.0000 -0.5304931974
O   O60       1.0  0.65436  0.44483  0.26533  1.0000 -0.5304931974
O   O61       1.0  0.65657  0.28623  0.97884  1.0000 -0.4509755349
O   O62       1.0  0.34343  0.78623  0.52116  1.0000 -0.4509755349
O   O63       1.0  0.34343  0.71377  0.02116  1.0000 -0.4509755349
O   O64       1.0  0.65657  0.21377  0.47884  1.0000 -0.4509755349
O   O65       1.0  0.60530  0.25570  0.09177  1.0000 -0.5114234761
O   O66       1.0  0.39470  0.75570  0.40823  1.0000 -0.5114234761
O   O67       1.0  0.39470  0.74430  0.90823  1.0000 -0.5114234761
O   O68       1.0  0.60530  0.24430  0.59177  1.0000 -0.5114234761
O   O69       1.0  0.60690  0.04111  0.07081  1.0000 -0.1588248971
O   O70       1.0  0.39310  0.54111  0.42919  1.0000 -0.1588248971
O   O71       1.0  0.39310  0.95889  0.92919  1.0000 -0.1588248971
O   O72       1.0  0.60690  0.45889  0.57081  1.0000 -0.1588248971
O   O73       1.0  0.73473  0.78583  0.20860  1.0000 -0.1775773478
O   O74       1.0  0.26527  0.28583  0.29140  1.0000 -0.1775773478
O   O75       1.0  0.26527  0.21417  0.79140  1.0000 -0.1775773478
O   O76       1.0  0.73473  0.71417  0.70860  1.0000 -0.1775773478
O   O77       1.0  0.64912  0.57021  0.17430  1.0000 -0.4830807423
O   O78       1.0  0.35088  0.07021  0.32570  1.0000 -0.4830807423
O   O79       1.0  0.35088  0.42979  0.82570  1.0000 -0.4830807423
O   O80       1.0  0.64912  0.92979  0.67430  1.0000 -0.4830807423
O   O81       1.0  0.76904  0.52752  0.16090  1.0000 -0.4931309274
O   O82       1.0  0.23096  0.02752  0.33910  1.0000 -0.4931309274
O   O83       1.0  0.23096  0.47248  0.83910  1.0000 -0.4931309274
O   O84       1.0  0.76904  0.97248  0.66090  1.0000 -0.4931309274
O   O85       1.0  0.04119  0.64306  0.17113  1.0000 -0.5304931974
O   O86       1.0  0.95881  0.14306  0.32887  1.0000 -0.5304931974
O   O87       1.0  0.95881  0.35694  0.82887  1.0000 -0.5304931974
O   O88       1.0  0.04119  0.85694  0.67113  1.0000 -0.5304931974
O   O89       1.0  0.04534  0.73183  0.22990  1.0000 -0.5304931974
O   O90       1.0  0.95466  0.23183  0.27010  1.0000 -0.5304931974
O   O91       1.0  0.95466  0.26817  0.77010  1.0000 -0.5304931974
O   O92       1.0  0.04534  0.76817  0.72990  1.0000 -0.5304931974
