# DDEC6 charges by PACMAN v1.1 (https://github.com/mtap-research/PACMAN-charge/)
data_2014[Cu][nan]3[ASR]4
_chemical_formula_sum              "Cu6 H6 C24 O18"
_cell_length_a       15.0744
_cell_length_b       15.0744
_cell_length_c       15.0744
_cell_angle_alpha    118.115
_cell_angle_beta     118.115
_cell_angle_gamma    118.115

_symmetry_space_group_name_H-M    "P 1"
_symmetry_Int_Tables_number       1

loop_
  _symmetry_equiv_pos_as_xyz
  'x, y, z'

loop_
  _atom_site_type_symbol
  _atom_site_label
  _atom_site_symmetry_multiplicity
  _atom_site_fract_x
  _atom_site_fract_y
  _atom_site_fract_z
  _atom_site_occupancy
  _atom_site_charge
Cu  Cu1       1.0  0.13866  0.56261  0.82703  1.0000 0.9100509868
Cu  Cu2       1.0  0.56261  0.82703  0.13866  1.0000 0.9100509868
Cu  Cu3       1.0  0.82703  0.13866  0.56261  1.0000 0.9100509868
Cu  Cu4       1.0  0.86134  0.43739  0.17297  1.0000 0.9100509868
Cu  Cu5       1.0  0.43739  0.17297  0.86134  1.0000 0.9100509868
Cu  Cu6       1.0  0.17297  0.86134  0.43739  1.0000 0.9100509868
H   H1        1.0  0.62990  0.16880  0.60610  1.0000 0.1432364917
H   H2        1.0  0.16880  0.60610  0.62990  1.0000 0.1432364917
H   H3        1.0  0.60610  0.62990  0.16880  1.0000 0.1432364917
H   H4        1.0  0.37010  0.83120  0.39390  1.0000 0.1432364917
H   H5        1.0  0.83120  0.39390  0.37010  1.0000 0.1432364917
H   H6        1.0  0.39390  0.37010  0.83120  1.0000 0.1432364917
C   C1        1.0  0.38891  0.79033  0.21786  1.0000 0.6245575335
C   C2        1.0  0.79033  0.21786  0.38891  1.0000 0.6245575335
C   C3        1.0  0.21786  0.38891  0.79033  1.0000 0.6245575335
C   C4        1.0  0.61109  0.20967  0.78214  1.0000 0.6245575335
C   C5        1.0  0.20967  0.78214  0.61109  1.0000 0.6245575335
C   C6        1.0  0.78214  0.61109  0.20967  1.0000 0.6245575335
C   C7        1.0  0.17752  0.62669  0.09279  1.0000 -0.127394382
C   C8        1.0  0.62669  0.09279  0.17752  1.0000 -0.127394382
C   C9        1.0  0.09279  0.17752  0.62669  1.0000 -0.127394382
C   C10       1.0  0.82248  0.37331  0.90721  1.0000 -0.127394382
C   C11       1.0  0.37331  0.90721  0.82248  1.0000 -0.127394382
C   C12       1.0  0.90721  0.82248  0.37331  1.0000 -0.127394382
C   C13       1.0  0.96940  0.44093  0.86807  1.0000 0.2979596244
C   C14       1.0  0.44093  0.86807  0.96940  1.0000 0.2979596244
C   C15       1.0  0.86807  0.96940  0.44093  1.0000 0.2979596244
C   C16       1.0  0.03060  0.55907  0.13193  1.0000 0.2979596244
C   C17       1.0  0.55907  0.13193  0.03060  1.0000 0.2979596244
C   C18       1.0  0.13193  0.03060  0.55907  1.0000 0.2979596244
C   C19       1.0  0.78683  0.31102  0.77285  1.0000 -0.1927316799
C   C20       1.0  0.31102  0.77285  0.78683  1.0000 -0.1927316799
C   C21       1.0  0.77285  0.78683  0.31102  1.0000 -0.1927316799
C   C22       1.0  0.21317  0.68898  0.22715  1.0000 -0.1927316799
C   C23       1.0  0.68898  0.22715  0.21317  1.0000 -0.1927316799
C   C24       1.0  0.22715  0.21317  0.68898  1.0000 -0.1927316799
O   O1        1.0  0.38215  0.78791  0.13044  1.0000 -0.5933268084
O   O2        1.0  0.78791  0.13044  0.38215  1.0000 -0.5933268084
O   O3        1.0  0.13044  0.38215  0.78791  1.0000 -0.5933268084
O   O4        1.0  0.61785  0.21209  0.86956  1.0000 -0.5933268084
O   O5        1.0  0.21209  0.86956  0.61785  1.0000 -0.5933268084
O   O6        1.0  0.86956  0.61785  0.21209  1.0000 -0.5933268084
O   O7        1.0  0.56053  0.92087  0.40470  1.0000 -0.5055345549
O   O8        1.0  0.92087  0.40470  0.56053  1.0000 -0.5038319244
O   O9        1.0  0.40470  0.56053  0.92087  1.0000 -0.5055345549
O   O10       1.0  0.43947  0.07913  0.59530  1.0000 -0.5055345549
O   O11       1.0  0.07913  0.59530  0.43947  1.0000 -0.5055345549
O   O12       1.0  0.59530  0.43947  0.07913  1.0000 -0.5055345549
O   O13       1.0  0.92432  0.36830  0.73078  1.0000 -0.5571009829
O   O14       1.0  0.36830  0.73078  0.92432  1.0000 -0.5571009829
O   O15       1.0  0.73078  0.92432  0.36830  1.0000 -0.5571009829
O   O16       1.0  0.07568  0.63170  0.26922  1.0000 -0.5571009829
O   O17       1.0  0.63170  0.26922  0.07568  1.0000 -0.5571009829
O   O18       1.0  0.26922  0.07568  0.63170  1.0000 -0.5571009829
