# DDEC6 charges by PACMAN v1.1 (https://github.com/mtap-research/PACMAN-charge/)
data_2014[Cu][nan]3[ASR]11
_chemical_formula_sum              "Cu6 H40 C56 N4 O28"
_cell_length_a       12.2094
_cell_length_b       12.2094
_cell_length_c       19.5074
_cell_angle_alpha    87.5404
_cell_angle_beta     92.4596
_cell_angle_gamma    126.058

_symmetry_space_group_name_H-M    "P 1"
_symmetry_Int_Tables_number       1

loop_
  _symmetry_equiv_pos_as_xyz
  'x, y, z'

loop_
  _atom_site_type_symbol
  _atom_site_label
  _atom_site_symmetry_multiplicity
  _atom_site_fract_x
  _atom_site_fract_y
  _atom_site_fract_z
  _atom_site_occupancy
  _atom_site_charge
Cu  Cu1       1.0  0.49241  0.45415  0.43765  1.0000 0.8080841491
Cu  Cu2       1.0  0.45415  0.49241  0.56235  1.0000 0.8080841491
Cu  Cu3       1.0  0.90319  0.29903  0.19484  1.0000 0.8483297268
Cu  Cu4       1.0  0.29903  0.90319  0.80516  1.0000 0.8483297268
Cu  Cu5       1.0  0.81302  0.05674  0.14970  1.0000 0.8483297268
Cu  Cu6       1.0  0.05674  0.81302  0.85030  1.0000 0.8483297268
H   H1        1.0  0.50710  0.22910  0.16830  1.0000 0.1199997047
H   H2        1.0  0.22910  0.50710  0.83170  1.0000 0.1199997047
H   H3        1.0  0.66490  0.85430  0.34750  1.0000 0.1388852039
H   H4        1.0  0.85430  0.66490  0.65250  1.0000 0.1388852039
H   H5        1.0  0.48950  0.86110  0.51680  1.0000 0.1334111134
H   H6        1.0  0.86110  0.48950  0.48320  1.0000 0.1334111134
H   H7        1.0  0.50150  0.03050  0.00720  1.0000 0.1388852039
H   H8        1.0  0.03050  0.50150  0.99280  1.0000 0.1388852039
H   H9        1.0  0.25870  0.30710  0.26260  1.0000 0.1199997047
H   H10       1.0  0.30710  0.25870  0.73740  1.0000 0.1199997047
H   H11       1.0  0.66100  0.17380  0.38150  1.0000 0.1334111134
H   H12       1.0  0.17380  0.66100  0.61850  1.0000 0.1334111134
H   H13       1.0  0.20980  0.08580  0.02560  1.0000 0.1388852039
H   H14       1.0  0.08580  0.20980  0.97440  1.0000 0.1388852039
H   H15       1.0  0.38530  0.09750  0.60090  1.0000 0.1199997047
H   H16       1.0  0.09750  0.38530  0.39910  1.0000 0.1199997047
H   H17       1.0  0.06630  0.10170  0.33410  1.0000 0.1115708062
H   H18       1.0  0.10170  0.06630  0.66590  1.0000 0.1115708062
H   H19       1.0  0.21990  0.16250  0.34980  1.0000 0.1199997047
H   H20       1.0  0.16250  0.21990  0.65020  1.0000 0.1199997047
H   H21       1.0  0.30820  0.94840  0.41710  1.0000 0.1038876059
H   H22       1.0  0.94840  0.30820  0.58290  1.0000 0.1038876059
H   H23       1.0  0.26690  0.84370  0.47870  1.0000 0.1115708062
H   H24       1.0  0.84370  0.26690  0.52130  1.0000 0.1115708062
H   H25       1.0  0.15550  0.04170  0.55480  1.0000 0.1115708062
H   H26       1.0  0.04170  0.15550  0.44520  1.0000 0.1115708062
H   H27       1.0  0.16500  0.92600  0.58590  1.0000 0.1115708062
H   H28       1.0  0.92600  0.16500  0.41410  1.0000 0.1115708062
H   H29       1.0  0.03360  0.93240  0.26950  1.0000 0.1199997047
H   H30       1.0  0.93240  0.03360  0.73050  1.0000 0.1199997047
H   H31       1.0  0.13470  0.94330  0.32680  1.0000 0.1038876059
H   H32       1.0  0.94330  0.13470  0.67320  1.0000 0.1038876059
H   H33       1.0  0.20090  0.97450  0.20200  1.0000 0.1038876059
H   H34       1.0  0.97450  0.20090  0.79800  1.0000 0.1038876059
H   H35       1.0  0.31510  0.06550  0.25750  1.0000 0.1038876059
H   H36       1.0  0.06550  0.31510  0.74250  1.0000 0.1038876059
H   H37       1.0  0.08410  0.84530  0.48000  1.0000 0.1115708062
H   H38       1.0  0.84530  0.08410  0.52000  1.0000 0.1115708062
H   H39       1.0  0.16150  0.99150  0.44620  1.0000 0.1038876059
H   H40       1.0  0.99150  0.16150  0.55380  1.0000 0.1038876059
C   C1        1.0  0.74490  0.08750  0.28780  1.0000 0.5697600136
C   C2        1.0  0.08750  0.74490  0.71220  1.0000 0.5697600136
C   C3        1.0  0.28290  0.97710  0.93910  1.0000 0.5800215939
C   C4        1.0  0.97710  0.28290  0.06090  1.0000 0.5800215939
C   C5        1.0  0.39680  0.23740  0.53160  1.0000 0.5597371647
C   C6        1.0  0.23740  0.39680  0.46840  1.0000 0.5597371647
C   C7        1.0  0.46590  0.18210  0.12800  1.0000 -0.1414358726
C   C8        1.0  0.18210  0.46590  0.87200  1.0000 -0.1414358726
C   C9        1.0  0.54740  0.70620  0.46130  1.0000 0.5697600136
C   C10       1.0  0.70620  0.54740  0.53870  1.0000 0.5697600136
C   C11       1.0  0.34760  0.04980  0.00560  1.0000 0.0013018564
C   C12       1.0  0.04980  0.34760  0.99440  1.0000 0.0013018564
C   C13       1.0  0.34710  0.16230  0.10370  1.0000 -0.0211472891
C   C14       1.0  0.16230  0.34710  0.89630  1.0000 -0.0211472891
C   C15       1.0  0.64910  0.14950  0.12170  1.0000 0.5868487546
C   C16       1.0  0.14950  0.64910  0.87830  1.0000 0.5868487546
C   C17       1.0  0.28530  0.21510  0.14350  1.0000 0.4091330359
C   C18       1.0  0.21510  0.28530  0.85650  1.0000 0.4091330359
C   C19       1.0  0.56610  0.02670  0.45550  1.0000 -0.0211472891
C   C20       1.0  0.02670  0.56610  0.54450  1.0000 -0.0211472891
C   C21       1.0  0.52490  0.13130  0.09210  1.0000 -0.0211472891
C   C22       1.0  0.13130  0.52490  0.90790  1.0000 -0.0211472891
C   C23       1.0  0.64210  0.89830  0.37480  1.0000 -0.1162400076
C   C24       1.0  0.89830  0.64210  0.62520  1.0000 -0.1162400076
C   C25       1.0  0.06270  0.19670  0.21880  1.0000 0.5800215939
C   C26       1.0  0.19670  0.06270  0.78120  1.0000 0.5800215939
C   C27       1.0  0.67210  0.02310  0.35430  1.0000 -0.0211472891
C   C28       1.0  0.02310  0.67210  0.64570  1.0000 -0.0211472891
C   C29       1.0  0.53630  0.90250  0.47650  1.0000 -0.1268424017
C   C30       1.0  0.90250  0.53630  0.52350  1.0000 -0.1268424017
C   C31       1.0  0.46430  0.06510  0.03120  1.0000 -0.1008452089
C   C32       1.0  0.06510  0.46430  0.96880  1.0000 -0.1008452089
C   C33       1.0  0.18890  0.21250  0.25090  1.0000 -0.0297357215
C   C34       1.0  0.21250  0.18890  0.74910  1.0000 -0.0297357215
C   C35       1.0  0.52960  0.09660  0.49990  1.0000 0.3999464402
C   C36       1.0  0.09660  0.52960  0.50010  1.0000 0.3999464402
C   C37       1.0  0.63720  0.08840  0.39470  1.0000 -0.1414358726
C   C38       1.0  0.08840  0.63720  0.60530  1.0000 -0.1414358726
C   C39       1.0  0.57650  0.83890  0.43720  1.0000 0.0013018564
C   C40       1.0  0.83890  0.57650  0.56280  1.0000 -5.75225e-05
C   C41       1.0  0.28850  0.09750  0.04240  1.0000 -0.1008452089
C   C42       1.0  0.09750  0.28850  0.95760  1.0000 -0.1008452089
C   C43       1.0  0.35230  0.09590  0.55400  1.0000 -0.0211472891
C   C44       1.0  0.09590  0.35230  0.44600  1.0000 -0.0211472891
C   C45       1.0  0.14810  0.12070  0.31500  1.0000 -0.2022493293
C   C46       1.0  0.12070  0.14810  0.68500  1.0000 -0.2022493293
C   C47       1.0  0.28670  0.93090  0.46540  1.0000 -0.1087706572
C   C48       1.0  0.93090  0.28670  0.53460  1.0000 -0.1087706572
C   C49       1.0  0.19760  0.99560  0.55010  1.0000 -0.2022493293
C   C50       1.0  0.99560  0.19760  0.44990  1.0000 -0.2022493293
C   C51       1.0  0.12380  0.99180  0.28960  1.0000 -0.1592788806
C   C52       1.0  0.99180  0.12380  0.71040  1.0000 -0.1592788806
C   C53       1.0  0.23030  0.04170  0.23670  1.0000 -0.1008452089
C   C54       1.0  0.04170  0.23030  0.76330  1.0000 -0.1008452089
C   C55       1.0  0.16850  0.93570  0.48030  1.0000 -0.1592788806
C   C56       1.0  0.93570  0.16850  0.51970  1.0000 -0.1592788806
N   N1        1.0  0.24378  0.16322  0.20720  1.0000 -0.1087706572
N   N2        1.0  0.16322  0.24378  0.79280  1.0000 -0.1087706572
N   N3        1.0  0.39770  0.03890  0.50750  1.0000 -0.1162400076
N   N4        1.0  0.03890  0.39770  0.49250  1.0000 -0.1162400076
O   O1        1.0  0.72759  0.25241  0.15716  1.0000 -0.5180516452
O   O2        1.0  0.25241  0.72759  0.84284  1.0000 -0.5180516452
O   O3        1.0  0.50872  0.66808  0.52159  1.0000 -0.5106508681
O   O4        1.0  0.66808  0.50872  0.47841  1.0000 -0.5106508681
O   O5        1.0  0.56208  0.64272  0.41810  1.0000 -0.5106508681
O   O6        1.0  0.64272  0.56208  0.58190  1.0000 -0.5106508681
O   O7        1.0  0.05532  0.29348  0.22733  1.0000 -0.5273402145
O   O8        1.0  0.29348  0.05532  0.77267  1.0000 -0.5273402145
O   O9        1.0  0.40575  0.30865  0.57837  1.0000 -0.5106508681
O   O10       1.0  0.30865  0.40575  0.42163  1.0000 -0.5106508681
O   O11       1.0  0.81285  0.21455  0.28185  1.0000 -0.5106508681
O   O12       1.0  0.21455  0.81285  0.71815  1.0000 -0.5180516452
O   O13       1.0  0.97651  0.08609  0.19065  1.0000 -0.5106508681
O   O14       1.0  0.08609  0.97651  0.80935  1.0000 -0.5106508681
O   O15       1.0  0.15700  0.92020  0.93213  1.0000 -0.5273402145
O   O16       1.0  0.92020  0.15700  0.06787  1.0000 -0.5273402145
O   O17       1.0  0.41649  0.26911  0.46864  1.0000 -0.5106508681
O   O18       1.0  0.26911  0.41649  0.53136  1.0000 -0.5106508681
O   O19       1.0  0.72990  0.00810  0.24283  1.0000 -0.5371344795
O   O20       1.0  0.00810  0.72990  0.75717  1.0000 -0.5371344795
O   O21       1.0  0.66520  0.06080  0.10940  1.0000 -0.5037749519
O   O22       1.0  0.06080  0.66520  0.89060  1.0000 -0.5037749519
O   O23       1.0  0.35708  0.97912  0.89700  1.0000 -0.5106508681
O   O24       1.0  0.97912  0.35708  0.10300  1.0000 -0.5106508681
O   O25       1.0  0.27287  0.30073  0.11920  1.0000 -0.4386902263
O   O26       1.0  0.30073  0.27287  0.88080  1.0000 -0.4386902263
O   O27       1.0  0.61634  0.20006  0.53040  1.0000 -0.4712767711
O   O28       1.0  0.20006  0.61634  0.46960  1.0000 -0.4712767711
