# DDEC6 charges by PACMAN v1.1 (https://github.com/mtap-research/PACMAN-charge/)
data_2014[Mg][acs]3[ASR]2
_chemical_formula_sum              "Mg4 H12 C12 O24"
_cell_length_a       7.4007
_cell_length_b       7.8928
_cell_length_c       13.7693
_cell_angle_alpha    90
_cell_angle_beta     90
_cell_angle_gamma    90

_symmetry_space_group_name_H-M    "P 1"
_symmetry_Int_Tables_number       1

loop_
  _symmetry_equiv_pos_as_xyz
  'x, y, z'

loop_
  _atom_site_type_symbol
  _atom_site_label
  _atom_site_symmetry_multiplicity
  _atom_site_fract_x
  _atom_site_fract_y
  _atom_site_fract_z
  _atom_site_occupancy
  _atom_site_charge
Mg  Mg1       1.0  0.25959  0.22279  0.16466  1.0000 1.2932948848
Mg  Mg2       1.0  0.75959  0.27721  0.83534  1.0000 1.2932948848
Mg  Mg3       1.0  0.24041  0.77721  0.66466  1.0000 1.2932948848
Mg  Mg4       1.0  0.74041  0.72279  0.33534  1.0000 1.2932948848
H   H1        1.0  0.97290  0.94300  0.20220  1.0000 0.1068208717
H   H2        1.0  0.47290  0.55700  0.79780  1.0000 0.1068208717
H   H3        1.0  0.52710  0.05700  0.70220  1.0000 0.1068208717
H   H4        1.0  0.02710  0.44300  0.29780  1.0000 0.1068208717
H   H5        1.0  0.49780  0.50500  0.22470  1.0000 0.1036700445
H   H6        1.0  0.99780  0.99500  0.77530  1.0000 0.1036700445
H   H7        1.0  0.00220  0.49500  0.72470  1.0000 0.1036700445
H   H8        1.0  0.50220  0.00500  0.27530  1.0000 0.1036700445
H   H9        1.0  0.97840  0.30830  0.01470  1.0000 0.1068208717
H   H10       1.0  0.47840  0.19170  0.98530  1.0000 0.1068208717
H   H11       1.0  0.52160  0.69170  0.51470  1.0000 0.1068208717
H   H12       1.0  0.02160  0.80830  0.48530  1.0000 0.1068208717
C   C1        1.0  0.99560  0.98960  0.26463  1.0000 0.5279469273
C   C2        1.0  0.49560  0.51040  0.73537  1.0000 0.5279469273
C   C3        1.0  0.50440  0.01040  0.76463  1.0000 0.5279469273
C   C4        1.0  0.00440  0.48960  0.23537  1.0000 0.5279469273
C   C5        1.0  0.49380  0.44520  0.28458  1.0000 0.5129717967
C   C6        1.0  0.99380  0.05480  0.71542  1.0000 0.5129717967
C   C7        1.0  0.00620  0.55480  0.78458  1.0000 0.5129717967
C   C8        1.0  0.50620  0.94520  0.21542  1.0000 0.5129717967
C   C9        1.0  0.00370  0.19400  0.99787  1.0000 0.5233843109
C   C10       1.0  0.50370  0.30600  0.00213  1.0000 0.5233843109
C   C11       1.0  0.49630  0.80600  0.49787  1.0000 0.5233843109
C   C12       1.0  0.99630  0.69400  0.50213  1.0000 0.5233843109
O   O1        1.0  0.10876  0.10437  0.26952  1.0000 -0.5271958927
O   O2        1.0  0.60876  0.39563  0.73048  1.0000 -0.5271958927
O   O3        1.0  0.39124  0.89563  0.76952  1.0000 -0.5271958927
O   O4        1.0  0.89124  0.60437  0.23048  1.0000 -0.5271958927
O   O5        1.0  0.90863  0.92947  0.33374  1.0000 -0.537757642
O   O6        1.0  0.40863  0.57053  0.66626  1.0000 -0.537757642
O   O7        1.0  0.59137  0.07053  0.83374  1.0000 -0.537757642
O   O8        1.0  0.09137  0.42947  0.16626  1.0000 -0.537757642
O   O9        1.0  0.40248  0.31092  0.28599  1.0000 -0.537757642
O   O10       1.0  0.90248  0.18908  0.71401  1.0000 -0.537757642
O   O11       1.0  0.09752  0.68908  0.78599  1.0000 -0.537757642
O   O12       1.0  0.59752  0.81092  0.21401  1.0000 -0.537757642
O   O13       1.0  0.57870  0.50720  0.35290  1.0000 -0.5105435768
O   O14       1.0  0.07870  0.99280  0.64710  1.0000 -0.5105435768
O   O15       1.0  0.92130  0.49280  0.85290  1.0000 -0.5105435768
O   O16       1.0  0.42130  0.00720  0.14710  1.0000 -0.5105435768
O   O17       1.0  0.11935  0.11838  0.04813  1.0000 -0.537757642
O   O18       1.0  0.61935  0.38162  0.95187  1.0000 -0.537757642
O   O19       1.0  0.38065  0.88162  0.54813  1.0000 -0.537757642
O   O20       1.0  0.88065  0.61838  0.45187  1.0000 -0.537757642
O   O21       1.0  0.91926  0.13429  0.92851  1.0000 -0.523897312
O   O22       1.0  0.41926  0.36571  0.07149  1.0000 -0.523897312
O   O23       1.0  0.58074  0.86571  0.42851  1.0000 -0.523897312
O   O24       1.0  0.08074  0.63429  0.57149  1.0000 -0.523897312
