# DDEC6 charges by PACMAN v1.1 (https://github.com/mtap-research/PACMAN-charge/)
data_2014[Co][twt]3[ASR]1
_chemical_formula_sum              "Co3 H24 C42 O18"
_cell_length_a       17.372
_cell_length_b       17.372
_cell_length_c       8.6547
_cell_angle_alpha    90
_cell_angle_beta     90
_cell_angle_gamma    120

_symmetry_space_group_name_H-M    "P 1"
_symmetry_Int_Tables_number       1

loop_
  _symmetry_equiv_pos_as_xyz
  'x, y, z'

loop_
  _atom_site_type_symbol
  _atom_site_label
  _atom_site_symmetry_multiplicity
  _atom_site_fract_x
  _atom_site_fract_y
  _atom_site_fract_z
  _atom_site_occupancy
  _atom_site_charge
Co  Co1       1.0  0.46969  0.46969  0.00000  1.0000 1.0277095335
Co  Co2       1.0  0.53031  0.00000  0.66667  1.0000 1.0277095335
Co  Co3       1.0  0.00000  0.53031  0.33333  1.0000 1.0277095335
H   H1        1.0  0.42490  0.84650  0.82760  1.0000 0.3518959778
H   H2        1.0  0.15350  0.57840  0.49427  1.0000 0.3518959778
H   H3        1.0  0.42160  0.57510  0.16093  1.0000 0.3518959778
H   H4        1.0  0.57840  0.15350  0.50573  1.0000 0.3518959778
H   H5        1.0  0.57510  0.42160  0.83907  1.0000 0.3518959778
H   H6        1.0  0.84650  0.42490  0.17240  1.0000 0.3518959778
H   H7        1.0  0.46470  0.69900  0.99640  1.0000 0.14007581
H   H8        1.0  0.30100  0.76570  0.66307  1.0000 0.14007581
H   H9        1.0  0.23430  0.53530  0.32973  1.0000 0.14007581
H   H10       1.0  0.76570  0.30100  0.33693  1.0000 0.14007581
H   H11       1.0  0.53530  0.23430  0.67027  1.0000 0.14007581
H   H12       1.0  0.69900  0.46470  0.00360  1.0000 0.14007581
H   H13       1.0  0.69190  0.88040  0.78460  1.0000 0.1313869007
H   H14       1.0  0.11960  0.81150  0.45127  1.0000 0.1313869007
H   H15       1.0  0.18850  0.30810  0.11793  1.0000 0.1313869007
H   H16       1.0  0.81150  0.11960  0.54873  1.0000 0.1313869007
H   H17       1.0  0.30810  0.18850  0.88207  1.0000 0.1313869007
H   H18       1.0  0.88040  0.69190  0.21540  1.0000 0.1313869007
H   H19       1.0  0.75890  0.80040  0.86090  1.0000 0.1136388677
H   H20       1.0  0.19960  0.95850  0.52757  1.0000 0.1136388677
H   H21       1.0  0.04150  0.24110  0.19423  1.0000 0.1136388677
H   H22       1.0  0.95850  0.19960  0.47243  1.0000 0.1136388677
H   H23       1.0  0.24110  0.04150  0.80577  1.0000 0.1136388677
H   H24       1.0  0.80040  0.75890  0.13910  1.0000 0.1136388677
C   C1        1.0  0.57093  0.79672  0.88130  1.0000 -0.0035976388
C   C2        1.0  0.20328  0.77421  0.54797  1.0000 -0.0035976388
C   C3        1.0  0.22579  0.42907  0.21463  1.0000 -0.0035976388
C   C4        1.0  0.77421  0.20328  0.45203  1.0000 -0.0035976388
C   C5        1.0  0.42907  0.22579  0.78537  1.0000 -0.0035976388
C   C6        1.0  0.79672  0.57093  0.11870  1.0000 -0.0035976388
C   C7        1.0  0.65440  0.70142  0.97440  1.0000 -0.0051789781
C   C8        1.0  0.29858  0.95298  0.64107  1.0000 -0.0051789781
C   C9        1.0  0.04702  0.34560  0.30773  1.0000 -0.0051789781
C   C10       1.0  0.95298  0.29858  0.35893  1.0000 -0.0051789781
C   C11       1.0  0.34560  0.04702  0.69227  1.0000 -0.0051789781
C   C12       1.0  0.70142  0.65440  0.02560  1.0000 -0.0051789781
C   C13       1.0  0.52474  0.71945  0.96860  1.0000 -0.2342222137
C   C14       1.0  0.28055  0.80529  0.63527  1.0000 -0.2342222137
C   C15       1.0  0.19471  0.47526  0.30193  1.0000 -0.2342222137
C   C16       1.0  0.80529  0.28055  0.36473  1.0000 -0.2342222137
C   C17       1.0  0.47526  0.19471  0.69807  1.0000 -0.2342222137
C   C18       1.0  0.71945  0.52474  0.03140  1.0000 -0.2342222137
C   C19       1.0  0.56511  0.67215  0.01540  1.0000 0.2838781076
C   C20       1.0  0.32785  0.89296  0.68207  1.0000 0.2838781076
C   C21       1.0  0.10704  0.43489  0.34873  1.0000 0.2838781076
C   C22       1.0  0.89296  0.32785  0.31793  1.0000 0.2838781076
C   C23       1.0  0.43489  0.10704  0.65127  1.0000 0.2838781076
C   C24       1.0  0.67215  0.56511  0.98460  1.0000 0.2838781076
C   C25       1.0  0.65925  0.82721  0.84240  1.0000 -0.1097679141
C   C26       1.0  0.17279  0.83204  0.50907  1.0000 -0.1097679141
C   C27       1.0  0.16796  0.34075  0.17573  1.0000 -0.1097679141
C   C28       1.0  0.83204  0.17279  0.49093  1.0000 -0.1097679141
C   C29       1.0  0.34075  0.16796  0.82427  1.0000 -0.1097679141
C   C30       1.0  0.82721  0.65925  0.15760  1.0000 -0.1097679141
C   C31       1.0  0.52634  0.84698  0.82890  1.0000 0.5853687423
C   C32       1.0  0.15302  0.67936  0.49557  1.0000 0.5853687423
C   C33       1.0  0.32064  0.47366  0.16223  1.0000 0.5849672454
C   C34       1.0  0.67936  0.15302  0.50443  1.0000 0.5849672454
C   C35       1.0  0.47366  0.32064  0.83777  1.0000 0.5853687423
C   C36       1.0  0.84698  0.52634  0.17110  1.0000 0.5849672454
C   C37       1.0  0.69870  0.77930  0.88880  1.0000 -0.1437264261
C   C38       1.0  0.22070  0.91940  0.55547  1.0000 -0.1437264261
C   C39       1.0  0.08060  0.30130  0.22213  1.0000 -0.1437264261
C   C40       1.0  0.91940  0.22070  0.44453  1.0000 -0.1437264261
C   C41       1.0  0.30130  0.08060  0.77787  1.0000 -0.1437264261
C   C42       1.0  0.77930  0.69870  0.11120  1.0000 -0.1437264261
O   O1        1.0  0.57181  0.91800  0.75910  1.0000 -0.5529597106
O   O2        1.0  0.08200  0.65381  0.42577  1.0000 -0.5529597106
O   O3        1.0  0.34619  0.42819  0.09243  1.0000 -0.5529597106
O   O4        1.0  0.65381  0.08200  0.57423  1.0000 -0.5529597106
O   O5        1.0  0.42819  0.34619  0.90757  1.0000 -0.5529597106
O   O6        1.0  0.91800  0.57181  0.24090  1.0000 -0.5529597106
O   O7        1.0  0.51970  0.59706  0.10260  1.0000 -0.6165856821
O   O8        1.0  0.40294  0.92264  0.76927  1.0000 -0.6165856821
O   O9        1.0  0.07736  0.48030  0.43593  1.0000 -0.6165856821
O   O10       1.0  0.92264  0.40294  0.23073  1.0000 -0.6165856821
O   O11       1.0  0.48030  0.07736  0.56407  1.0000 -0.6165856821
O   O12       1.0  0.59706  0.51970  0.89740  1.0000 -0.6165856821
O   O13       1.0  0.44321  0.81329  0.86190  1.0000 -0.4538598609
O   O14       1.0  0.18671  0.62992  0.52857  1.0000 -0.4538598609
O   O15       1.0  0.37008  0.55679  0.19523  1.0000 -0.4538598609
O   O16       1.0  0.62992  0.18671  0.47143  1.0000 -0.4538598609
O   O17       1.0  0.55679  0.37008  0.80477  1.0000 -0.4538598609
O   O18       1.0  0.81329  0.44321  0.13810  1.0000 -0.4538598609
