# DDEC6 charges by PACMAN v1.1 (https://github.com/mtap-research/PACMAN-charge/)
data_2014[Cd][gwg]3[ASR]1
_chemical_formula_sum              "Cd4 H36 C44 N24 O16"
_cell_length_a       11.014
_cell_length_b       10.8512
_cell_length_c       17.6826
_cell_angle_alpha    90
_cell_angle_beta     110.572
_cell_angle_gamma    90

_symmetry_space_group_name_H-M    "P 1"
_symmetry_Int_Tables_number       1

loop_
  _symmetry_equiv_pos_as_xyz
  'x, y, z'

loop_
  _atom_site_type_symbol
  _atom_site_label
  _atom_site_symmetry_multiplicity
  _atom_site_fract_x
  _atom_site_fract_y
  _atom_site_fract_z
  _atom_site_occupancy
  _atom_site_charge
Cd  Cd1       1.0  0.19427  0.18550  0.81557  1.0000 0.8449447241
Cd  Cd2       1.0  0.80573  0.68550  0.68443  1.0000 0.8452116337
Cd  Cd3       1.0  0.80573  0.81450  0.18443  1.0000 0.8452116337
Cd  Cd4       1.0  0.19427  0.31450  0.31557  1.0000 0.8452116337
H   H1        1.0  0.20720  0.95180  0.11810  1.0000 0.1310450959
H   H2        1.0  0.79280  0.45180  0.38190  1.0000 0.1310450959
H   H3        1.0  0.79280  0.04820  0.88190  1.0000 0.1310450959
H   H4        1.0  0.20720  0.54820  0.61810  1.0000 0.1310450959
H   H5        1.0  0.07960  0.87070  0.08670  1.0000 0.1310450959
H   H6        1.0  0.92040  0.37070  0.41330  1.0000 0.1310450959
H   H7        1.0  0.92040  0.12930  0.91330  1.0000 0.1310450959
H   H8        1.0  0.07960  0.62930  0.58670  1.0000 0.1310450959
H   H9        1.0  0.19920  0.70890  0.05610  1.0000 0.1375350132
H   H10       1.0  0.80080  0.20890  0.44390  1.0000 0.1375350132
H   H11       1.0  0.80080  0.29110  0.94390  1.0000 0.1375350132
H   H12       1.0  0.19920  0.79110  0.55610  1.0000 0.1375350132
H   H13       1.0  0.25340  0.74110  0.14950  1.0000 0.1375350132
H   H14       1.0  0.74660  0.24110  0.35050  1.0000 0.1375350132
H   H15       1.0  0.74660  0.25890  0.85050  1.0000 0.1375350132
H   H16       1.0  0.25340  0.75890  0.64950  1.0000 0.1375350132
H   H17       1.0  0.03220  0.90990  0.81690  1.0000 0.1310450959
H   H18       1.0  0.96780  0.40990  0.68310  1.0000 0.1310450959
H   H19       1.0  0.96780  0.09010  0.18310  1.0000 0.1310450959
H   H20       1.0  0.03220  0.59010  0.31690  1.0000 0.1310450959
H   H21       1.0  0.24060  0.09100  0.00900  1.0000 0.1183213653
H   H22       1.0  0.75940  0.59100  0.49100  1.0000 0.1183213653
H   H23       1.0  0.75940  0.90900  0.99100  1.0000 0.1183213653
H   H24       1.0  0.24060  0.40900  0.50900  1.0000 0.1183213653
H   H25       1.0  0.55380  0.83380  0.00180  1.0000 0.1183213653
H   H26       1.0  0.44620  0.33380  0.49820  1.0000 0.1183213653
H   H27       1.0  0.44620  0.16620  0.99820  1.0000 0.1183213653
H   H28       1.0  0.55380  0.66620  0.50180  1.0000 0.1183213653
H   H29       1.0  0.49800  0.80370  0.20560  1.0000 0.1310450959
H   H30       1.0  0.50200  0.30370  0.29440  1.0000 0.1310450959
H   H31       1.0  0.50200  0.19630  0.79440  1.0000 0.1310450959
H   H32       1.0  0.49800  0.69630  0.70560  1.0000 0.1310450959
H   H33       1.0  0.84420  0.84720  0.44900  1.0000 0.1183213653
H   H34       1.0  0.15580  0.34720  0.05100  1.0000 0.1183213653
H   H35       1.0  0.15580  0.15280  0.55100  1.0000 0.1183213653
H   H36       1.0  0.84420  0.65280  0.94900  1.0000 0.1183213653
C   C1        1.0  0.16180  0.88810  0.07910  1.0000 -0.1511242397
C   C2        1.0  0.83820  0.38810  0.42090  1.0000 -0.1511242397
C   C3        1.0  0.83820  0.11190  0.92090  1.0000 -0.1511242397
C   C4        1.0  0.16180  0.61190  0.57910  1.0000 -0.1511242397
C   C5        1.0  0.24340  0.77230  0.09570  1.0000 -0.1511242397
C   C6        1.0  0.75660  0.27230  0.40430  1.0000 -0.1511242397
C   C7        1.0  0.75660  0.22770  0.90430  1.0000 -0.1511242397
C   C8        1.0  0.24340  0.72770  0.59570  1.0000 -0.1511242397
C   C9        1.0  0.07310  0.93240  0.87130  1.0000 0.1692606874
C   C10       1.0  0.92690  0.43240  0.62870  1.0000 0.1692606874
C   C11       1.0  0.92690  0.06760  0.12870  1.0000 0.1692606874
C   C12       1.0  0.07310  0.56760  0.37130  1.0000 0.1692606874
C   C13       1.0  0.18600  0.03250  0.97410  1.0000 0.0606669572
C   C14       1.0  0.81400  0.53250  0.52590  1.0000 0.0606669572
C   C15       1.0  0.81400  0.96750  0.02590  1.0000 0.0606669572
C   C16       1.0  0.18600  0.46750  0.47410  1.0000 0.0606669572
C   C17       1.0  0.51300  0.82340  0.03990  1.0000 0.1375350132
C   C18       1.0  0.48700  0.32340  0.46010  1.0000 0.1375350132
C   C19       1.0  0.48700  0.17660  0.96010  1.0000 0.1375350132
C   C20       1.0  0.51300  0.67660  0.53990  1.0000 0.1375350132
C   C21       1.0  0.48570  0.80770  0.15030  1.0000 0.0786922623
C   C22       1.0  0.51430  0.30770  0.34970  1.0000 0.0786922623
C   C23       1.0  0.51430  0.19230  0.84970  1.0000 0.0786922623
C   C24       1.0  0.48570  0.69230  0.65030  1.0000 0.0786922623
C   C25       1.0  0.04790  0.02530  0.58290  1.0000 -0.0227709722
C   C26       1.0  0.95210  0.52530  0.91710  1.0000 -0.0227709722
C   C27       1.0  0.95210  0.97470  0.41710  1.0000 -0.0227709722
C   C28       1.0  0.04790  0.47470  0.08290  1.0000 -0.0227709722
C   C29       1.0  0.95380  0.93270  0.55190  1.0000 -0.0392884489
C   C30       1.0  0.04620  0.43270  0.94810  1.0000 -0.0392884489
C   C31       1.0  0.04620  0.06730  0.44810  1.0000 -0.0392884489
C   C32       1.0  0.95380  0.56730  0.05190  1.0000 -0.0392884489
C   C33       1.0  0.90720  0.90890  0.46970  1.0000 -0.1413401577
C   C34       1.0  0.09280  0.40890  0.03030  1.0000 -0.1413401577
C   C35       1.0  0.09280  0.09110  0.53030  1.0000 -0.1413401577
C   C36       1.0  0.90720  0.59110  0.96970  1.0000 -0.1413401577
C   C37       1.0  0.09800  0.06180  0.67040  1.0000 0.5594011184
C   C38       1.0  0.90200  0.56180  0.82960  1.0000 0.5594011184
C   C39       1.0  0.90200  0.93820  0.32960  1.0000 0.5594011184
C   C40       1.0  0.09800  0.43820  0.17040  1.0000 0.5594011184
C   C41       1.0  0.90830  0.85270  0.60620  1.0000 0.55004231
C   C42       1.0  0.09170  0.35270  0.89380  1.0000 0.55004231
C   C43       1.0  0.09170  0.14730  0.39380  1.0000 0.55004231
C   C44       1.0  0.90830  0.64730  0.10620  1.0000 0.55004231
N   N1        1.0  0.13500  0.93470  0.99740  1.0000 0.1557064043
N   N2        1.0  0.86500  0.43470  0.50260  1.0000 0.1557064043
N   N3        1.0  0.86500  0.06530  0.00260  1.0000 0.1549708482
N   N4        1.0  0.13500  0.56530  0.49740  1.0000 0.1557064043
N   N5        1.0  0.06240  0.86690  0.93130  1.0000 -0.2691714231
N   N6        1.0  0.93760  0.36690  0.56870  1.0000 -0.2691714231
N   N7        1.0  0.93760  0.13310  0.06870  1.0000 -0.2691714231
N   N8        1.0  0.06240  0.63310  0.43130  1.0000 -0.2691714231
N   N9        1.0  0.14790  0.03490  0.89410  1.0000 -0.3307514551
N   N10       1.0  0.85210  0.53490  0.60590  1.0000 -0.3307514551
N   N11       1.0  0.85210  0.96510  0.10590  1.0000 -0.3307514551
N   N12       1.0  0.14790  0.46510  0.39410  1.0000 -0.3307514551
N   N13       1.0  0.37240  0.79630  0.09110  1.0000 0.1692606874
N   N14       1.0  0.62760  0.29630  0.40890  1.0000 0.1692606874
N   N15       1.0  0.62760  0.20370  0.90890  1.0000 0.1692606874
N   N16       1.0  0.37240  0.70370  0.59110  1.0000 0.1692606874
N   N17       1.0  0.38780  0.80570  0.01900  1.0000 -0.2409577433
N   N18       1.0  0.61220  0.30570  0.48100  1.0000 -0.2409577433
N   N19       1.0  0.61220  0.19430  0.98100  1.0000 -0.2409577433
N   N20       1.0  0.38780  0.69430  0.51900  1.0000 -0.2409577433
N   N21       1.0  0.57960  0.82550  0.12060  1.0000 -0.319764449
N   N22       1.0  0.42040  0.32550  0.37940  1.0000 -0.319764449
N   N23       1.0  0.42040  0.17450  0.87940  1.0000 -0.319764449
N   N24       1.0  0.57960  0.67450  0.62060  1.0000 -0.319764449
O   O1        1.0  0.21890  0.05570  0.70840  1.0000 -0.5841174785
O   O2        1.0  0.78110  0.55570  0.79160  1.0000 -0.5841174785
O   O3        1.0  0.78110  0.94430  0.29160  1.0000 -0.5841174785
O   O4        1.0  0.21890  0.44430  0.20840  1.0000 -0.5841174785
O   O5        1.0  0.02171  0.10550  0.70141  1.0000 -0.528858735
O   O6        1.0  0.97829  0.60550  0.79859  1.0000 -0.528858735
O   O7        1.0  0.97829  0.89450  0.29859  1.0000 -0.528858735
O   O8        1.0  0.02171  0.39450  0.20141  1.0000 -0.528858735
O   O9        1.0  0.98530  0.81950  0.67270  1.0000 -0.528858735
O   O10       1.0  0.01470  0.31950  0.82730  1.0000 -0.528858735
O   O11       1.0  0.01470  0.18050  0.32730  1.0000 -0.528858735
O   O12       1.0  0.98530  0.68050  0.17270  1.0000 -0.528858735
O   O13       1.0  0.79040  0.81980  0.57880  1.0000 -0.5716128859
O   O14       1.0  0.20960  0.31980  0.92120  1.0000 -0.5716128859
O   O15       1.0  0.20960  0.18020  0.42120  1.0000 -0.5716128859
O   O16       1.0  0.79040  0.68020  0.07880  1.0000 -0.5716128859
