# DDEC6 charges by PACMAN v1.1 (https://github.com/mtap-research/PACMAN-charge/)
data_2014[Cu][cds]3[ASR]1
_chemical_formula_sum              "Cu4 H72 C100 N8 O16"
_cell_length_a       10.8445
_cell_length_b       17.4839
_cell_length_c       13.7894
_cell_angle_alpha    90
_cell_angle_beta     100.429
_cell_angle_gamma    90

_symmetry_space_group_name_H-M    "P 1"
_symmetry_Int_Tables_number       1

loop_
  _symmetry_equiv_pos_as_xyz
  'x, y, z'

loop_
  _atom_site_type_symbol
  _atom_site_label
  _atom_site_symmetry_multiplicity
  _atom_site_fract_x
  _atom_site_fract_y
  _atom_site_fract_z
  _atom_site_occupancy
  _atom_site_charge
Cu  Cu1       1.0  0.03977  0.75204  0.25266  1.0000 0.7253858795
Cu  Cu2       1.0  0.46023  0.25204  0.74734  1.0000 0.7253858795
Cu  Cu3       1.0  0.96023  0.24796  0.74734  1.0000 0.7253858795
Cu  Cu4       1.0  0.53977  0.74796  0.25266  1.0000 0.7253858795
H   H1        1.0  0.90820  0.58900  0.55140  1.0000 0.1102472132
H   H2        1.0  0.59180  0.08900  0.44860  1.0000 0.1102472132
H   H3        1.0  0.09180  0.41100  0.44860  1.0000 0.1102472132
H   H4        1.0  0.40820  0.91100  0.55140  1.0000 0.1102472132
H   H5        1.0  0.99750  0.51830  0.68610  1.0000 0.1102472132
H   H6        1.0  0.50250  0.01830  0.31390  1.0000 0.1102472132
H   H7        1.0  0.00250  0.48170  0.31390  1.0000 0.1102472132
H   H8        1.0  0.49750  0.98170  0.68610  1.0000 0.1102472132
H   H9        1.0  0.33490  0.56830  0.63260  1.0000 0.1102472132
H   H10       1.0  0.16510  0.06830  0.36740  1.0000 0.1102472132
H   H11       1.0  0.66510  0.43170  0.36740  1.0000 0.1102472132
H   H12       1.0  0.83490  0.93170  0.63260  1.0000 0.1102472132
H   H13       1.0  0.24730  0.63900  0.49810  1.0000 0.1172774018
H   H14       1.0  0.25270  0.13900  0.50190  1.0000 0.1172774018
H   H15       1.0  0.75270  0.36100  0.50190  1.0000 0.1172774018
H   H16       1.0  0.74730  0.86100  0.49810  1.0000 0.1172774018
H   H17       1.0  0.28910  0.44740  0.73610  1.0000 0.1318151125
H   H18       1.0  0.21090  0.94740  0.26390  1.0000 0.1318151125
H   H19       1.0  0.71090  0.55260  0.26390  1.0000 0.1318151125
H   H20       1.0  0.78910  0.05260  0.73610  1.0000 0.1318151125
H   H21       1.0  0.17170  0.45910  0.78620  1.0000 0.1318151125
H   H22       1.0  0.32830  0.95910  0.21380  1.0000 0.1318151125
H   H23       1.0  0.82830  0.54090  0.21380  1.0000 0.1318151125
H   H24       1.0  0.67170  0.04090  0.78620  1.0000 0.1318151125
H   H25       1.0  0.17310  0.57210  0.90000  1.0000 0.1102472132
H   H26       1.0  0.32690  0.07210  0.10000  1.0000 0.1102472132
H   H27       1.0  0.82690  0.42790  0.10000  1.0000 0.1102472132
H   H28       1.0  0.67310  0.92790  0.90000  1.0000 0.1102472132
H   H29       1.0  0.29080  0.64110  0.02560  1.0000 0.1172774018
H   H30       1.0  0.20920  0.14110  0.97440  1.0000 0.1172774018
H   H31       1.0  0.70920  0.35890  0.97440  1.0000 0.1172774018
H   H32       1.0  0.79080  0.85890  0.02560  1.0000 0.1172774018
H   H33       1.0  0.60160  0.57950  0.92980  1.0000 0.1102472132
H   H34       1.0  0.89840  0.07950  0.07020  1.0000 0.1102472132
H   H35       1.0  0.39840  0.42050  0.07020  1.0000 0.1102472132
H   H36       1.0  0.10160  0.92050  0.92980  1.0000 0.1102472132
H   H37       1.0  0.48340  0.50810  0.80730  1.0000 0.1102472132
H   H38       1.0  0.01660  0.00810  0.19270  1.0000 0.1102472132
H   H39       1.0  0.51660  0.49190  0.19270  1.0000 0.1102472132
H   H40       1.0  0.98340  0.99190  0.80730  1.0000 0.1102472132
H   H41       1.0  0.17560  0.81940  0.44210  1.0000 0.1172774018
H   H42       1.0  0.32440  0.31940  0.55790  1.0000 0.1172774018
H   H43       1.0  0.82440  0.18060  0.55790  1.0000 0.1172774018
H   H44       1.0  0.67560  0.68060  0.44210  1.0000 0.1172774018
H   H45       1.0  0.16320  0.92100  0.54460  1.0000 0.1406746705
H   H46       1.0  0.33680  0.42100  0.45540  1.0000 0.1406746705
H   H47       1.0  0.83680  0.07900  0.45540  1.0000 0.1406746705
H   H48       1.0  0.66320  0.57900  0.54460  1.0000 0.1406746705
H   H49       1.0  0.85100  0.98620  0.36460  1.0000 0.1318151125
H   H50       1.0  0.64900  0.48620  0.63540  1.0000 0.1318151125
H   H51       1.0  0.14900  0.01380  0.63540  1.0000 0.1318151125
H   H52       1.0  0.35100  0.51380  0.36460  1.0000 0.1318151125
H   H53       1.0  0.87260  0.88350  0.26750  1.0000 0.1102472132
H   H54       1.0  0.62740  0.38350  0.73250  1.0000 0.1102472132
H   H55       1.0  0.12740  0.11650  0.73250  1.0000 0.1102472132
H   H56       1.0  0.37260  0.61650  0.26750  1.0000 0.1102472132
H   H57       1.0  0.15190  0.60030  0.24030  1.0000 0.101515529
H   H58       1.0  0.34810  0.10030  0.75970  1.0000 0.101515529
H   H59       1.0  0.84810  0.39970  0.75970  1.0000 0.101515529
H   H60       1.0  0.65190  0.89970  0.24030  1.0000 0.101515529
H   H61       1.0  0.14520  0.49630  0.13950  1.0000 0.1318151125
H   H62       1.0  0.35480  0.99630  0.86050  1.0000 0.1318151125
H   H63       1.0  0.85480  0.50370  0.86050  1.0000 0.1318151125
H   H64       1.0  0.64520  0.00370  0.13950  1.0000 0.1318151125
H   H65       1.0  0.86540  0.59660  0.95520  1.0000 0.1406746705
H   H66       1.0  0.63460  0.09660  0.04480  1.0000 0.1406746705
H   H67       1.0  0.13460  0.40340  0.04480  1.0000 0.1406746705
H   H68       1.0  0.36540  0.90340  0.95520  1.0000 0.1406746705
H   H69       1.0  0.88110  0.69790  0.06060  1.0000 0.1172774018
H   H70       1.0  0.61890  0.19790  0.93940  1.0000 0.1172774018
H   H71       1.0  0.11890  0.30210  0.93940  1.0000 0.1172774018
H   H72       1.0  0.38110  0.80210  0.06060  1.0000 0.1172774018
C   C1        1.0  0.00910  0.66357  0.41910  1.0000 0.5440098991
C   C2        1.0  0.49090  0.16357  0.58090  1.0000 0.5440098991
C   C3        1.0  0.99090  0.33643  0.58090  1.0000 0.5440098991
C   C4        1.0  0.50910  0.83643  0.41910  1.0000 0.5440098991
C   C5        1.0  0.06730  0.62095  0.50926  1.0000 -0.0335701768
C   C6        1.0  0.43270  0.12095  0.49074  1.0000 -0.0335701768
C   C7        1.0  0.93270  0.37905  0.49074  1.0000 -0.0335701768
C   C8        1.0  0.56730  0.87905  0.50926  1.0000 -0.0335701768
C   C9        1.0  0.99500  0.58480  0.56700  1.0000 -0.0988347493
C   C10       1.0  0.50500  0.08480  0.43300  1.0000 -0.0988347493
C   C11       1.0  0.00500  0.41520  0.43300  1.0000 -0.0988347493
C   C12       1.0  0.49500  0.91520  0.56700  1.0000 -0.0988347493
C   C13       1.0  0.04890  0.54210  0.64800  1.0000 -0.1592320787
C   C14       1.0  0.45110  0.04210  0.35200  1.0000 -0.1592320787
C   C15       1.0  0.95110  0.45790  0.35200  1.0000 -0.1592320787
C   C16       1.0  0.54890  0.95790  0.64800  1.0000 -0.1592320787
C   C17       1.0  0.17600  0.53431  0.67337  1.0000 0.1406746705
C   C18       1.0  0.32400  0.03431  0.32663  1.0000 0.1406746705
C   C19       1.0  0.82400  0.46569  0.32663  1.0000 0.1406746705
C   C20       1.0  0.67600  0.96569  0.67337  1.0000 0.1406746705
C   C21       1.0  0.24810  0.57182  0.61610  1.0000 -0.1592320787
C   C22       1.0  0.25190  0.07182  0.38390  1.0000 -0.1592320787
C   C23       1.0  0.75190  0.42818  0.38390  1.0000 -0.1592320787
C   C24       1.0  0.74810  0.92818  0.61610  1.0000 -0.1592320787
C   C25       1.0  0.19580  0.61443  0.53536  1.0000 -0.1080803523
C   C26       1.0  0.30420  0.11443  0.46464  1.0000 -0.1080803523
C   C27       1.0  0.80420  0.38557  0.46464  1.0000 -0.1080803523
C   C28       1.0  0.69580  0.88557  0.53536  1.0000 -0.1080803523
C   C29       1.0  0.23650  0.48564  0.75936  1.0000 -0.3050124297
C   C30       1.0  0.26350  0.98564  0.24064  1.0000 -0.3050124297
C   C31       1.0  0.76350  0.51436  0.24064  1.0000 -0.3050124297
C   C32       1.0  0.73650  0.01436  0.75936  1.0000 -0.3050124297
C   C33       1.0  0.31510  0.53207  0.84019  1.0000 0.1406746705
C   C34       1.0  0.18490  0.03207  0.15981  1.0000 0.1406746705
C   C35       1.0  0.68490  0.46793  0.15981  1.0000 0.1406746705
C   C36       1.0  0.81510  0.96793  0.84019  1.0000 0.1406746705
C   C37       1.0  0.25990  0.57278  0.90616  1.0000 -0.1592320787
C   C38       1.0  0.24010  0.07278  0.09384  1.0000 -0.1592320787
C   C39       1.0  0.74010  0.42722  0.09384  1.0000 -0.1592320787
C   C40       1.0  0.75990  0.92722  0.90616  1.0000 -0.1592320787
C   C41       1.0  0.33060  0.61472  0.98146  1.0000 -0.0988347493
C   C42       1.0  0.16940  0.11472  0.01854  1.0000 -0.0988347493
C   C43       1.0  0.66940  0.38528  0.01854  1.0000 -0.0988347493
C   C44       1.0  0.83060  0.88528  0.98146  1.0000 -0.0988347493
C   C45       1.0  0.45900  0.61776  0.99171  1.0000 -0.0335701768
C   C46       1.0  0.04100  0.11776  0.00829  1.0000 -0.0335701768
C   C47       1.0  0.54100  0.38224  0.00829  1.0000 -0.0335701768
C   C48       1.0  0.95900  0.88224  0.99171  1.0000 -0.0335701768
C   C49       1.0  0.51500  0.57777  0.92492  1.0000 -0.0988347493
C   C50       1.0  0.98500  0.07777  0.07508  1.0000 -0.0988347493
C   C51       1.0  0.48500  0.42223  0.07508  1.0000 -0.0988347493
C   C52       1.0  0.01500  0.92223  0.92492  1.0000 -0.0988347493
C   C53       1.0  0.44370  0.53520  0.85088  1.0000 -0.1592320787
C   C54       1.0  0.05630  0.03520  0.14912  1.0000 -0.1592320787
C   C55       1.0  0.55630  0.46480  0.14912  1.0000 -0.1592320787
C   C56       1.0  0.94370  0.96480  0.85088  1.0000 -0.1592320787
C   C57       1.0  0.53750  0.66045  0.07450  1.0000 0.5452323755
C   C58       1.0  0.96250  0.16045  0.92550  1.0000 0.5452323755
C   C59       1.0  0.46250  0.33955  0.92550  1.0000 0.5452323755
C   C60       1.0  0.03750  0.83955  0.07450  1.0000 0.5452323755
C   C61       1.0  0.10940  0.85364  0.42611  1.0000 0.101515529
C   C62       1.0  0.39060  0.35364  0.57389  1.0000 0.101515529
C   C63       1.0  0.89060  0.14636  0.57389  1.0000 0.101515529
C   C64       1.0  0.60940  0.64636  0.42611  1.0000 0.101515529
C   C65       1.0  0.10210  0.91473  0.48841  1.0000 -0.1885124022
C   C66       1.0  0.39790  0.41473  0.51159  1.0000 -0.1885124022
C   C67       1.0  0.89790  0.08527  0.51159  1.0000 -0.1885124022
C   C68       1.0  0.60210  0.58527  0.48841  1.0000 -0.1885124022
C   C69       1.0  0.00500  0.96648  0.46788  1.0000 0.1102472132
C   C70       1.0  0.49500  0.46648  0.53212  1.0000 0.1102472132
C   C71       1.0  0.99500  0.03352  0.53212  1.0000 0.1102472132
C   C72       1.0  0.50500  0.53352  0.46788  1.0000 0.1102472132
C   C73       1.0  0.91840  0.95312  0.38247  1.0000 -0.2077579467
C   C74       1.0  0.58160  0.45312  0.61753  1.0000 -0.2077579467
C   C75       1.0  0.08160  0.04688  0.61753  1.0000 -0.2077579467
C   C76       1.0  0.41840  0.54688  0.38247  1.0000 -0.2077579467
C   C77       1.0  0.93230  0.89117  0.32420  1.0000 0.0820124572
C   C78       1.0  0.56770  0.39117  0.67580  1.0000 0.0820124572
C   C79       1.0  0.06770  0.10883  0.67580  1.0000 0.0820124572
C   C80       1.0  0.43230  0.60883  0.32420  1.0000 0.0820124572
C   C81       1.0  0.09390  0.59969  0.18169  1.0000 0.0737027427
C   C82       1.0  0.40610  0.09969  0.81831  1.0000 0.0737027427
C   C83       1.0  0.90610  0.40031  0.81831  1.0000 0.0737027427
C   C84       1.0  0.59390  0.90031  0.18169  1.0000 0.0737027427
C   C85       1.0  0.09010  0.53671  0.12151  1.0000 -0.2034812818
C   C86       1.0  0.40990  0.03671  0.87849  1.0000 -0.2034812818
C   C87       1.0  0.90990  0.46329  0.87849  1.0000 -0.2034812818
C   C88       1.0  0.59010  0.96329  0.12151  1.0000 -0.2034812818
C   C89       1.0  0.00400  0.53349  0.03369  1.0000 0.1102472132
C   C90       1.0  0.49600  0.03349  0.96631  1.0000 0.1102472132
C   C91       1.0  0.99600  0.46651  0.96631  1.0000 0.1102472132
C   C92       1.0  0.50400  0.96651  0.03369  1.0000 0.1102472132
C   C93       1.0  0.92530  0.59587  0.01276  1.0000 -0.1816596935
C   C94       1.0  0.57470  0.09587  0.98724  1.0000 -0.1816596935
C   C95       1.0  0.07470  0.40413  0.98724  1.0000 -0.1816596935
C   C96       1.0  0.42530  0.90413  0.01276  1.0000 -0.1816596935
C   C97       1.0  0.93530  0.65677  0.07654  1.0000 0.1102472132
C   C98       1.0  0.56470  0.15677  0.92346  1.0000 0.1102472132
C   C99       1.0  0.06470  0.34323  0.92346  1.0000 0.1102472132
C   C100      1.0  0.43530  0.84323  0.07654  1.0000 0.1102472132
N   N1        1.0  0.02585  0.84180  0.34441  1.0000 -0.2077579467
N   N2        1.0  0.47415  0.34180  0.65559  1.0000 -0.2077579467
N   N3        1.0  0.97415  0.15820  0.65559  1.0000 -0.2077579467
N   N4        1.0  0.52585  0.65820  0.34441  1.0000 -0.2077579467
N   N5        1.0  0.01874  0.65973  0.16012  1.0000 -0.215456641
N   N6        1.0  0.48126  0.15973  0.83988  1.0000 -0.215456641
N   N7        1.0  0.98126  0.34027  0.83988  1.0000 -0.215456641
N   N8        1.0  0.51874  0.84027  0.16012  1.0000 -0.215456641
O   O1        1.0  0.08540  0.68612  0.36522  1.0000 -0.5603259007
O   O2        1.0  0.41460  0.18612  0.63478  1.0000 -0.5603259007
O   O3        1.0  0.91460  0.31388  0.63478  1.0000 -0.5603259007
O   O4        1.0  0.58540  0.81388  0.36522  1.0000 -0.5603259007
O   O5        1.0  0.89590  0.67476  0.40145  1.0000 -0.5479859362
O   O6        1.0  0.60410  0.17476  0.59855  1.0000 -0.5479859362
O   O7        1.0  0.10410  0.32524  0.59855  1.0000 -0.5479859362
O   O8        1.0  0.39590  0.82524  0.40145  1.0000 -0.5479859362
O   O9        1.0  0.47970  0.68183  0.14230  1.0000 -0.5603259007
O   O10       1.0  0.02030  0.18183  0.85770  1.0000 -0.5603259007
O   O11       1.0  0.52030  0.31817  0.85770  1.0000 -0.5603259007
O   O12       1.0  0.97970  0.81817  0.14230  1.0000 -0.5603259007
O   O13       1.0  0.64832  0.67279  0.07305  1.0000 -0.5479859362
O   O14       1.0  0.85168  0.17279  0.92695  1.0000 -0.5479859362
O   O15       1.0  0.35168  0.32721  0.92695  1.0000 -0.5479859362
O   O16       1.0  0.14832  0.82721  0.07305  1.0000 -0.5479859362
