# DDEC6 charges by PACMAN v1.1 (https://github.com/mtap-research/PACMAN-charge/)
data_2014[Cd][nan]3[ASR]4
_chemical_formula_sum              "Cd3 H98 C94 N10 O24"
_cell_length_a       9.9516
_cell_length_b       15.7818
_cell_length_c       16.5509
_cell_angle_alpha    110.421
_cell_angle_beta     101.582
_cell_angle_gamma    90.029

_symmetry_space_group_name_H-M    "P 1"
_symmetry_Int_Tables_number       1

loop_
  _symmetry_equiv_pos_as_xyz
  'x, y, z'

loop_
  _atom_site_type_symbol
  _atom_site_label
  _atom_site_symmetry_multiplicity
  _atom_site_fract_x
  _atom_site_fract_y
  _atom_site_fract_z
  _atom_site_occupancy
  _atom_site_charge
Cd  Cd1       1.0  0.50000  0.50000  0.00000  1.0000 0.7912954305
Cd  Cd2       1.0  0.95979  0.77521  0.56704  1.0000 0.7958535169
Cd  Cd3       1.0  0.04021  0.22479  0.43296  1.0000 0.7958535169
H   H1        1.0  0.12170  0.08110  0.66370  1.0000 0.3425975506
H   H2        1.0  0.87830  0.91890  0.33630  1.0000 0.3425975506
H   H3        1.0  0.07520  0.09480  0.84470  1.0000 0.3425975506
H   H4        1.0  0.92480  0.90520  0.15530  1.0000 0.3425975506
H   H5        1.0  0.13310  0.86740  0.93760  1.0000 0.3476366067
H   H6        1.0  0.86690  0.13260  0.06240  1.0000 0.3476366067
H   H7        1.0  0.92180  0.56710  0.87890  1.0000 0.3476366067
H   H8        1.0  0.07820  0.43290  0.12110  1.0000 0.3476366067
H   H9        1.0  0.30020  0.56200  0.43380  1.0000 0.3476366067
H   H10       1.0  0.69980  0.43800  0.56620  1.0000 0.3476366067
H   H11       1.0  0.78210  0.40360  0.69760  1.0000 0.1195358165
H   H12       1.0  0.21790  0.59640  0.30240  1.0000 0.1195358165
H   H13       1.0  0.81480  0.13550  0.60870  1.0000 0.1396858334
H   H14       1.0  0.18520  0.86450  0.39130  1.0000 0.1396858334
H   H15       1.0  0.66020  0.25180  0.82310  1.0000 0.1312014995
H   H16       1.0  0.33980  0.74820  0.17690  1.0000 0.1312014995
H   H17       1.0  0.81180  0.06400  0.73350  1.0000 0.1195358165
H   H18       1.0  0.18820  0.93600  0.26650  1.0000 0.1195358165
H   H19       1.0  0.68570  0.09330  0.77810  1.0000 0.1195358165
H   H20       1.0  0.31430  0.90670  0.22190  1.0000 0.1195358165
H   H21       1.0  0.61670  0.93410  0.65740  1.0000 0.1106820356
H   H22       1.0  0.38330  0.06590  0.34260  1.0000 0.1106820356
H   H23       1.0  0.44200  0.93280  0.55010  1.0000 0.1396858334
H   H24       1.0  0.55800  0.06720  0.44990  1.0000 0.1396858334
H   H25       1.0  0.50460  0.84430  0.55840  1.0000 0.1396858334
H   H26       1.0  0.49540  0.15570  0.44160  1.0000 0.1396858334
H   H27       1.0  0.53900  0.88160  0.48810  1.0000 0.1576758687
H   H28       1.0  0.46100  0.11840  0.51190  1.0000 0.1576758687
H   H29       1.0  0.17120  0.48490  0.95960  1.0000 0.1106820356
H   H30       1.0  0.82880  0.51510  0.04040  1.0000 0.1106820356
H   H31       1.0  0.98070  0.39160  0.87950  1.0000 0.1312014995
H   H32       1.0  0.01930  0.60840  0.12050  1.0000 0.1312014995
H   H33       1.0  0.00650  0.24050  0.79450  1.0000 0.1106820356
H   H34       1.0  0.99350  0.75950  0.20550  1.0000 0.1106820356
H   H35       1.0  0.41270  0.29620  0.87180  1.0000 0.1106820356
H   H36       1.0  0.58730  0.70380  0.12820  1.0000 0.1106820356
H   H37       1.0  0.35230  0.08590  0.68480  1.0000 0.1312014995
H   H38       1.0  0.64770  0.91410  0.31520  1.0000 0.1312014995
H   H39       1.0  0.43580  0.16700  0.76480  1.0000 0.1195358165
H   H40       1.0  0.56420  0.83300  0.23520  1.0000 0.1195358165
H   H41       1.0  0.33390  0.18570  0.68850  1.0000 0.1396858334
H   H42       1.0  0.66610  0.81430  0.31150  1.0000 0.1396858334
H   H43       1.0  0.38820  0.19650  0.92720  1.0000 0.1312014995
H   H44       1.0  0.61180  0.80350  0.07280  1.0000 0.1312014995
H   H45       1.0  0.46630  0.12600  0.86370  1.0000 0.1195358165
H   H46       1.0  0.53370  0.87400  0.13630  1.0000 0.1195358165
H   H47       1.0  0.41140  0.10150  0.93590  1.0000 0.1396858334
H   H48       1.0  0.58860  0.89850  0.06410  1.0000 0.1396858334
H   H49       1.0  0.47590  0.98960  0.80960  1.0000 0.1195358165
H   H50       1.0  0.52410  0.01040  0.19040  1.0000 0.1195358165
H   H51       1.0  0.47640  0.83690  0.72680  1.0000 0.1396858334
H   H52       1.0  0.52360  0.16310  0.27320  1.0000 0.1396858334
H   H53       1.0  0.27650  0.75850  0.63940  1.0000 0.1106820356
H   H54       1.0  0.72350  0.24150  0.36060  1.0000 0.1106820356
H   H55       1.0  0.06950  0.96710  0.72970  1.0000 0.1106820356
H   H56       1.0  0.93050  0.03290  0.27030  1.0000 0.1106820356
H   H57       1.0  0.55980  0.60040  0.86980  1.0000 0.1106820356
H   H58       1.0  0.44020  0.39960  0.13020  1.0000 0.1106820356
H   H59       1.0  0.47730  0.69910  0.80020  1.0000 0.1396858334
H   H60       1.0  0.52270  0.30090  0.19980  1.0000 0.1396858334
H   H61       1.0  0.27440  0.76610  0.82520  1.0000 0.1106820356
H   H62       1.0  0.72560  0.23390  0.17480  1.0000 0.1106820356
H   H63       1.0  0.25440  0.63560  0.98950  1.0000 0.1106820356
H   H64       1.0  0.74560  0.36440  0.01050  1.0000 0.1106820356
H   H65       1.0  0.17700  0.80580  0.05650  1.0000 0.1312014995
H   H66       1.0  0.82300  0.19420  0.94350  1.0000 0.1312014995
H   H67       1.0  0.08950  0.71450  0.03310  1.0000 0.1396858334
H   H68       1.0  0.91050  0.28550  0.96690  1.0000 0.1396858334
H   H69       1.0  0.01600  0.80190  0.03160  1.0000 0.1396858334
H   H70       1.0  0.98400  0.19810  0.96840  1.0000 0.1396858334
H   H71       1.0  0.76740  0.66610  0.83190  1.0000 0.1396858334
H   H72       1.0  0.23260  0.33390  0.16810  1.0000 0.1396858334
H   H73       1.0  0.83400  0.76470  0.85850  1.0000 0.1396858334
H   H74       1.0  0.16600  0.23530  0.14150  1.0000 0.1396858334
H   H75       1.0  0.82530  0.72430  0.93160  1.0000 0.1488256965
H   H76       1.0  0.17470  0.27570  0.06840  1.0000 0.1488256965
H   H77       1.0  0.06790  0.51960  0.76410  1.0000 0.1195358165
H   H78       1.0  0.93210  0.48040  0.23590  1.0000 0.1195358165
H   H79       1.0  0.10080  0.47680  0.62200  1.0000 0.1312014995
H   H80       1.0  0.89920  0.52320  0.37800  1.0000 0.1312014995
H   H81       1.0  0.06280  0.57580  0.54790  1.0000 0.1106820356
H   H82       1.0  0.93720  0.42420  0.45210  1.0000 0.1106820356
H   H83       1.0  0.93080  0.74890  0.74380  1.0000 0.1195358165
H   H84       1.0  0.06920  0.25110  0.25620  1.0000 0.1195358165
H   H85       1.0  0.79150  0.69410  0.36030  1.0000 0.1106820356
H   H86       1.0  0.20850  0.30590  0.63970  1.0000 0.1106820356
H   H87       1.0  0.60080  0.60400  0.26880  1.0000 0.1312014995
H   H88       1.0  0.39920  0.39600  0.73120  1.0000 0.1312014995
H   H89       1.0  0.45880  0.53490  0.32650  1.0000 0.1195358165
H   H90       1.0  0.54120  0.46510  0.67350  1.0000 0.1195358165
H   H91       1.0  0.70920  0.64580  0.56100  1.0000 0.1195358165
H   H92       1.0  0.29080  0.35420  0.43900  1.0000 0.1195358165
H   H93       1.0  0.44430  0.67230  0.57850  1.0000 0.1312014995
H   H94       1.0  0.55570  0.32770  0.42150  1.0000 0.1312014995
H   H95       1.0  0.53990  0.61840  0.62740  1.0000 0.1312014995
H   H96       1.0  0.46010  0.38160  0.37260  1.0000 0.1312014995
H   H97       1.0  0.38040  0.59490  0.60130  1.0000 0.1312014995
H   H98       1.0  0.61960  0.40510  0.39870  1.0000 0.1396858334
C   C1        1.0  0.68510  0.42590  0.84200  1.0000 0.5496587966
C   C2        1.0  0.31490  0.57410  0.15800  1.0000 0.5496587966
C   C3        1.0  0.86670  0.27600  0.56700  1.0000 0.5496587966
C   C4        1.0  0.13330  0.72400  0.43300  1.0000 0.5496587966
C   C5        1.0  0.71700  0.34090  0.77180  1.0000 -0.0212892361
C   C6        1.0  0.28300  0.65910  0.22820  1.0000 -0.0212892361
C   C7        1.0  0.77040  0.34730  0.70250  1.0000 -0.1415295053
C   C8        1.0  0.22960  0.65270  0.29750  1.0000 -0.1415295053
C   C9        1.0  0.80620  0.27090  0.64080  1.0000 -0.0099170895
C   C10       1.0  0.19380  0.72910  0.35920  1.0000 -0.0099170895
C   C11       1.0  0.78880  0.18690  0.64920  1.0000 -0.15917796
C   C12       1.0  0.21120  0.81310  0.35080  1.0000 -0.15917796
C   C13       1.0  0.73360  0.17880  0.71680  1.0000 0.0849483226
C   C14       1.0  0.26640  0.82120  0.28320  1.0000 0.0850887139
C   C15       1.0  0.69780  0.25650  0.77760  1.0000 -0.1762470613
C   C16       1.0  0.30220  0.74350  0.22240  1.0000 -0.1762470613
C   C17       1.0  0.72170  0.08730  0.72630  1.0000 -0.1045604806
C   C18       1.0  0.27830  0.91270  0.27370  1.0000 -0.1045604806
C   C19       1.0  0.64070  0.95270  0.61110  1.0000 0.1488256965
C   C20       1.0  0.35930  0.04730  0.38890  1.0000 0.1396858334
C   C21       1.0  0.76770  0.90080  0.61130  1.0000 0.4706033383
C   C22       1.0  0.23230  0.09920  0.38870  1.0000 0.4706033383
C   C23       1.0  0.52130  0.89810  0.54630  1.0000 -0.5022502726
C   C24       1.0  0.47870  0.10190  0.45370  1.0000 -0.5022502726
C   C25       1.0  0.18200  0.42580  0.92470  1.0000 0.0721960715
C   C26       1.0  0.81800  0.57420  0.07530  1.0000 0.0721960715
C   C27       1.0  0.06770  0.37050  0.87790  1.0000 -0.1303912486
C   C28       1.0  0.93230  0.62950  0.12210  1.0000 -0.1303912486
C   C29       1.0  0.08340  0.28030  0.82670  1.0000 -0.078348755
C   C30       1.0  0.91660  0.71970  0.17330  1.0000 -0.078348755
C   C31       1.0  0.21520  0.25140  0.82470  1.0000 -0.0005064861
C   C32       1.0  0.78480  0.74860  0.17530  1.0000 -0.0005064861
C   C33       1.0  0.32400  0.31410  0.87350  1.0000 0.0033026924
C   C34       1.0  0.67600  0.68590  0.12650  1.0000 0.0033026924
C   C35       1.0  0.23560  0.15310  0.77130  1.0000 0.2403723959
C   C36       1.0  0.76440  0.84690  0.22870  1.0000 0.2403723959
C   C37       1.0  0.34970  0.14740  0.72300  1.0000 -0.5478444781
C   C38       1.0  0.65030  0.85260  0.27700  1.0000 -0.5478444781
C   C39       1.0  0.26390  0.09640  0.83320  1.0000 0.2344798658
C   C40       1.0  0.73610  0.90360  0.16680  1.0000 0.2344798658
C   C41       1.0  0.39340  0.13320  0.89520  1.0000 -0.5118657287
C   C42       1.0  0.60660  0.86680  0.10480  1.0000 -0.5118657287
C   C43       1.0  0.27110  0.99620  0.77910  1.0000 0.0033026924
C   C44       1.0  0.72890  0.00380  0.22090  1.0000 0.0033026924
C   C45       1.0  0.39370  0.95590  0.77690  1.0000 -0.0936037301
C   C46       1.0  0.60630  0.04410  0.22310  1.0000 -0.0936037301
C   C47       1.0  0.39460  0.86540  0.72610  1.0000 -0.1451293464
C   C48       1.0  0.60540  0.13460  0.27390  1.0000 -0.1451293464
C   C49       1.0  0.27480  0.81870  0.67530  1.0000 0.0451172803
C   C50       1.0  0.72520  0.18130  0.32470  1.0000 0.0449077998
C   C51       1.0  0.15380  0.94200  0.72750  1.0000 0.0079835484
C   C52       1.0  0.84620  0.05800  0.27250  1.0000 0.0079835484
C   C53       1.0  0.47870  0.62720  0.88010  1.0000 0.0721960715
C   C54       1.0  0.52130  0.37280  0.11990  1.0000 0.0721960715
C   C55       1.0  0.42970  0.68630  0.83800  1.0000 -0.1303912486
C   C56       1.0  0.57030  0.31370  0.16200  1.0000 -0.1303912486
C   C57       1.0  0.30880  0.72630  0.85320  1.0000 -0.0936037301
C   C58       1.0  0.69120  0.27370  0.14680  1.0000 -0.0936037301
C   C59       1.0  0.23940  0.70710  0.90980  1.0000 -0.0099170895
C   C60       1.0  0.76060  0.29290  0.09020  1.0000 -0.0099170895
C   C61       1.0  0.29800  0.64800  0.94970  1.0000 0.021151631
C   C62       1.0  0.70200  0.35200  0.05030  1.0000 0.021151631
C   C63       1.0  0.10040  0.74490  0.92540  1.0000 0.2472634528
C   C64       1.0  0.89960  0.25510  0.07460  1.0000 0.2472634528
C   C65       1.0  0.09530  0.76890  0.02010  1.0000 -0.5295480426
C   C66       1.0  0.90470  0.23110  0.97990  1.0000 -0.5295480426
C   C67       1.0  0.97940  0.67290  0.86550  1.0000 0.2596310441
C   C68       1.0  0.02060  0.32710  0.13450  1.0000 0.2596310441
C   C69       1.0  0.83830  0.71050  0.87250  1.0000 -0.5022502726
C   C70       1.0  0.16170  0.28950  0.12750  1.0000 -0.5022502726
C   C71       1.0  0.99610  0.63990  0.76940  1.0000 -0.0099170895
C   C72       1.0  0.00390  0.36010  0.23060  1.0000 -0.0099170895
C   C73       1.0  0.04770  0.55800  0.73230  1.0000 -0.073858523
C   C74       1.0  0.95230  0.44200  0.26770  1.0000 -0.073858523
C   C75       1.0  0.06920  0.53310  0.64860  1.0000 -0.1303912486
C   C76       1.0  0.93080  0.46690  0.35140  1.0000 -0.1303912486
C   C77       1.0  0.04390  0.59220  0.60390  1.0000 0.0721960715
C   C78       1.0  0.95610  0.40780  0.39610  1.0000 0.0721960715
C   C79       1.0  0.96840  0.69420  0.71990  1.0000 0.0033026924
C   C80       1.0  0.03160  0.30580  0.28010  1.0000 0.0033026924
C   C81       1.0  0.73540  0.66600  0.38370  1.0000 0.0550657537
C   C82       1.0  0.26460  0.33400  0.61630  1.0000 0.0550657537
C   C83       1.0  0.62090  0.61250  0.32860  1.0000 -0.1415295053
C   C84       1.0  0.37910  0.38750  0.67140  1.0000 -0.1415295053
C   C85       1.0  0.53630  0.57170  0.36300  1.0000 -0.078348755
C   C86       1.0  0.46370  0.42830  0.63700  1.0000 -0.078348755
C   C87       1.0  0.56730  0.58580  0.45240  1.0000 0.0033026924
C   C88       1.0  0.43270  0.41420  0.54760  1.0000 0.0079835484
C   C89       1.0  0.68520  0.63810  0.50140  1.0000 0.021151631
C   C90       1.0  0.31480  0.36190  0.49860  1.0000 0.021151631
C   C91       1.0  0.47230  0.54490  0.49460  1.0000 0.2596310441
C   C92       1.0  0.52770  0.45510  0.50540  1.0000 0.2596310441
C   C93       1.0  0.45790  0.61410  0.58380  1.0000 -0.5212255384
C   C94       1.0  0.54210  0.38590  0.41620  1.0000 -0.5212255384
N   N1        1.0  0.30860  0.40030  0.92350  1.0000 -0.2388875644
N   N2        1.0  0.69140  0.59970  0.07650  1.0000 -0.2388875644
N   N3        1.0  0.15390  0.85620  0.67490  1.0000 -0.2132524933
N   N4        1.0  0.84610  0.14380  0.32510  1.0000 -0.2132524933
N   N5        1.0  0.41390  0.60750  0.93450  1.0000 -0.2388875644
N   N6        1.0  0.58610  0.39250  0.06550  1.0000 -0.2388875644
N   N7        1.0  0.99360  0.67130  0.63730  1.0000 -0.2388875644
N   N8        1.0  0.00640  0.32870  0.36270  1.0000 -0.2388875644
N   N9        1.0  0.76900  0.67930  0.46980  1.0000 -0.2388875644
N   N10       1.0  0.23100  0.32070  0.53020  1.0000 -0.2388875644
O   O1        1.0  0.60520  0.41530  0.88780  1.0000 -0.5675120737
O   O2        1.0  0.39480  0.58470  0.11220  1.0000 -0.5675120737
O   O3        1.0  0.73840  0.50080  0.84910  1.0000 -0.5675120737
O   O4        1.0  0.26160  0.49920  0.15090  1.0000 -0.5675120737
O   O5        1.0  0.84790  0.34170  0.54140  1.0000 -0.5792339231
O   O6        1.0  0.15210  0.65830  0.45860  1.0000 -0.5792339231
O   O7        1.0  0.93870  0.21250  0.53510  1.0000 -0.5212255384
O   O8        1.0  0.06130  0.78750  0.46490  1.0000 -0.5212255384
O   O9        1.0  0.63350  0.02700  0.65070  1.0000 -0.0936037301
O   O10       1.0  0.36650  0.97300  0.34930  1.0000 -0.0936037301
O   O11       1.0  0.83780  0.90040  0.55800  1.0000 -0.4659739669
O   O12       1.0  0.16220  0.09960  0.44200  1.0000 -0.4659739669
O   O13       1.0  0.79430  0.85580  0.65970  1.0000 -0.5212255384
O   O14       1.0  0.20570  0.14420  0.34030  1.0000 -0.5212255384
O   O15       1.0  0.10700  0.11600  0.71050  1.0000 -0.5212255384
O   O16       1.0  0.89300  0.88400  0.28950  1.0000 -0.5118657287
O   O17       1.0  0.14880  0.10130  0.87970  1.0000 -0.5022502726
O   O18       1.0  0.85120  0.89870  0.12030  1.0000 -0.5022502726
O   O19       1.0  0.08730  0.82360  0.89860  1.0000 -0.5212255384
O   O20       1.0  0.91270  0.17640  0.10140  1.0000 -0.5118657287
O   O21       1.0  0.99300  0.60050  0.89840  1.0000 -0.5295480426
O   O22       1.0  0.00700  0.39950  0.10160  1.0000 -0.5295480426
O   O23       1.0  0.33930  0.51710  0.43670  1.0000 -0.5212255384
O   O24       1.0  0.66070  0.48290  0.56330  1.0000 -0.5212255384
