# DDEC6 charges by PACMAN v1.1 (https://github.com/mtap-research/PACMAN-charge/)
data_2014[Zn][nan]3[ASR]12
_chemical_formula_sum              "Zn8 H36 C96 O32"
_cell_length_a       12.314
_cell_length_b       14.986
_cell_length_c       27.116
_cell_angle_alpha    90
_cell_angle_beta     106.765
_cell_angle_gamma    90

_symmetry_space_group_name_H-M    "P 1"
_symmetry_Int_Tables_number       1

loop_
  _symmetry_equiv_pos_as_xyz
  'x, y, z'

loop_
  _atom_site_type_symbol
  _atom_site_label
  _atom_site_symmetry_multiplicity
  _atom_site_fract_x
  _atom_site_fract_y
  _atom_site_fract_z
  _atom_site_occupancy
  _atom_site_charge
Zn  Zn1       1.0  0.00562  0.02293  0.13778  1.0000 0.9408553634
Zn  Zn2       1.0  0.99438  0.52293  0.36222  1.0000 0.9408553634
Zn  Zn3       1.0  0.99438  0.97707  0.86222  1.0000 0.9408553634
Zn  Zn4       1.0  0.00562  0.47707  0.63778  1.0000 0.9408553634
Zn  Zn5       1.0  0.21679  0.15676  0.22398  1.0000 1.0174232516
Zn  Zn6       1.0  0.78321  0.65676  0.27602  1.0000 1.0174232516
Zn  Zn7       1.0  0.78321  0.84324  0.77602  1.0000 1.0174232516
Zn  Zn8       1.0  0.21679  0.34324  0.72398  1.0000 1.0174232516
H   H1        1.0  0.33650  0.24790  0.10260  1.0000 0.11985122
H   H2        1.0  0.66350  0.74790  0.39740  1.0000 0.11985122
H   H3        1.0  0.66350  0.75210  0.89740  1.0000 0.11985122
H   H4        1.0  0.33650  0.25210  0.60260  1.0000 0.11985122
H   H5        1.0  0.12430  0.06870  0.01540  1.0000 0.1393556315
H   H6        1.0  0.87570  0.56870  0.48460  1.0000 0.1393556315
H   H7        1.0  0.87570  0.93130  0.98460  1.0000 0.1393556315
H   H8        1.0  0.12430  0.43130  0.51540  1.0000 0.1393556315
H   H9        1.0  0.31980  0.22130  0.95340  1.0000 0.1148460079
H   H10       1.0  0.68020  0.72130  0.54660  1.0000 0.1148460079
H   H11       1.0  0.68020  0.77870  0.04660  1.0000 0.1148460079
H   H12       1.0  0.31980  0.27870  0.45340  1.0000 0.1148460079
H   H13       1.0  0.53990  0.25730  0.09750  1.0000 0.11985122
H   H14       1.0  0.46010  0.75730  0.40250  1.0000 0.11985122
H   H15       1.0  0.46010  0.74270  0.90250  1.0000 0.11985122
H   H16       1.0  0.53990  0.24270  0.59750  1.0000 0.11985122
H   H17       1.0  0.25570  0.37500  0.95910  1.0000 0.11985122
H   H18       1.0  0.74430  0.87500  0.54090  1.0000 0.11985122
H   H19       1.0  0.74430  0.62500  0.04090  1.0000 0.11985122
H   H20       1.0  0.25570  0.12500  0.45910  1.0000 0.11985122
H   H21       1.0  0.23430  0.49910  0.91130  1.0000 0.11985122
H   H22       1.0  0.76570  0.99910  0.58870  1.0000 0.11985122
H   H23       1.0  0.76570  0.50090  0.08870  1.0000 0.11985122
H   H24       1.0  0.23430  0.00090  0.41130  1.0000 0.11985122
H   H25       1.0  0.76860  0.23820  0.11030  1.0000 0.1309223864
H   H26       1.0  0.23140  0.73820  0.38970  1.0000 0.1309223864
H   H27       1.0  0.23140  0.76180  0.88970  1.0000 0.1309223864
H   H28       1.0  0.76860  0.26180  0.61030  1.0000 0.1309223864
H   H29       1.0  0.70000  0.46600  0.17420  1.0000 0.11985122
H   H30       1.0  0.30000  0.96600  0.32580  1.0000 0.11985122
H   H31       1.0  0.30000  0.53400  0.82580  1.0000 0.11985122
H   H32       1.0  0.70000  0.03400  0.67420  1.0000 0.11985122
H   H33       1.0  0.96860  0.31580  0.24820  1.0000 0.1393556315
H   H34       1.0  0.03140  0.81580  0.25180  1.0000 0.1393556315
H   H35       1.0  0.03140  0.68420  0.75180  1.0000 0.1393556315
H   H36       1.0  0.96860  0.18420  0.74820  1.0000 0.1393556315
C   C1        1.0  0.18670  0.12530  0.11240  1.0000 0.6101081911
C   C2        1.0  0.81330  0.62530  0.38760  1.0000 0.6101081911
C   C3        1.0  0.81330  0.87470  0.88760  1.0000 0.6101081911
C   C4        1.0  0.18670  0.37470  0.61240  1.0000 0.6101081911
C   C5        1.0  0.22510  0.15270  0.06615  1.0000 -0.0195611154
C   C6        1.0  0.77490  0.65270  0.43385  1.0000 -0.0195611154
C   C7        1.0  0.77490  0.84730  0.93385  1.0000 -0.0195611154
C   C8        1.0  0.22510  0.34730  0.56615  1.0000 -0.0195611154
C   C9        1.0  0.30640  0.22040  0.07087  1.0000 -0.1426217761
C   C10       1.0  0.69360  0.72040  0.42913  1.0000 -0.1481832505
C   C11       1.0  0.69360  0.77960  0.92913  1.0000 -0.1426217761
C   C12       1.0  0.30640  0.27960  0.57087  1.0000 -0.1426217761
C   C13       1.0  0.17940  0.11260  0.01878  1.0000 -0.1015734915
C   C14       1.0  0.82060  0.61260  0.48122  1.0000 -0.1015734915
C   C15       1.0  0.82060  0.88740  0.98122  1.0000 -0.1015734915
C   C16       1.0  0.17940  0.38740  0.51878  1.0000 -0.1015734915
C   C17       1.0  0.34300  0.24720  0.02899  1.0000 0.0645717028
C   C18       1.0  0.65700  0.74720  0.47101  1.0000 0.0645717028
C   C19       1.0  0.65700  0.75280  0.97101  1.0000 0.0645717028
C   C20       1.0  0.34300  0.25280  0.52899  1.0000 0.0645717028
C   C21       1.0  0.21450  0.13670  0.97570  1.0000 -0.0294565568
C   C22       1.0  0.78550  0.63670  0.52430  1.0000 -0.0294565568
C   C23       1.0  0.78550  0.86330  0.02430  1.0000 -0.0294565568
C   C24       1.0  0.21450  0.36330  0.47570  1.0000 -0.0294565568
C   C25       1.0  0.43120  0.31800  0.03701  1.0000 0.0298587053
C   C26       1.0  0.56880  0.81800  0.46299  1.0000 0.0298587053
C   C27       1.0  0.56880  0.68200  0.96299  1.0000 0.0298587053
C   C28       1.0  0.43120  0.18200  0.53701  1.0000 0.0298587053
C   C29       1.0  0.29620  0.20440  0.98166  1.0000 -0.1481832505
C   C30       1.0  0.70380  0.70440  0.51834  1.0000 -0.1481832505
C   C31       1.0  0.70380  0.79560  0.01834  1.0000 -0.1481832505
C   C32       1.0  0.29620  0.29560  0.48166  1.0000 -0.1481832505
C   C33       1.0  0.16530  0.09360  0.92528  1.0000 0.5535762701
C   C34       1.0  0.83470  0.59360  0.57472  1.0000 0.5535762701
C   C35       1.0  0.83470  0.90640  0.07472  1.0000 0.5535762701
C   C36       1.0  0.16530  0.40640  0.42528  1.0000 0.5535762701
C   C37       1.0  0.41550  0.39590  0.00587  1.0000 0.0298587053
C   C38       1.0  0.58450  0.89590  0.49413  1.0000 0.0298587053
C   C39       1.0  0.58450  0.60410  0.99413  1.0000 0.0298587053
C   C40       1.0  0.41550  0.10410  0.50587  1.0000 0.0298587053
C   C41       1.0  0.53100  0.30840  0.07728  1.0000 -0.2071236577
C   C42       1.0  0.46900  0.80840  0.42272  1.0000 -0.2071236577
C   C43       1.0  0.46900  0.69160  0.92272  1.0000 -0.2071236577
C   C44       1.0  0.53100  0.19160  0.57728  1.0000 -0.2071236577
C   C45       1.0  0.50570  0.46120  0.01602  1.0000 0.0110864221
C   C46       1.0  0.49430  0.96120  0.48398  1.0000 0.0110864221
C   C47       1.0  0.49430  0.53880  0.98398  1.0000 0.0110864221
C   C48       1.0  0.50570  0.03880  0.51602  1.0000 0.0110864221
C   C49       1.0  0.31550  0.41530  0.96552  1.0000 -0.1426217761
C   C50       1.0  0.68450  0.91530  0.53448  1.0000 -0.1426217761
C   C51       1.0  0.68450  0.58470  0.03448  1.0000 -0.1426217761
C   C52       1.0  0.31550  0.08470  0.46552  1.0000 -0.1426217761
C   C53       1.0  0.61670  0.37050  0.08860  1.0000 0.0219677985
C   C54       1.0  0.38330  0.87050  0.41140  1.0000 0.0219677985
C   C55       1.0  0.38330  0.62950  0.91140  1.0000 0.0219677985
C   C56       1.0  0.61670  0.12950  0.58860  1.0000 0.0219677985
C   C57       1.0  0.60660  0.44780  0.05721  1.0000 0.0298587053
C   C58       1.0  0.39340  0.94780  0.44279  1.0000 0.0298587053
C   C59       1.0  0.39340  0.55220  0.94279  1.0000 0.0298587053
C   C60       1.0  0.60660  0.05220  0.55721  1.0000 0.0298587053
C   C61       1.0  0.30290  0.48890  0.93623  1.0000 -0.1481832505
C   C62       1.0  0.69710  0.98890  0.56377  1.0000 -0.1481832505
C   C63       1.0  0.69710  0.51110  0.06377  1.0000 -0.1481832505
C   C64       1.0  0.30290  0.01110  0.43623  1.0000 -0.1481832505
C   C65       1.0  0.71770  0.35560  0.13435  1.0000 0.0706678275
C   C66       1.0  0.28230  0.85560  0.36565  1.0000 0.0706678275
C   C67       1.0  0.28230  0.64440  0.86565  1.0000 0.0706678275
C   C68       1.0  0.71770  0.14440  0.63435  1.0000 0.0706678275
C   C69       1.0  0.78640  0.27970  0.13694  1.0000 -0.1426217761
C   C70       1.0  0.21360  0.77970  0.36306  1.0000 -0.1426217761
C   C71       1.0  0.21360  0.72030  0.86306  1.0000 -0.1426217761
C   C72       1.0  0.78640  0.22030  0.63694  1.0000 -0.1426217761
C   C73       1.0  0.74450  0.41540  0.17546  1.0000 -0.1481832505
C   C74       1.0  0.25550  0.91540  0.32454  1.0000 -0.1481832505
C   C75       1.0  0.25550  0.58460  0.82454  1.0000 -0.1481832505
C   C76       1.0  0.74450  0.08460  0.67546  1.0000 -0.1481832505
C   C77       1.0  0.88010  0.26670  0.17891  1.0000 -0.0133996531
C   C78       1.0  0.11990  0.76670  0.32109  1.0000 -0.0133996531
C   C79       1.0  0.11990  0.73330  0.82109  1.0000 -0.0133996531
C   C80       1.0  0.88010  0.23330  0.67891  1.0000 -0.0133996531
C   C81       1.0  0.83740  0.40020  0.21858  1.0000 -0.0195611154
C   C82       1.0  0.16260  0.90020  0.28142  1.0000 -0.0195611154
C   C83       1.0  0.16260  0.59980  0.78142  1.0000 -0.0195611154
C   C84       1.0  0.83740  0.09980  0.71858  1.0000 -0.0195611154
C   C85       1.0  0.95760  0.18720  0.17968  1.0000 0.6101081911
C   C86       1.0  0.04240  0.68720  0.32032  1.0000 0.6101081911
C   C87       1.0  0.04240  0.81280  0.82032  1.0000 0.6101081911
C   C88       1.0  0.95760  0.31280  0.67968  1.0000 0.6101081911
C   C89       1.0  0.90600  0.32580  0.21996  1.0000 -0.1015734915
C   C90       1.0  0.09400  0.82580  0.28004  1.0000 -0.1015734915
C   C91       1.0  0.09400  0.67420  0.78004  1.0000 -0.1015734915
C   C92       1.0  0.90600  0.17420  0.71996  1.0000 -0.1015734915
C   C93       1.0  0.86080  0.46490  0.26304  1.0000 0.6101081911
C   C94       1.0  0.13920  0.96490  0.23696  1.0000 0.6101081911
C   C95       1.0  0.13920  0.53510  0.73696  1.0000 0.6101081911
C   C96       1.0  0.86080  0.03510  0.76304  1.0000 0.6101081911
O   O1        1.0  0.12490  0.05892  0.10648  1.0000 -0.5211861935
O   O2        1.0  0.87510  0.55892  0.39352  1.0000 -0.5211861935
O   O3        1.0  0.87510  0.94108  0.89352  1.0000 -0.5211861935
O   O4        1.0  0.12490  0.44108  0.60648  1.0000 -0.5211861935
O   O5        1.0  0.22140  0.17040  0.15192  1.0000 -0.5677330222
O   O6        1.0  0.77860  0.67040  0.34808  1.0000 -0.5677330222
O   O7        1.0  0.77860  0.82960  0.84808  1.0000 -0.5677330222
O   O8        1.0  0.22140  0.32960  0.65192  1.0000 -0.5677330222
O   O9        1.0  0.20410  0.10900  0.88913  1.0000 -0.5095763411
O   O10       1.0  0.79590  0.60900  0.61087  1.0000 -0.5095763411
O   O11       1.0  0.79590  0.89100  0.11087  1.0000 -0.5095763411
O   O12       1.0  0.20410  0.39100  0.38913  1.0000 -0.5095763411
O   O13       1.0  0.08280  0.04190  0.92157  1.0000 -0.528994834
O   O14       1.0  0.91720  0.54190  0.57843  1.0000 -0.528994834
O   O15       1.0  0.91720  0.95810  0.07843  1.0000 -0.528994834
O   O16       1.0  0.08280  0.45810  0.42157  1.0000 -0.528994834
O   O17       1.0  0.92180  0.13004  0.14438  1.0000 -0.5367679801
O   O18       1.0  0.07820  0.63004  0.35562  1.0000 -0.5367679801
O   O19       1.0  0.07820  0.86996  0.85562  1.0000 -0.5367679801
O   O20       1.0  0.92180  0.36996  0.64438  1.0000 -0.5367679801
O   O21       1.0  0.04920  0.18220  0.21399  1.0000 -0.575074872
O   O22       1.0  0.95080  0.68220  0.28601  1.0000 -0.575074872
O   O23       1.0  0.95080  0.81780  0.78601  1.0000 -0.5677330222
O   O24       1.0  0.04920  0.31780  0.71399  1.0000 -0.575074872
O   O25       1.0  0.94760  0.45019  0.30029  1.0000 -0.528994834
O   O26       1.0  0.05240  0.95019  0.19971  1.0000 -0.528994834
O   O27       1.0  0.05240  0.54981  0.69971  1.0000 -0.528994834
O   O28       1.0  0.94760  0.04981  0.80029  1.0000 -0.528994834
O   O29       1.0  0.79210  0.52680  0.26119  1.0000 -0.5912379381
O   O30       1.0  0.20790  0.02680  0.23881  1.0000 -0.5912379381
O   O31       1.0  0.20790  0.47320  0.73881  1.0000 -0.5912379381
O   O32       1.0  0.79210  0.97320  0.76119  1.0000 -0.5912379381
