# DDEC6 charges by PACMAN v1.1 (https://github.com/mtap-research/PACMAN-charge/)
data_2014[Ni][nan]3[ASR]4
_chemical_formula_sum              "Ni6 H6 C24 O18"
_cell_length_a       15.0349
_cell_length_b       15.0349
_cell_length_c       15.0349
_cell_angle_alpha    117.808
_cell_angle_beta     117.808
_cell_angle_gamma    117.808

_symmetry_space_group_name_H-M    "P 1"
_symmetry_Int_Tables_number       1

loop_
  _symmetry_equiv_pos_as_xyz
  'x, y, z'

loop_
  _atom_site_type_symbol
  _atom_site_label
  _atom_site_symmetry_multiplicity
  _atom_site_fract_x
  _atom_site_fract_y
  _atom_site_fract_z
  _atom_site_occupancy
  _atom_site_charge
Ni  Ni1       1.0  0.88960  0.19140  0.60920  1.0000 0.9497474841
Ni  Ni2       1.0  0.19140  0.60920  0.88960  1.0000 0.9497474841
Ni  Ni3       1.0  0.60920  0.88960  0.19140  1.0000 0.9497474841
Ni  Ni4       1.0  0.19140  0.88960  0.60920  1.0000 0.9497474841
Ni  Ni5       1.0  0.88960  0.60920  0.19140  1.0000 0.9497474841
Ni  Ni6       1.0  0.60920  0.19140  0.88960  1.0000 0.9497474841
H   H1        1.0  0.77745  0.28410  0.77745  1.0000 0.1817950022
H   H2        1.0  0.28410  0.77745  0.77745  1.0000 0.1817950022
H   H3        1.0  0.77745  0.77745  0.28410  1.0000 0.1817950022
H   H4        1.0  0.45585  0.89230  0.45585  1.0000 0.1475952527
H   H5        1.0  0.89230  0.45585  0.45585  1.0000 0.1475952527
H   H6        1.0  0.45585  0.45585  0.89230  1.0000 0.1475952527
C   C1        1.0  0.05290  0.49370  0.96140  1.0000 0.3355116657
C   C2        1.0  0.49370  0.96140  0.05290  1.0000 0.3348142615
C   C3        1.0  0.96140  0.05290  0.49370  1.0000 0.3348142615
C   C4        1.0  0.49370  0.05290  0.96140  1.0000 0.3348142615
C   C5        1.0  0.05290  0.96140  0.49370  1.0000 0.3348142615
C   C6        1.0  0.96140  0.49370  0.05290  1.0000 0.3348142615
C   C7        1.0  0.91410  0.41580  0.91410  1.0000 -0.3071963081
C   C8        1.0  0.41580  0.91410  0.91410  1.0000 -0.3071963081
C   C9        1.0  0.91410  0.91410  0.41580  1.0000 -0.3071963081
C   C10       1.0  0.27580  0.70130  0.18490  1.0000 -0.15815321
C   C11       1.0  0.70130  0.18490  0.27580  1.0000 -0.15815321
C   C12       1.0  0.18490  0.27580  0.70130  1.0000 -0.15815321
C   C13       1.0  0.70130  0.27580  0.18490  1.0000 -0.15815321
C   C14       1.0  0.27580  0.18490  0.70130  1.0000 -0.15815321
C   C15       1.0  0.18490  0.70130  0.27580  1.0000 -0.15815321
C   C16       1.0  0.44930  0.80650  0.26020  1.0000 0.625485471
C   C17       1.0  0.80650  0.26020  0.44930  1.0000 0.625485471
C   C18       1.0  0.26020  0.44930  0.80650  1.0000 0.625485471
C   C19       1.0  0.80650  0.44930  0.26020  1.0000 0.625485471
C   C20       1.0  0.44930  0.26020  0.80650  1.0000 0.625485471
C   C21       1.0  0.26020  0.80650  0.44930  1.0000 0.625485471
C   C22       1.0  0.32020  0.76460  0.32020  1.0000 -0.0725208858
C   C23       1.0  0.76460  0.32020  0.32020  1.0000 -0.0725208858
C   C24       1.0  0.32020  0.32020  0.76460  1.0000 -0.0725208858
O   O1        1.0  0.01490  0.43210  0.83000  1.0000 -0.5933509359
O   O2        1.0  0.43210  0.83000  0.01490  1.0000 -0.5933509359
O   O3        1.0  0.83000  0.01490  0.43210  1.0000 -0.5933509359
O   O4        1.0  0.43210  0.01490  0.83000  1.0000 -0.5933509359
O   O5        1.0  0.01490  0.83000  0.43210  1.0000 -0.5933509359
O   O6        1.0  0.83000  0.43210  0.01490  1.0000 -0.5933509359
O   O7        1.0  0.41070  0.75390  0.13540  1.0000 -0.5519268998
O   O8        1.0  0.75390  0.13540  0.41070  1.0000 -0.5519268998
O   O9        1.0  0.13540  0.41070  0.75390  1.0000 -0.5519268998
O   O10       1.0  0.75390  0.41070  0.13540  1.0000 -0.5519268998
O   O11       1.0  0.41070  0.13540  0.75390  1.0000 -0.5519268998
O   O12       1.0  0.13540  0.75390  0.41070  1.0000 -0.5519268998
O   O13       1.0  0.63970  0.96680  0.46450  1.0000 -0.5815689354
O   O14       1.0  0.96680  0.46450  0.63970  1.0000 -0.5815689354
O   O15       1.0  0.46450  0.63970  0.96680  1.0000 -0.5815689354
O   O16       1.0  0.96680  0.63970  0.46450  1.0000 -0.5815689354
O   O17       1.0  0.63970  0.46450  0.96680  1.0000 -0.5815689354
O   O18       1.0  0.46450  0.96680  0.63970  1.0000 -0.5815689354
