# DDEC6 charges by PACMAN v1.1 (https://github.com/mtap-research/PACMAN-charge/)
data_2014[CuU][nan]3[ASR]1
_chemical_formula_sum              "U8 Cu4 P16 H76 C112 N8 O48 F4"
_cell_length_a       18.608
_cell_length_b       9.9149
_cell_length_c       19.979
_cell_angle_alpha    90
_cell_angle_beta     93.926
_cell_angle_gamma    90

_symmetry_space_group_name_H-M    "P 1"
_symmetry_Int_Tables_number       1

loop_
  _symmetry_equiv_pos_as_xyz
  'x, y, z'

loop_
  _atom_site_type_symbol
  _atom_site_label
  _atom_site_symmetry_multiplicity
  _atom_site_fract_x
  _atom_site_fract_y
  _atom_site_fract_z
  _atom_site_occupancy
  _atom_site_charge
U   U1        1.0  0.18582  0.46804  0.20808  1.0000 2.2144056869
U   U2        1.0  0.81418  0.96804  0.29192  1.0000 2.2174030853
U   U3        1.0  0.81418  0.53196  0.79192  1.0000 2.2174030853
U   U4        1.0  0.18582  0.03196  0.70808  1.0000 2.2174030853
U   U5        1.0  0.19034  0.86873  0.25664  1.0000 2.0908459735
U   U6        1.0  0.80966  0.36873  0.24336  1.0000 2.1015287948
U   U7        1.0  0.80966  0.13127  0.74336  1.0000 2.1081089092
U   U8        1.0  0.19034  0.63127  0.75664  1.0000 2.1015287948
Cu  Cu1       1.0  0.12667  0.62815  0.48271  1.0000 0.8956458283
Cu  Cu2       1.0  0.87333  0.12815  0.01729  1.0000 0.8956458283
Cu  Cu3       1.0  0.87333  0.37185  0.51729  1.0000 0.8956458283
Cu  Cu4       1.0  0.12667  0.87185  0.98271  1.0000 0.8956458283
P   P1        1.0  0.23663  0.66700  0.37279  1.0000 1.2525502754
P   P2        1.0  0.76337  0.16700  0.12721  1.0000 1.2525502754
P   P3        1.0  0.76337  0.33300  0.62721  1.0000 1.2525502754
P   P4        1.0  0.23663  0.83300  0.87279  1.0000 1.2525502754
P   P5        1.0  0.81084  0.62750  0.37369  1.0000 1.3267145467
P   P6        1.0  0.18916  0.12750  0.12631  1.0000 1.3267145467
P   P7        1.0  0.18916  0.37250  0.62631  1.0000 1.3267145467
P   P8        1.0  0.81084  0.87250  0.87369  1.0000 1.3267145467
P   P9        1.0  0.22802  0.20280  0.34155  1.0000 1.3186508727
P   P10       1.0  0.77198  0.70280  0.15845  1.0000 1.3186508727
P   P11       1.0  0.77198  0.79720  0.65845  1.0000 1.3186508727
P   P12       1.0  0.22802  0.29720  0.84155  1.0000 1.3186508727
P   P13       1.0  0.79416  0.09610  0.45897  1.0000 1.3043980909
P   P14       1.0  0.20584  0.59610  0.04103  1.0000 1.3052187276
P   P15       1.0  0.20584  0.90390  0.54103  1.0000 1.3052187276
P   P16       1.0  0.79416  0.40390  0.95897  1.0000 1.3052187276
H   H1        1.0  0.35020  0.67430  0.47850  1.0000 0.1179587319
H   H2        1.0  0.64980  0.17430  0.02150  1.0000 0.1179587319
H   H3        1.0  0.64980  0.32570  0.52150  1.0000 0.1179587319
H   H4        1.0  0.35020  0.82570  0.97850  1.0000 0.1179587319
H   H5        1.0  0.47430  0.67150  0.48190  1.0000 0.1100405043
H   H6        1.0  0.52570  0.17150  0.01810  1.0000 0.1100405043
H   H7        1.0  0.52570  0.32850  0.51810  1.0000 0.1100405043
H   H8        1.0  0.47430  0.82850  0.98190  1.0000 0.1100405043
H   H9        1.0  0.46780  0.62070  0.28160  1.0000 0.1100405043
H   H10       1.0  0.53220  0.12070  0.21840  1.0000 0.1100405043
H   H11       1.0  0.53220  0.37930  0.71840  1.0000 0.1100405043
H   H12       1.0  0.46780  0.87930  0.78160  1.0000 0.1100405043
H   H13       1.0  0.34270  0.63130  0.27770  1.0000 0.1100405043
H   H14       1.0  0.65730  0.13130  0.22230  1.0000 0.1100405043
H   H15       1.0  0.65730  0.36870  0.72230  1.0000 0.1100405043
H   H16       1.0  0.34270  0.86870  0.77770  1.0000 0.1100405043
H   H17       1.0  0.58620  0.58960  0.47990  1.0000 0.1100405043
H   H18       1.0  0.41380  0.08960  0.02010  1.0000 0.1100405043
H   H19       1.0  0.41380  0.41040  0.52010  1.0000 0.1100405043
H   H20       1.0  0.58620  0.91040  0.97990  1.0000 0.1100405043
H   H21       1.0  0.70980  0.57870  0.47830  1.0000 0.1432799411
H   H22       1.0  0.29020  0.07870  0.02170  1.0000 0.1432799411
H   H23       1.0  0.29020  0.42130  0.52170  1.0000 0.1432799411
H   H24       1.0  0.70980  0.92130  0.97830  1.0000 0.1432799411
H   H25       1.0  0.69480  0.68970  0.28440  1.0000 0.1013138903
H   H26       1.0  0.30520  0.18970  0.21560  1.0000 0.1013138903
H   H27       1.0  0.30520  0.31030  0.71560  1.0000 0.1013138903
H   H28       1.0  0.69480  0.81030  0.78440  1.0000 0.1013138903
H   H29       1.0  0.57240  0.69830  0.28650  1.0000 0.1179587319
H   H30       1.0  0.42760  0.19830  0.21350  1.0000 0.1179587319
H   H31       1.0  0.42760  0.30170  0.71350  1.0000 0.1179587319
H   H32       1.0  0.57240  0.80170  0.78650  1.0000 0.1179587319
H   H33       1.0  0.32460  0.97810  0.36510  1.0000 0.1179587319
H   H34       1.0  0.67540  0.47810  0.13490  1.0000 0.1179587319
H   H35       1.0  0.67540  0.02190  0.63490  1.0000 0.1179587319
H   H36       1.0  0.32460  0.52190  0.86510  1.0000 0.1179587319
H   H37       1.0  0.44730  0.95250  0.38040  1.0000 0.1100405043
H   H38       1.0  0.55270  0.45250  0.11960  1.0000 0.1100405043
H   H39       1.0  0.55270  0.04750  0.61960  1.0000 0.1100405043
H   H40       1.0  0.44730  0.54750  0.88040  1.0000 0.1100405043
H   H41       1.0  0.47150  0.35250  0.37710  1.0000 0.1100405043
H   H42       1.0  0.52850  0.85250  0.12290  1.0000 0.1100405043
H   H43       1.0  0.52850  0.64750  0.62290  1.0000 0.1100405043
H   H44       1.0  0.47150  0.14750  0.87710  1.0000 0.1100405043
H   H45       1.0  0.35000  0.37940  0.35430  1.0000 0.1179587319
H   H46       1.0  0.65000  0.87940  0.14570  1.0000 0.1179587319
H   H47       1.0  0.65000  0.62060  0.64570  1.0000 0.1179587319
H   H48       1.0  0.35000  0.12060  0.85430  1.0000 0.1179587319
H   H49       1.0  0.54790  0.95620  0.45010  1.0000 0.1100405043
H   H50       1.0  0.45210  0.45620  0.04990  1.0000 0.1100405043
H   H51       1.0  0.45210  0.04380  0.54990  1.0000 0.1100405043
H   H52       1.0  0.54790  0.54380  0.95010  1.0000 0.1100405043
H   H53       1.0  0.66780  0.93820  0.47760  1.0000 0.1179587319
H   H54       1.0  0.33220  0.43820  0.02240  1.0000 0.1179587319
H   H55       1.0  0.33220  0.06180  0.52240  1.0000 0.1179587319
H   H56       1.0  0.66780  0.56180  0.97760  1.0000 0.1179587319
H   H57       1.0  0.70590  0.28390  0.38330  1.0000 0.1100405043
H   H58       1.0  0.29410  0.78390  0.11670  1.0000 0.1100405043
H   H59       1.0  0.29410  0.71610  0.61670  1.0000 0.1100405043
H   H60       1.0  0.70590  0.21610  0.88330  1.0000 0.1100405043
H   H61       1.0  0.58580  0.30490  0.35200  1.0000 0.1179587319
H   H62       1.0  0.41420  0.80490  0.14800  1.0000 0.1179587319
H   H63       1.0  0.41420  0.69510  0.64800  1.0000 0.1179587319
H   H64       1.0  0.58580  0.19510  0.85200  1.0000 0.1179587319
H   H65       1.0  0.07410  0.76010  0.61830  1.0000 0.1100405043
H   H66       1.0  0.92590  0.26010  0.88170  1.0000 0.1100405043
H   H67       1.0  0.92590  0.23990  0.38170  1.0000 0.1100405043
H   H68       1.0  0.07410  0.73990  0.11830  1.0000 0.1100405043
H   H69       1.0  0.97440  0.72300  0.68230  1.0000 0.1495836799
H   H70       1.0  0.02560  0.22300  0.81770  1.0000 0.1495836799
H   H71       1.0  0.02560  0.27700  0.31770  1.0000 0.1495836799
H   H72       1.0  0.97440  0.77700  0.18230  1.0000 0.1495836799
H   H73       1.0  0.88650  0.57660  0.64000  1.0000 0.1280570788
H   H74       1.0  0.11350  0.07660  0.86000  1.0000 0.1280570788
H   H75       1.0  0.11350  0.42340  0.36000  1.0000 0.1280570788
H   H76       1.0  0.88650  0.92340  0.14000  1.0000 0.1280570788
C   C1        1.0  0.33350  0.65190  0.37680  1.0000 -0.19384238
C   C2        1.0  0.66650  0.15190  0.12320  1.0000 -0.19384238
C   C3        1.0  0.66650  0.34810  0.62320  1.0000 -0.19384238
C   C4        1.0  0.33350  0.84810  0.87680  1.0000 -0.19384238
C   C5        1.0  0.37350  0.66470  0.43910  1.0000 -0.0682519364
C   C6        1.0  0.62650  0.16470  0.06090  1.0000 -0.0682519364
C   C7        1.0  0.62650  0.33530  0.56090  1.0000 -0.0682519364
C   C8        1.0  0.37350  0.83530  0.93910  1.0000 -0.0682519364
C   C9        1.0  0.44800  0.66270  0.44090  1.0000 -0.1596553388
C   C10       1.0  0.55200  0.16270  0.05910  1.0000 -0.1596553388
C   C11       1.0  0.55200  0.33730  0.55910  1.0000 -0.1596553388
C   C12       1.0  0.44800  0.83730  0.94090  1.0000 -0.1596553388
C   C13       1.0  0.48470  0.64790  0.38250  1.0000 0.0677115576
C   C14       1.0  0.51530  0.14790  0.11750  1.0000 0.0677115576
C   C15       1.0  0.51530  0.35210  0.61750  1.0000 0.0677115576
C   C16       1.0  0.48470  0.85210  0.88250  1.0000 0.0677115576
C   C17       1.0  0.44450  0.63330  0.32090  1.0000 -0.1512259332
C   C18       1.0  0.55550  0.13330  0.17910  1.0000 -0.1512259332
C   C19       1.0  0.55550  0.36670  0.67910  1.0000 -0.1512259332
C   C20       1.0  0.44450  0.86670  0.82090  1.0000 -0.1512259332
C   C21       1.0  0.36910  0.63790  0.31880  1.0000 -0.1080781805
C   C22       1.0  0.63090  0.13790  0.18120  1.0000 -0.1080781805
C   C23       1.0  0.63090  0.36210  0.68120  1.0000 -0.1080781805
C   C24       1.0  0.36910  0.86210  0.81880  1.0000 -0.1080781805
C   C25       1.0  0.56590  0.64350  0.38260  1.0000 0.0603965459
C   C26       1.0  0.43410  0.14350  0.11740  1.0000 0.0603965459
C   C27       1.0  0.43410  0.35650  0.61740  1.0000 0.0603965459
C   C28       1.0  0.56590  0.85650  0.88260  1.0000 0.0603965459
C   C29       1.0  0.60810  0.60870  0.44050  1.0000 -0.1512259332
C   C30       1.0  0.39190  0.10870  0.05950  1.0000 -0.1512259332
C   C31       1.0  0.39190  0.39130  0.55950  1.0000 -0.1512259332
C   C32       1.0  0.60810  0.89130  0.94050  1.0000 -0.1512259332
C   C33       1.0  0.68220  0.60240  0.43950  1.0000 -0.0542485068
C   C34       1.0  0.31780  0.10240  0.06050  1.0000 -0.0542485068
C   C35       1.0  0.31780  0.39760  0.56050  1.0000 -0.0542485068
C   C36       1.0  0.68220  0.89760  0.93950  1.0000 -0.0542485068
C   C37       1.0  0.71590  0.63100  0.38160  1.0000 -0.217795788
C   C38       1.0  0.28410  0.13100  0.11840  1.0000 -0.217795788
C   C39       1.0  0.28410  0.36900  0.61840  1.0000 -0.217795788
C   C40       1.0  0.71590  0.86900  0.88160  1.0000 -0.217795788
C   C41       1.0  0.67320  0.66850  0.32360  1.0000 -0.1080781805
C   C42       1.0  0.32680  0.16850  0.17640  1.0000 -0.1080781805
C   C43       1.0  0.32680  0.33150  0.67640  1.0000 -0.1080781805
C   C44       1.0  0.67320  0.83150  0.82360  1.0000 -0.1080781805
C   C45       1.0  0.60000  0.67380  0.32510  1.0000 -0.1422775301
C   C46       1.0  0.40000  0.17380  0.17490  1.0000 -0.1422775301
C   C47       1.0  0.40000  0.32620  0.67490  1.0000 -0.1422775301
C   C48       1.0  0.60000  0.82620  0.82510  1.0000 -0.1422775301
C   C49       1.0  0.32470  0.18200  0.35500  1.0000 -0.1997967723
C   C50       1.0  0.67530  0.68200  0.14500  1.0000 -0.1997967723
C   C51       1.0  0.67530  0.81800  0.64500  1.0000 -0.1997967723
C   C52       1.0  0.32470  0.31800  0.85500  1.0000 -0.1997967723
C   C53       1.0  0.35440  0.05340  0.36550  1.0000 -0.0783165215
C   C54       1.0  0.64560  0.55340  0.13450  1.0000 -0.0783165215
C   C55       1.0  0.64560  0.94660  0.63450  1.0000 -0.0783165215
C   C56       1.0  0.35440  0.44660  0.86550  1.0000 -0.0783165215
C   C57       1.0  0.42770  0.03860  0.37640  1.0000 -0.1422775301
C   C58       1.0  0.57230  0.53860  0.12360  1.0000 -0.1422775301
C   C59       1.0  0.57230  0.96140  0.62360  1.0000 -0.1422775301
C   C60       1.0  0.42770  0.46140  0.87640  1.0000 -0.1422775301
C   C61       1.0  0.47310  0.15080  0.38170  1.0000 0.0603965459
C   C62       1.0  0.52690  0.65080  0.11830  1.0000 0.0603965459
C   C63       1.0  0.52690  0.84920  0.61830  1.0000 0.0603965459
C   C64       1.0  0.47310  0.34920  0.88170  1.0000 0.0603965459
C   C65       1.0  0.44220  0.27660  0.37350  1.0000 -0.1512259332
C   C66       1.0  0.55780  0.77660  0.12650  1.0000 -0.1512259332
C   C67       1.0  0.55780  0.72340  0.62650  1.0000 -0.1512259332
C   C68       1.0  0.44220  0.22340  0.87350  1.0000 -0.1512259332
C   C69       1.0  0.36920  0.29330  0.36000  1.0000 -0.0783165215
C   C70       1.0  0.63080  0.79330  0.14000  1.0000 -0.0783165215
C   C71       1.0  0.63080  0.70670  0.64000  1.0000 -0.0783165215
C   C72       1.0  0.36920  0.20670  0.86000  1.0000 -0.0783165215
C   C73       1.0  0.55260  0.13410  0.39810  1.0000 0.0750349623
C   C74       1.0  0.44740  0.63410  0.10190  1.0000 0.0750349623
C   C75       1.0  0.44740  0.86590  0.60190  1.0000 0.0750349623
C   C76       1.0  0.55260  0.36590  0.89810  1.0000 0.0750349623
C   C77       1.0  0.57920  0.02230  0.43650  1.0000 -0.1596553388
C   C78       1.0  0.42080  0.52230  0.06350  1.0000 -0.1596553388
C   C79       1.0  0.42080  0.97770  0.56350  1.0000 -0.1596553388
C   C80       1.0  0.57920  0.47770  0.93650  1.0000 -0.1596553388
C   C81       1.0  0.65100  0.01300  0.45320  1.0000 -0.0581025646
C   C82       1.0  0.34900  0.51300  0.04680  1.0000 -0.0581025646
C   C83       1.0  0.34900  0.98700  0.54680  1.0000 -0.0581025646
C   C84       1.0  0.65100  0.48700  0.95320  1.0000 -0.0581025646
C   C85       1.0  0.70110  0.11030  0.43550  1.0000 -0.2279530118
C   C86       1.0  0.29890  0.61030  0.06450  1.0000 -0.2279530118
C   C87       1.0  0.29890  0.88970  0.56450  1.0000 -0.2279530118
C   C88       1.0  0.70110  0.38970  0.93550  1.0000 -0.2279530118
C   C89       1.0  0.67400  0.21860  0.39680  1.0000 -0.0897614273
C   C90       1.0  0.32600  0.71860  0.10320  1.0000 -0.0897614273
C   C91       1.0  0.32600  0.78140  0.60320  1.0000 -0.0897614273
C   C92       1.0  0.67400  0.28140  0.89680  1.0000 -0.0897614273
C   C93       1.0  0.60200  0.23180  0.37800  1.0000 -0.1596553388
C   C94       1.0  0.39800  0.73180  0.12200  1.0000 -0.1596553388
C   C95       1.0  0.39800  0.76820  0.62200  1.0000 -0.1596553388
C   C96       1.0  0.60200  0.26820  0.87800  1.0000 -0.1596553388
C   C97       1.0  0.03900  0.69760  0.60410  1.0000 0.1495836799
C   C98       1.0  0.96100  0.19760  0.89590  1.0000 0.1495836799
C   C99       1.0  0.96100  0.30240  0.39590  1.0000 0.1495836799
C   C100      1.0  0.03900  0.80240  0.10410  1.0000 0.1495836799
C   C101      1.0  0.97910  0.67750  0.64220  1.0000 -0.1997967723
C   C102      1.0  0.02090  0.17750  0.85780  1.0000 -0.1997967723
C   C103      1.0  0.02090  0.32250  0.35780  1.0000 -0.1997967723
C   C104      1.0  0.97910  0.82250  0.14220  1.0000 -0.1997967723
C   C105      1.0  0.92810  0.58770  0.61730  1.0000 0.1566239645
C   C106      1.0  0.07190  0.08770  0.88270  1.0000 0.1566239645
C   C107      1.0  0.07190  0.41230  0.38270  1.0000 0.1566239645
C   C108      1.0  0.92810  0.91230  0.11730  1.0000 0.1566239645
C   C109      1.0  0.99460  0.53850  0.53020  1.0000 0.2615148437
C   C110      1.0  0.00540  0.03850  0.96980  1.0000 0.2615148437
C   C111      1.0  0.00540  0.46150  0.46980  1.0000 0.2615148437
C   C112      1.0  0.99460  0.96150  0.03020  1.0000 0.2615148437
N   N1        1.0  0.04630  0.62740  0.54720  1.0000 -0.2898352059
N   N2        1.0  0.95370  0.12740  0.95280  1.0000 -0.2898352059
N   N3        1.0  0.95370  0.37260  0.45280  1.0000 -0.2898352059
N   N4        1.0  0.04630  0.87260  0.04720  1.0000 -0.2898352059
N   N5        1.0  0.93570  0.51600  0.56210  1.0000 -0.2798501539
N   N6        1.0  0.06430  0.01600  0.93790  1.0000 -0.2798501539
N   N7        1.0  0.06430  0.48400  0.43790  1.0000 -0.2798501539
N   N8        1.0  0.93570  0.98400  0.06210  1.0000 -0.2798501539
O   O1        1.0  0.20870  0.62610  0.30140  1.0000 -0.9686721849
O   O2        1.0  0.79130  0.12610  0.19860  1.0000 -0.9686721849
O   O3        1.0  0.79130  0.37390  0.69860  1.0000 -0.9686721849
O   O4        1.0  0.20870  0.87390  0.80140  1.0000 -0.9686721849
O   O5        1.0  0.21840  0.81950  0.37410  1.0000 -0.7787422824
O   O6        1.0  0.78160  0.31950  0.12590  1.0000 -0.7787422824
O   O7        1.0  0.78160  0.18050  0.62590  1.0000 -0.7787422824
O   O8        1.0  0.21840  0.68050  0.87410  1.0000 -0.7787422824
O   O9        1.0  0.20630  0.58940  0.42870  1.0000 -0.6802120271
O   O10       1.0  0.79370  0.08940  0.07130  1.0000 -0.6802120271
O   O11       1.0  0.79370  0.41060  0.57130  1.0000 -0.6802120271
O   O12       1.0  0.20630  0.91060  0.92870  1.0000 -0.6802120271
O   O13       1.0  0.84690  0.62070  0.44640  1.0000 -0.7023808645
O   O14       1.0  0.15310  0.12070  0.05360  1.0000 -0.7023808645
O   O15       1.0  0.15310  0.37930  0.55360  1.0000 -0.7023808645
O   O16       1.0  0.84690  0.87930  0.94640  1.0000 -0.7023808645
O   O17       1.0  0.83200  0.50240  0.33660  1.0000 -0.848195045
O   O18       1.0  0.16800  0.00240  0.16340  1.0000 -0.848195045
O   O19       1.0  0.16800  0.49760  0.66340  1.0000 -0.848195045
O   O20       1.0  0.83200  0.99760  0.83660  1.0000 -0.848195045
O   O21       1.0  0.83320  0.75230  0.33740  1.0000 -0.8444322932
O   O22       1.0  0.16680  0.25230  0.16260  1.0000 -0.8444322932
O   O23       1.0  0.16680  0.24770  0.66260  1.0000 -0.8444322932
O   O24       1.0  0.83320  0.74770  0.83740  1.0000 -0.8444322932
O   O25       1.0  0.19520  0.07590  0.30990  1.0000 -0.8266733127
O   O26       1.0  0.80480  0.57590  0.19010  1.0000 -0.8266733127
O   O27       1.0  0.80480  0.92410  0.69010  1.0000 -0.8266733127
O   O28       1.0  0.19520  0.42410  0.80990  1.0000 -0.8266733127
O   O29       1.0  0.19670  0.22580  0.41270  1.0000 -0.613591938
O   O30       1.0  0.80330  0.72580  0.08730  1.0000 -0.613591938
O   O31       1.0  0.80330  0.77420  0.58730  1.0000 -0.6155157971
O   O32       1.0  0.19670  0.27420  0.91270  1.0000 -0.613591938
O   O33       1.0  0.21120  0.33060  0.30220  1.0000 -0.8663412469
O   O34       1.0  0.78880  0.83060  0.19780  1.0000 -0.8663412469
O   O35       1.0  0.78880  0.66940  0.69780  1.0000 -0.8663412469
O   O36       1.0  0.21120  0.16940  0.80220  1.0000 -0.8663412469
O   O37       1.0  0.82490  0.23550  0.46550  1.0000 -0.7423503834
O   O38       1.0  0.17510  0.73550  0.03450  1.0000 -0.7423503834
O   O39       1.0  0.17510  0.76450  0.53450  1.0000 -0.7423503834
O   O40       1.0  0.82490  0.26450  0.96550  1.0000 -0.7423503834
O   O41       1.0  0.80010  0.02160  0.52930  1.0000 -0.5976431506
O   O42       1.0  0.19990  0.52160  0.97070  1.0000 -0.5976431506
O   O43       1.0  0.19990  0.97840  0.47070  1.0000 -0.5976431506
O   O44       1.0  0.80010  0.47840  0.02930  1.0000 -0.5976431506
O   O45       1.0  0.83140  0.00200  0.41150  1.0000 -0.848195045
O   O46       1.0  0.16860  0.50200  0.08850  1.0000 -0.848195045
O   O47       1.0  0.16860  0.99800  0.58850  1.0000 -0.848195045
O   O48       1.0  0.83140  0.49800  0.91150  1.0000 -0.848195045
F   F1        1.0  0.17780  0.69830  0.18080  1.0000 -0.6802120271
F   F2        1.0  0.82220  0.19830  0.31920  1.0000 -0.6802120271
F   F3        1.0  0.82220  0.30170  0.81920  1.0000 -0.6802120271
F   F4        1.0  0.17780  0.80170  0.68080  1.0000 -0.6802120271
