# DDEC6 charges by PACMAN v1.1 (https://github.com/mtap-research/PACMAN-charge/)
data_2014[Co][sra]3[ASR]1
_chemical_formula_sum              "Co8 H28 C72 N12 O32"
_cell_length_a       10.213
_cell_length_b       17.607
_cell_length_c       28.4484
_cell_angle_alpha    90
_cell_angle_beta     102.191
_cell_angle_gamma    90

_symmetry_space_group_name_H-M    "P 1"
_symmetry_Int_Tables_number       1

loop_
  _symmetry_equiv_pos_as_xyz
  'x, y, z'

loop_
  _atom_site_type_symbol
  _atom_site_label
  _atom_site_symmetry_multiplicity
  _atom_site_fract_x
  _atom_site_fract_y
  _atom_site_fract_z
  _atom_site_occupancy
  _atom_site_charge
Co  Co1       1.0  0.96001  0.62384  0.16944  1.0000 0.9954804675
Co  Co2       1.0  0.03999  0.12384  0.33056  1.0000 0.9939035669
Co  Co3       1.0  0.03999  0.37616  0.83056  1.0000 0.9939035669
Co  Co4       1.0  0.96001  0.87616  0.66944  1.0000 0.9954804675
Co  Co5       1.0  0.24738  0.54941  0.25564  1.0000 1.101687421
Co  Co6       1.0  0.75262  0.04941  0.24436  1.0000 1.101687421
Co  Co7       1.0  0.75262  0.45059  0.74436  1.0000 1.101687421
Co  Co8       1.0  0.24738  0.95059  0.75564  1.0000 1.101687421
H   H1        1.0  0.03420  0.32850  0.24310  1.0000 0.1398568438
H   H2        1.0  0.96580  0.82850  0.25690  1.0000 0.1398568438
H   H3        1.0  0.96580  0.67150  0.75690  1.0000 0.1398568438
H   H4        1.0  0.03420  0.17150  0.74310  1.0000 0.1398568438
H   H5        1.0  0.79700  0.19310  0.14680  1.0000 0.1297086423
H   H6        1.0  0.20300  0.69310  0.35320  1.0000 0.1297086423
H   H7        1.0  0.20300  0.80690  0.85320  1.0000 0.1297086423
H   H8        1.0  0.79700  0.30690  0.64680  1.0000 0.1297086423
H   H9        1.0  0.86700  0.40910  0.11280  1.0000 0.1297086423
H   H10       1.0  0.13300  0.90910  0.38720  1.0000 0.1297086423
H   H11       1.0  0.13300  0.59090  0.88720  1.0000 0.1297086423
H   H12       1.0  0.86700  0.09090  0.61280  1.0000 0.1297086423
H   H13       1.0  0.81940  0.35060  0.02860  1.0000 0.1231113832
H   H14       1.0  0.18060  0.85060  0.47140  1.0000 0.1231113832
H   H15       1.0  0.18060  0.64940  0.97140  1.0000 0.1231113832
H   H16       1.0  0.81940  0.14940  0.52860  1.0000 0.1231113832
H   H17       1.0  0.52250  0.37840  0.82120  1.0000 0.1297086423
H   H18       1.0  0.47750  0.87840  0.67880  1.0000 0.1297086423
H   H19       1.0  0.47750  0.62160  0.17880  1.0000 0.1231113832
H   H20       1.0  0.52250  0.12160  0.32120  1.0000 0.1297086423
H   H21       1.0  0.40600  0.31820  0.94270  1.0000 0.1231113832
H   H22       1.0  0.59400  0.81820  0.55730  1.0000 0.1231113832
H   H23       1.0  0.59400  0.68180  0.05730  1.0000 0.1231113832
H   H24       1.0  0.40600  0.18180  0.44270  1.0000 0.1231113832
H   H25       1.0  0.79740  0.32410  0.93860  1.0000 0.1231113832
H   H26       1.0  0.20260  0.82410  0.56140  1.0000 0.1231113832
H   H27       1.0  0.20260  0.67590  0.06140  1.0000 0.1231113832
H   H28       1.0  0.79740  0.17590  0.43860  1.0000 0.1231113832
C   C1        1.0  0.01432  0.45930  0.19412  1.0000 0.617161661
C   C2        1.0  0.98568  0.95930  0.30588  1.0000 0.6087783173
C   C3        1.0  0.98568  0.54070  0.80588  1.0000 0.617161661
C   C4        1.0  0.01432  0.04070  0.69412  1.0000 0.617161661
C   C5        1.0  0.95785  0.38110  0.18045  1.0000 -0.0085287407
C   C6        1.0  0.04215  0.88110  0.31955  1.0000 -0.0085287407
C   C7        1.0  0.04215  0.61890  0.81955  1.0000 -0.0085287407
C   C8        1.0  0.95785  0.11890  0.68045  1.0000 -0.0085287407
C   C9        1.0  0.97901  0.32150  0.21291  1.0000 -0.0875363332
C   C10       1.0  0.02099  0.82150  0.28709  1.0000 -0.0875363332
C   C11       1.0  0.02099  0.67850  0.78709  1.0000 -0.0875363332
C   C12       1.0  0.97901  0.17850  0.71291  1.0000 -0.0875363332
C   C13       1.0  0.91866  0.25110  0.20096  1.0000 -0.0028050618
C   C14       1.0  0.08134  0.75110  0.29904  1.0000 -0.0085287407
C   C15       1.0  0.08134  0.74890  0.79904  1.0000 -0.0028050618
C   C16       1.0  0.91866  0.24890  0.70096  1.0000 -0.0028050618
C   C17       1.0  0.83783  0.23980  0.15513  1.0000 -0.1596380632
C   C18       1.0  0.16217  0.73980  0.34487  1.0000 -0.1596380632
C   C19       1.0  0.16217  0.76020  0.84487  1.0000 -0.1596380632
C   C20       1.0  0.83783  0.26020  0.65513  1.0000 -0.1596380632
C   C21       1.0  0.81944  0.29890  0.12244  1.0000 0.1297086423
C   C22       1.0  0.18056  0.79890  0.37756  1.0000 0.1297086423
C   C23       1.0  0.18056  0.70110  0.87756  1.0000 0.1297086423
C   C24       1.0  0.81944  0.20110  0.62244  1.0000 0.1297086423
C   C25       1.0  0.87965  0.36970  0.13505  1.0000 -0.1766058012
C   C26       1.0  0.12035  0.86970  0.36495  1.0000 -0.1766058012
C   C27       1.0  0.12035  0.63030  0.86495  1.0000 -0.1766058012
C   C28       1.0  0.87965  0.13030  0.63505  1.0000 -0.1766058012
C   C29       1.0  0.74913  0.32010  0.03333  1.0000 -0.1596380632
C   C30       1.0  0.25087  0.82010  0.46667  1.0000 -0.1596380632
C   C31       1.0  0.25087  0.67990  0.96667  1.0000 -0.1596380632
C   C32       1.0  0.74913  0.17990  0.53333  1.0000 -0.1596380632
C   C33       1.0  0.60771  0.31780  0.94901  1.0000 0.0463782446
C   C34       1.0  0.39229  0.81780  0.55099  1.0000 0.0463782446
C   C35       1.0  0.39229  0.68220  0.05099  1.0000 0.0448928968
C   C36       1.0  0.60771  0.18220  0.44901  1.0000 0.0463782446
C   C37       1.0  0.29657  0.36090  0.85317  1.0000 0.5426978365
C   C38       1.0  0.70343  0.86090  0.64683  1.0000 0.5426978365
C   C39       1.0  0.70343  0.63910  0.14683  1.0000 0.5426978365
C   C40       1.0  0.29657  0.13910  0.35317  1.0000 0.5426978365
C   C41       1.0  0.44069  0.34900  0.87759  1.0000 0.001257494
C   C42       1.0  0.55931  0.84900  0.62241  1.0000 -0.0028050618
C   C43       1.0  0.55931  0.65100  0.12241  1.0000 -0.0028050618
C   C44       1.0  0.44069  0.15100  0.37759  1.0000 0.001257494
C   C45       1.0  0.54329  0.36270  0.85309  1.0000 -0.0875363332
C   C46       1.0  0.45671  0.86270  0.64691  1.0000 -0.0875363332
C   C47       1.0  0.45671  0.63730  0.14691  1.0000 -0.0875363332
C   C48       1.0  0.54329  0.13730  0.35309  1.0000 -0.0875363332
C   C49       1.0  0.47352  0.32690  0.92592  1.0000 -0.1179288133
C   C50       1.0  0.52648  0.82690  0.57408  1.0000 -0.1179288133
C   C51       1.0  0.52648  0.67310  0.07408  1.0000 -0.1179288133
C   C52       1.0  0.47352  0.17310  0.42592  1.0000 -0.1179288133
C   C53       1.0  0.93507  0.18640  0.23687  1.0000 0.6039887921
C   C54       1.0  0.06493  0.68640  0.26313  1.0000 0.6087783173
C   C55       1.0  0.06493  0.81360  0.76313  1.0000 0.6087783173
C   C56       1.0  0.93507  0.31360  0.73687  1.0000 0.6087783173
C   C57       1.0  0.78470  0.36900  0.84860  1.0000 0.6039887921
C   C58       1.0  0.21530  0.86900  0.65140  1.0000 0.6039887921
C   C59       1.0  0.21530  0.63100  0.15140  1.0000 0.6039887921
C   C60       1.0  0.78470  0.13100  0.34860  1.0000 0.6039887921
C   C61       1.0  0.67593  0.35310  0.87613  1.0000 -0.0085287407
C   C62       1.0  0.32407  0.85310  0.62387  1.0000 -0.0160733406
C   C63       1.0  0.32407  0.64690  0.12387  1.0000 -0.0160733406
C   C64       1.0  0.67593  0.14690  0.37613  1.0000 -0.0160733406
C   C65       1.0  0.70812  0.33070  0.92352  1.0000 -0.1402598592
C   C66       1.0  0.29188  0.83070  0.57648  1.0000 -0.1402598592
C   C67       1.0  0.29188  0.66930  0.07648  1.0000 -0.1402598592
C   C68       1.0  0.70812  0.16930  0.42352  1.0000 -0.1402598592
C   C69       1.0  0.64299  0.29780  0.99929  1.0000 0.1128702283
C   C70       1.0  0.35701  0.79780  0.50071  1.0000 0.1128702283
C   C71       1.0  0.35701  0.70220  0.00071  1.0000 0.1128702283
C   C72       1.0  0.64299  0.20220  0.49929  1.0000 0.1128702283
N   N1        1.0  0.73454  0.29020  0.07474  1.0000 0.1458170162
N   N2        1.0  0.26546  0.79020  0.42526  1.0000 0.1398568438
N   N3        1.0  0.26546  0.70980  0.92526  1.0000 0.1458170162
N   N4        1.0  0.73454  0.20980  0.57474  1.0000 0.1458170162
N   N5        1.0  0.61870  0.25150  0.06710  1.0000 -0.1402598592
N   N6        1.0  0.38130  0.75150  0.43290  1.0000 -0.1402598592
N   N7        1.0  0.38130  0.74850  0.93290  1.0000 -0.1402598592
N   N8        1.0  0.61870  0.24850  0.56710  1.0000 -0.1402598592
N   N9        1.0  0.56300  0.25720  0.02130  1.0000 -0.222353737
N   N10       1.0  0.43700  0.75720  0.47870  1.0000 -0.222353737
N   N11       1.0  0.43700  0.74280  0.97870  1.0000 -0.2252609833
N   N12       1.0  0.56300  0.24280  0.52130  1.0000 -0.2252609833
O   O1        1.0  0.20805  0.34560  0.87725  1.0000 -0.5310546934
O   O2        1.0  0.79195  0.84560  0.62275  1.0000 -0.5310546934
O   O3        1.0  0.79195  0.65440  0.12275  1.0000 -0.5310546934
O   O4        1.0  0.20805  0.15440  0.37725  1.0000 -0.5310546934
O   O5        1.0  0.26870  0.38440  0.81130  1.0000 -0.5211828795
O   O6        1.0  0.73130  0.88440  0.68870  1.0000 -0.5211828795
O   O7        1.0  0.73130  0.61560  0.18870  1.0000 -0.5310546934
O   O8        1.0  0.26870  0.11560  0.31130  1.0000 -0.5211828795
O   O9        1.0  0.95693  0.51261  0.16813  1.0000 -0.5541432007
O   O10       1.0  0.04307  0.01261  0.33187  1.0000 -0.5559454267
O   O11       1.0  0.04307  0.48739  0.83187  1.0000 -0.5559454267
O   O12       1.0  0.95693  0.98739  0.66813  1.0000 -0.5559454267
O   O13       1.0  0.11023  0.46510  0.22943  1.0000 -0.5871018672
O   O14       1.0  0.88977  0.96510  0.27057  1.0000 -0.5842024787
O   O15       1.0  0.88977  0.53490  0.77057  1.0000 -0.5871018672
O   O16       1.0  0.11023  0.03490  0.72943  1.0000 -0.5871018672
O   O17       1.0  0.00196  0.19990  0.27846  1.0000 -0.5356428131
O   O18       1.0  0.99804  0.69990  0.22154  1.0000 -0.5310546934
O   O19       1.0  0.99804  0.80010  0.72154  1.0000 -0.5310546934
O   O20       1.0  0.00196  0.30010  0.77846  1.0000 -0.5310546934
O   O21       1.0  0.88184  0.12400  0.22294  1.0000 -0.6162179017
O   O22       1.0  0.11816  0.62400  0.27706  1.0000 -0.6162179017
O   O23       1.0  0.11816  0.87600  0.77706  1.0000 -0.6097852453
O   O24       1.0  0.88184  0.37600  0.72294  1.0000 -0.6162179017
O   O25       1.0  0.75266  0.39390  0.80726  1.0000 -0.6097852453
O   O26       1.0  0.24734  0.89390  0.69274  1.0000 -0.6097852453
O   O27       1.0  0.24734  0.60610  0.19274  1.0000 -0.6097852453
O   O28       1.0  0.75266  0.10610  0.30726  1.0000 -0.6097852453
O   O29       1.0  0.90333  0.35310  0.86943  1.0000 -0.5211828795
O   O30       1.0  0.09667  0.85310  0.63057  1.0000 -0.5211828795
O   O31       1.0  0.09667  0.64690  0.13057  1.0000 -0.5211828795
O   O32       1.0  0.90333  0.14690  0.36943  1.0000 -0.5211828795
