# DDEC6 charges by PACMAN v1.1 (https://github.com/mtap-research/PACMAN-charge/)
data_2015[Zn][ssa]3[ASR]1
_chemical_formula_sum              "Zn12 H66 C132 N6 O48"
_cell_length_a       18.468
_cell_length_b       18.468
_cell_length_c       24.16
_cell_angle_alpha    90
_cell_angle_beta     90
_cell_angle_gamma    120

_symmetry_space_group_name_H-M    "P 1"
_symmetry_Int_Tables_number       1

loop_
  _symmetry_equiv_pos_as_xyz
  'x, y, z'

loop_
  _atom_site_type_symbol
  _atom_site_label
  _atom_site_symmetry_multiplicity
  _atom_site_fract_x
  _atom_site_fract_y
  _atom_site_fract_z
  _atom_site_occupancy
  _atom_site_charge
Zn  Zn1       1.0  0.47292  0.52707  0.44989  1.0000 0.9499974452
Zn  Zn2       1.0  0.94585  0.47292  0.94989  1.0000 0.9499974452
Zn  Zn3       1.0  0.47292  0.94585  0.44989  1.0000 0.9499974452
Zn  Zn4       1.0  0.52707  0.47292  0.94989  1.0000 0.9499974452
Zn  Zn5       1.0  0.05415  0.52707  0.44989  1.0000 0.9499974452
Zn  Zn6       1.0  0.52707  0.05415  0.94989  1.0000 0.9499974452
Zn  Zn7       1.0  0.94585  0.47292  0.55011  1.0000 0.9499974452
Zn  Zn8       1.0  0.52707  0.05415  0.55011  1.0000 0.9499974452
Zn  Zn9       1.0  0.52707  0.47292  0.55011  1.0000 0.9499974452
Zn  Zn10      1.0  0.47292  0.52707  0.05011  1.0000 0.9499974452
Zn  Zn11      1.0  0.05415  0.52707  0.05011  1.0000 0.9499974452
Zn  Zn12      1.0  0.47292  0.94585  0.05011  1.0000 0.9499974452
H   H1        1.0  0.52750  0.76375  0.51260  1.0000 0.1390808551
H   H2        1.0  0.76375  0.52750  0.01260  1.0000 0.1390808551
H   H3        1.0  0.23625  0.76375  0.51260  1.0000 0.1390808551
H   H4        1.0  0.47250  0.23625  0.01260  1.0000 0.1390808551
H   H5        1.0  0.23625  0.47250  0.51260  1.0000 0.1390808551
H   H6        1.0  0.76375  0.23625  0.01260  1.0000 0.1390808551
H   H7        1.0  0.76375  0.23625  0.48740  1.0000 0.1390808551
H   H8        1.0  0.47250  0.23625  0.48740  1.0000 0.1390808551
H   H9        1.0  0.76375  0.52750  0.48740  1.0000 0.1390808551
H   H10       1.0  0.23625  0.47250  0.98740  1.0000 0.1390808551
H   H11       1.0  0.23625  0.76375  0.98740  1.0000 0.1390808551
H   H12       1.0  0.52750  0.76375  0.98740  1.0000 0.1390808551
H   H13       1.0  0.63610  0.71040  0.63780  1.0000 0.1309111916
H   H14       1.0  0.92570  0.63610  0.13780  1.0000 0.1309111916
H   H15       1.0  0.28960  0.92570  0.63780  1.0000 0.1309111916
H   H16       1.0  0.36390  0.28960  0.13780  1.0000 0.1309111916
H   H17       1.0  0.07430  0.36390  0.63780  1.0000 0.1309111916
H   H18       1.0  0.71040  0.07430  0.13780  1.0000 0.1309111916
H   H19       1.0  0.92570  0.28960  0.36220  1.0000 0.1309111916
H   H20       1.0  0.36390  0.07430  0.36220  1.0000 0.1309111916
H   H21       1.0  0.71040  0.63610  0.36220  1.0000 0.1309111916
H   H22       1.0  0.28960  0.36390  0.86220  1.0000 0.1309111916
H   H23       1.0  0.07430  0.71040  0.86220  1.0000 0.1309111916
H   H24       1.0  0.63610  0.92570  0.86220  1.0000 0.1309111916
H   H25       1.0  0.36390  0.28960  0.36220  1.0000 0.1309111916
H   H26       1.0  0.07430  0.36390  0.86220  1.0000 0.1309111916
H   H27       1.0  0.71040  0.07430  0.36220  1.0000 0.1309111916
H   H28       1.0  0.63610  0.71040  0.86220  1.0000 0.1309111916
H   H29       1.0  0.92570  0.63610  0.36220  1.0000 0.1309111916
H   H30       1.0  0.28960  0.92570  0.86220  1.0000 0.1309111916
H   H31       1.0  0.07430  0.71040  0.63780  1.0000 0.1309111916
H   H32       1.0  0.63610  0.92570  0.63780  1.0000 0.1309111916
H   H33       1.0  0.28960  0.36390  0.63780  1.0000 0.1309111916
H   H34       1.0  0.71040  0.63610  0.13780  1.0000 0.1309111916
H   H35       1.0  0.92570  0.28960  0.13780  1.0000 0.1309111916
H   H36       1.0  0.36390  0.07430  0.13780  1.0000 0.1309111916
H   H37       1.0  0.53660  0.76830  0.78080  1.0000 0.2893195652
H   H38       1.0  0.76830  0.53660  0.28080  1.0000 0.2893195652
H   H39       1.0  0.23170  0.76830  0.78080  1.0000 0.2893195652
H   H40       1.0  0.46340  0.23170  0.28080  1.0000 0.2893195652
H   H41       1.0  0.23170  0.46340  0.78080  1.0000 0.2893195652
H   H42       1.0  0.76830  0.23170  0.28080  1.0000 0.2893195652
H   H43       1.0  0.76830  0.23170  0.21920  1.0000 0.2893195652
H   H44       1.0  0.46340  0.23170  0.21920  1.0000 0.2893195652
H   H45       1.0  0.76830  0.53660  0.21920  1.0000 0.2893195652
H   H46       1.0  0.23170  0.46340  0.71920  1.0000 0.2893195652
H   H47       1.0  0.23170  0.76830  0.71920  1.0000 0.2893195652
H   H48       1.0  0.53660  0.76830  0.71920  1.0000 0.2893195652
H   H49       1.0  0.80450  0.90225  0.66740  1.0000 0.1202355943
H   H50       1.0  0.90225  0.80450  0.16740  1.0000 0.1202355943
H   H51       1.0  0.09775  0.90225  0.66740  1.0000 0.1202355943
H   H52       1.0  0.19550  0.09775  0.16740  1.0000 0.1202355943
H   H53       1.0  0.09775  0.19550  0.66740  1.0000 0.1202355943
H   H54       1.0  0.90225  0.09775  0.16740  1.0000 0.1202355943
H   H55       1.0  0.90225  0.09775  0.33260  1.0000 0.1202355943
H   H56       1.0  0.19550  0.09775  0.33260  1.0000 0.1202355943
H   H57       1.0  0.90225  0.80450  0.33260  1.0000 0.1202355943
H   H58       1.0  0.09775  0.19550  0.83260  1.0000 0.1202355943
H   H59       1.0  0.09775  0.90225  0.83260  1.0000 0.1202355943
H   H60       1.0  0.80450  0.90225  0.83260  1.0000 0.1202355943
H   H61       1.0  0.87740  0.93870  0.75000  1.0000 0.1045489624
H   H62       1.0  0.93870  0.87740  0.25000  1.0000 0.1045489624
H   H63       1.0  0.06130  0.93870  0.75000  1.0000 0.1045489624
H   H64       1.0  0.12260  0.06130  0.25000  1.0000 0.1055966221
H   H65       1.0  0.06130  0.12260  0.75000  1.0000 0.1045489624
H   H66       1.0  0.93870  0.06130  0.25000  1.0000 0.1055966221
C   C1        1.0  0.55200  0.64270  0.54560  1.0000 0.5966873544
C   C2        1.0  0.90930  0.55200  0.04560  1.0000 0.5966873544
C   C3        1.0  0.35730  0.90930  0.54560  1.0000 0.5966873544
C   C4        1.0  0.44800  0.35730  0.04560  1.0000 0.5966873544
C   C5        1.0  0.09070  0.44800  0.54560  1.0000 0.5966873544
C   C6        1.0  0.64270  0.09070  0.04560  1.0000 0.5966873544
C   C7        1.0  0.90930  0.35730  0.45440  1.0000 0.5966873544
C   C8        1.0  0.44800  0.09070  0.45440  1.0000 0.5966873544
C   C9        1.0  0.64270  0.55200  0.45440  1.0000 0.5966873544
C   C10       1.0  0.35730  0.44800  0.95440  1.0000 0.5966873544
C   C11       1.0  0.09070  0.64270  0.95440  1.0000 0.5966873544
C   C12       1.0  0.55200  0.90930  0.95440  1.0000 0.5966873544
C   C13       1.0  0.44800  0.35730  0.45440  1.0000 0.5966873544
C   C14       1.0  0.09070  0.44800  0.95440  1.0000 0.5966873544
C   C15       1.0  0.64270  0.09070  0.45440  1.0000 0.5966873544
C   C16       1.0  0.55200  0.64270  0.95440  1.0000 0.5966873544
C   C17       1.0  0.90930  0.55200  0.45440  1.0000 0.5966873544
C   C18       1.0  0.35730  0.90930  0.95440  1.0000 0.5966873544
C   C19       1.0  0.09070  0.64270  0.54560  1.0000 0.5966873544
C   C20       1.0  0.55200  0.90930  0.54560  1.0000 0.5966873544
C   C21       1.0  0.35730  0.44800  0.54560  1.0000 0.5966873544
C   C22       1.0  0.64270  0.55200  0.04560  1.0000 0.5966873544
C   C23       1.0  0.90930  0.35730  0.04560  1.0000 0.5966873544
C   C24       1.0  0.44800  0.09070  0.04560  1.0000 0.5966873544
C   C25       1.0  0.55650  0.77825  0.54600  1.0000 -0.0971264849
C   C26       1.0  0.77825  0.55650  0.04600  1.0000 -0.0971264849
C   C27       1.0  0.22175  0.77825  0.54600  1.0000 -0.0971264849
C   C28       1.0  0.44350  0.22175  0.04600  1.0000 -0.0971264849
C   C29       1.0  0.22175  0.44350  0.54600  1.0000 -0.0971264849
C   C30       1.0  0.77825  0.22175  0.04600  1.0000 -0.0971264849
C   C31       1.0  0.77825  0.22175  0.45400  1.0000 -0.0971264849
C   C32       1.0  0.44350  0.22175  0.45400  1.0000 -0.0971264849
C   C33       1.0  0.77825  0.55650  0.45400  1.0000 -0.0971264849
C   C34       1.0  0.22175  0.44350  0.95400  1.0000 -0.0971264849
C   C35       1.0  0.22175  0.77825  0.95400  1.0000 -0.0971264849
C   C36       1.0  0.55650  0.77825  0.95400  1.0000 -0.0971264849
C   C37       1.0  0.57940  0.72410  0.57218  1.0000 -0.0580185609
C   C38       1.0  0.85530  0.57940  0.07218  1.0000 -0.0580185609
C   C39       1.0  0.27590  0.85530  0.57218  1.0000 -0.0580185609
C   C40       1.0  0.42060  0.27590  0.07218  1.0000 -0.0580185609
C   C41       1.0  0.14470  0.42060  0.57218  1.0000 -0.0580185609
C   C42       1.0  0.72410  0.14470  0.07218  1.0000 -0.0580185609
C   C43       1.0  0.85530  0.27590  0.42782  1.0000 -0.0580185609
C   C44       1.0  0.42060  0.14470  0.42782  1.0000 -0.0580185609
C   C45       1.0  0.72410  0.57940  0.42782  1.0000 -0.0580185609
C   C46       1.0  0.27590  0.42060  0.92782  1.0000 -0.0580185609
C   C47       1.0  0.14470  0.72410  0.92782  1.0000 -0.0580185609
C   C48       1.0  0.57940  0.85530  0.92782  1.0000 -0.0580185609
C   C49       1.0  0.42060  0.27590  0.42782  1.0000 -0.0580185609
C   C50       1.0  0.14470  0.42060  0.92782  1.0000 -0.0580185609
C   C51       1.0  0.72410  0.14470  0.42782  1.0000 -0.0580185609
C   C52       1.0  0.57940  0.72410  0.92782  1.0000 -0.0580185609
C   C53       1.0  0.85530  0.57940  0.42782  1.0000 -0.0580185609
C   C54       1.0  0.27590  0.85530  0.92782  1.0000 -0.0580185609
C   C55       1.0  0.14470  0.72410  0.57218  1.0000 -0.0580185609
C   C56       1.0  0.57940  0.85530  0.57218  1.0000 -0.0580185609
C   C57       1.0  0.27590  0.42060  0.57218  1.0000 -0.0580185609
C   C58       1.0  0.72410  0.57940  0.07218  1.0000 -0.0580185609
C   C59       1.0  0.85530  0.27590  0.07218  1.0000 -0.0580185609
C   C60       1.0  0.42060  0.14470  0.07218  1.0000 -0.0580185609
C   C61       1.0  0.62220  0.74700  0.62082  1.0000 -0.1274975337
C   C62       1.0  0.87520  0.62220  0.12082  1.0000 -0.1274975337
C   C63       1.0  0.25300  0.87520  0.62082  1.0000 -0.1274975337
C   C64       1.0  0.37780  0.25300  0.12082  1.0000 -0.1274975337
C   C65       1.0  0.12480  0.37780  0.62082  1.0000 -0.1274975337
C   C66       1.0  0.74700  0.12480  0.12082  1.0000 -0.1274975337
C   C67       1.0  0.87520  0.25300  0.37918  1.0000 -0.1274975337
C   C68       1.0  0.37780  0.12480  0.37918  1.0000 -0.1274975337
C   C69       1.0  0.74700  0.62220  0.37918  1.0000 -0.1274975337
C   C70       1.0  0.25300  0.37780  0.87918  1.0000 -0.1274975337
C   C71       1.0  0.12480  0.74700  0.87918  1.0000 -0.1274975337
C   C72       1.0  0.62220  0.87520  0.87918  1.0000 -0.1274975337
C   C73       1.0  0.37780  0.25300  0.37918  1.0000 -0.1274975337
C   C74       1.0  0.12480  0.37780  0.87918  1.0000 -0.1274975337
C   C75       1.0  0.74700  0.12480  0.37918  1.0000 -0.1274975337
C   C76       1.0  0.62220  0.74700  0.87918  1.0000 -0.1274975337
C   C77       1.0  0.87520  0.62220  0.37918  1.0000 -0.1274975337
C   C78       1.0  0.25300  0.87520  0.87918  1.0000 -0.1274975337
C   C79       1.0  0.12480  0.74700  0.62082  1.0000 -0.1274975337
C   C80       1.0  0.62220  0.87520  0.62082  1.0000 -0.1274975337
C   C81       1.0  0.25300  0.37780  0.62082  1.0000 -0.1274975337
C   C82       1.0  0.74700  0.62220  0.12082  1.0000 -0.1274975337
C   C83       1.0  0.87520  0.25300  0.12082  1.0000 -0.1274975337
C   C84       1.0  0.37780  0.12480  0.12082  1.0000 -0.1274975337
C   C85       1.0  0.64560  0.82280  0.64570  1.0000 0.0521309757
C   C86       1.0  0.82280  0.64560  0.14570  1.0000 0.0521309757
C   C87       1.0  0.17720  0.82280  0.64570  1.0000 0.0521309757
C   C88       1.0  0.35440  0.17720  0.14570  1.0000 0.0521309757
C   C89       1.0  0.17720  0.35440  0.64570  1.0000 0.0521309757
C   C90       1.0  0.82280  0.17720  0.14570  1.0000 0.0521309757
C   C91       1.0  0.82280  0.17720  0.35430  1.0000 0.0521309757
C   C92       1.0  0.35440  0.17720  0.35430  1.0000 0.0521309757
C   C93       1.0  0.82280  0.64560  0.35430  1.0000 0.0521309757
C   C94       1.0  0.17720  0.35440  0.85430  1.0000 0.0521309757
C   C95       1.0  0.17720  0.82280  0.85430  1.0000 0.0521309757
C   C96       1.0  0.64560  0.82280  0.85430  1.0000 0.0521309757
C   C97       1.0  0.65090  0.82545  0.75000  1.0000 0.1572308419
C   C98       1.0  0.82545  0.65090  0.25000  1.0000 0.1572308419
C   C99       1.0  0.17455  0.82545  0.75000  1.0000 0.1572308419
C   C100      1.0  0.34910  0.17455  0.25000  1.0000 0.1572308419
C   C101      1.0  0.17455  0.34910  0.75000  1.0000 0.1572308419
C   C102      1.0  0.82545  0.17455  0.25000  1.0000 0.1572308419
C   C103      1.0  0.69280  0.84640  0.69980  1.0000 -0.0213681191
C   C104      1.0  0.84640  0.69280  0.19980  1.0000 -0.0213681191
C   C105      1.0  0.15360  0.84640  0.69980  1.0000 -0.0213681191
C   C106      1.0  0.30720  0.15360  0.19980  1.0000 -0.0213681191
C   C107      1.0  0.15360  0.30720  0.69980  1.0000 -0.0213681191
C   C108      1.0  0.84640  0.15360  0.19980  1.0000 -0.0213681191
C   C109      1.0  0.84640  0.15360  0.30020  1.0000 -0.0213681191
C   C110      1.0  0.30720  0.15360  0.30020  1.0000 -0.0213681191
C   C111      1.0  0.84640  0.69280  0.30020  1.0000 -0.0213681191
C   C112      1.0  0.15360  0.30720  0.80020  1.0000 -0.0213681191
C   C113      1.0  0.15360  0.84640  0.80020  1.0000 -0.0213681191
C   C114      1.0  0.69280  0.84640  0.80020  1.0000 -0.0213681191
C   C115      1.0  0.77530  0.88765  0.70060  1.0000 -0.1274975337
C   C116      1.0  0.88765  0.77530  0.20060  1.0000 -0.1274975337
C   C117      1.0  0.11235  0.88765  0.70060  1.0000 -0.1274975337
C   C118      1.0  0.22470  0.11235  0.20060  1.0000 -0.1274975337
C   C119      1.0  0.11235  0.22470  0.70060  1.0000 -0.1274975337
C   C120      1.0  0.88765  0.11235  0.20060  1.0000 -0.1274975337
C   C121      1.0  0.88765  0.11235  0.29940  1.0000 -0.1274975337
C   C122      1.0  0.22470  0.11235  0.29940  1.0000 -0.1274975337
C   C123      1.0  0.88765  0.77530  0.29940  1.0000 -0.1274975337
C   C124      1.0  0.11235  0.22470  0.79940  1.0000 -0.1274975337
C   C125      1.0  0.11235  0.88765  0.79940  1.0000 -0.1274975337
C   C126      1.0  0.77530  0.88765  0.79940  1.0000 -0.1274975337
C   C127      1.0  0.81920  0.90960  0.75000  1.0000 -0.1558972197
C   C128      1.0  0.90960  0.81920  0.25000  1.0000 -0.1558972197
C   C129      1.0  0.09040  0.90960  0.75000  1.0000 -0.1558972197
C   C130      1.0  0.18080  0.09040  0.25000  1.0000 -0.1558972197
C   C131      1.0  0.09040  0.18080  0.75000  1.0000 -0.1558972197
C   C132      1.0  0.90960  0.09040  0.25000  1.0000 -0.1558972197
N   N1        1.0  0.56340  0.78170  0.75000  1.0000 -0.5494753914
N   N2        1.0  0.78170  0.56340  0.25000  1.0000 -0.5553455747
N   N3        1.0  0.21830  0.78170  0.75000  1.0000 -0.5494753914
N   N4        1.0  0.43660  0.21830  0.25000  1.0000 -0.5553455747
N   N5        1.0  0.21830  0.43660  0.75000  1.0000 -0.5494753914
N   N6        1.0  0.78170  0.21830  0.25000  1.0000 -0.5553455747
O   O1        1.0  0.52030  0.62970  0.49838  1.0000 -0.5334485394
O   O2        1.0  0.89060  0.52030  0.99838  1.0000 -0.5334485394
O   O3        1.0  0.37030  0.89060  0.49838  1.0000 -0.5334485394
O   O4        1.0  0.47970  0.37030  0.99838  1.0000 -0.5334485394
O   O5        1.0  0.10940  0.47970  0.49838  1.0000 -0.5334485394
O   O6        1.0  0.62970  0.10940  0.99838  1.0000 -0.5334485394
O   O7        1.0  0.89060  0.37030  0.50162  1.0000 -0.5334485394
O   O8        1.0  0.47970  0.10940  0.50162  1.0000 -0.5334485394
O   O9        1.0  0.62970  0.52030  0.50162  1.0000 -0.5334485394
O   O10       1.0  0.37030  0.47970  0.00162  1.0000 -0.5334485394
O   O11       1.0  0.10940  0.62970  0.00162  1.0000 -0.5334485394
O   O12       1.0  0.52030  0.89060  0.00162  1.0000 -0.5334485394
O   O13       1.0  0.47970  0.37030  0.50162  1.0000 -0.5334485394
O   O14       1.0  0.10940  0.47970  0.00162  1.0000 -0.5334485394
O   O15       1.0  0.62970  0.10940  0.50162  1.0000 -0.5334485394
O   O16       1.0  0.52030  0.62970  0.00162  1.0000 -0.5334485394
O   O17       1.0  0.89060  0.52030  0.50162  1.0000 -0.5334485394
O   O18       1.0  0.37030  0.89060  0.00162  1.0000 -0.5334485394
O   O19       1.0  0.10940  0.62970  0.49838  1.0000 -0.5334485394
O   O20       1.0  0.52030  0.89060  0.49838  1.0000 -0.5334485394
O   O21       1.0  0.37030  0.47970  0.49838  1.0000 -0.5334485394
O   O22       1.0  0.62970  0.52030  0.99838  1.0000 -0.5334485394
O   O23       1.0  0.89060  0.37030  0.99838  1.0000 -0.5334485394
O   O24       1.0  0.47970  0.10940  0.99838  1.0000 -0.5334485394
O   O25       1.0  0.56290  0.59080  0.57360  1.0000 -0.5494753914
O   O26       1.0  0.97210  0.56290  0.07360  1.0000 -0.5494753914
O   O27       1.0  0.40920  0.97210  0.57360  1.0000 -0.5494753914
O   O28       1.0  0.43710  0.40920  0.07360  1.0000 -0.5494753914
O   O29       1.0  0.02790  0.43710  0.57360  1.0000 -0.5494753914
O   O30       1.0  0.59080  0.02790  0.07360  1.0000 -0.5494753914
O   O31       1.0  0.97210  0.40920  0.42640  1.0000 -0.5494753914
O   O32       1.0  0.43710  0.02790  0.42640  1.0000 -0.5494753914
O   O33       1.0  0.59080  0.56290  0.42640  1.0000 -0.5494753914
O   O34       1.0  0.40920  0.43710  0.92640  1.0000 -0.5494753914
O   O35       1.0  0.02790  0.59080  0.92640  1.0000 -0.5494753914
O   O36       1.0  0.56290  0.97210  0.92640  1.0000 -0.5494753914
O   O37       1.0  0.43710  0.40920  0.42640  1.0000 -0.5494753914
O   O38       1.0  0.02790  0.43710  0.92640  1.0000 -0.5494753914
O   O39       1.0  0.59080  0.02790  0.42640  1.0000 -0.5494753914
O   O40       1.0  0.56290  0.59080  0.92640  1.0000 -0.5494753914
O   O41       1.0  0.97210  0.56290  0.42640  1.0000 -0.5494753914
O   O42       1.0  0.40920  0.97210  0.92640  1.0000 -0.5494753914
O   O43       1.0  0.02790  0.59080  0.57360  1.0000 -0.5494753914
O   O44       1.0  0.56290  0.97210  0.57360  1.0000 -0.5494753914
O   O45       1.0  0.40920  0.43710  0.57360  1.0000 -0.5494753914
O   O46       1.0  0.59080  0.56290  0.07360  1.0000 -0.5494753914
O   O47       1.0  0.97210  0.40920  0.07360  1.0000 -0.5494753914
O   O48       1.0  0.43710  0.02790  0.07360  1.0000 -0.5494753914
