# DDEC6 charges by PACMAN v1.1 (https://github.com/mtap-research/PACMAN-charge/)
data_2015[Zn][tcs]3[ASR]1
_chemical_formula_sum              "Zn2 B2 H24 C26 N16 O4"
_cell_length_a       8.8017
_cell_length_b       10.6674
_cell_length_c       10.9422
_cell_angle_alpha    103.157
_cell_angle_beta     108.193
_cell_angle_gamma    97.41

_symmetry_space_group_name_H-M    "P 1"
_symmetry_Int_Tables_number       1

loop_
  _symmetry_equiv_pos_as_xyz
  'x, y, z'

loop_
  _atom_site_type_symbol
  _atom_site_label
  _atom_site_symmetry_multiplicity
  _atom_site_fract_x
  _atom_site_fract_y
  _atom_site_fract_z
  _atom_site_occupancy
  _atom_site_charge
Zn  Zn1       1.0  0.79882  0.83672  0.24555  1.0000 0.6844488621
Zn  Zn2       1.0  0.20118  0.16328  0.75445  1.0000 0.6856398822
B   B1        1.0  0.14430  0.68570  0.89820  1.0000 0.4987374187
B   B2        1.0  0.85570  0.31430  0.10180  1.0000 0.4987374187
H   H1        1.0  0.46670  0.83630  0.02410  1.0000 0.0989191399
H   H2        1.0  0.53330  0.16370  0.97590  1.0000 0.0989191399
H   H3        1.0  0.31500  0.69570  0.71300  1.0000 0.1206729924
H   H4        1.0  0.68500  0.30430  0.28700  1.0000 0.1206729924
H   H5        1.0  0.11910  0.94790  0.90340  1.0000 0.1091784962
H   H6        1.0  0.88090  0.05210  0.09660  1.0000 0.1091784962
H   H7        1.0  0.37110  0.90680  0.66620  1.0000 0.1305448354
H   H8        1.0  0.62890  0.09320  0.33380  1.0000 0.1305448354
H   H9        1.0  0.28860  0.46580  0.89070  1.0000 0.0989191399
H   H10       1.0  0.71140  0.53420  0.10930  1.0000 0.0989191399
H   H11       1.0  0.08300  0.76740  0.14040  1.0000 0.1091784962
H   H12       1.0  0.91700  0.23260  0.85960  1.0000 0.1091784962
H   H13       1.0  0.50310  0.61550  0.26840  1.0000 0.1206729924
H   H14       1.0  0.49690  0.38450  0.73160  1.0000 0.1206729924
H   H15       1.0  0.65340  0.77640  0.90140  1.0000 0.1091784962
H   H16       1.0  0.34660  0.22360  0.09860  1.0000 0.1091784962
H   H17       1.0  0.22080  0.55670  0.11230  1.0000 0.1206729924
H   H18       1.0  0.77920  0.44330  0.88770  1.0000 0.1206729924
H   H19       1.0  0.89010  0.52390  0.64590  1.0000 0.1206729924
H   H20       1.0  0.10990  0.47610  0.35410  1.0000 0.1206729924
H   H21       1.0  0.81180  0.70330  0.76250  1.0000 0.1206729924
H   H22       1.0  0.18820  0.29670  0.23750  1.0000 0.1206729924
H   H23       1.0  0.92380  0.30300  0.55660  1.0000 0.1206729924
H   H24       1.0  0.07620  0.69700  0.44340  1.0000 0.1206729924
C   C1        1.0  0.07260  0.01050  0.47420  1.0000 0.4528628231
C   C2        1.0  0.92740  0.98950  0.52580  1.0000 0.4528628231
C   C3        1.0  0.44080  0.77350  0.06520  1.0000 0.1305448354
C   C4        1.0  0.55920  0.22650  0.93480  1.0000 0.1305448354
C   C5        1.0  0.28140  0.77160  0.74550  1.0000 -0.0815476164
C   C6        1.0  0.71860  0.22840  0.25450  1.0000 -0.0815476164
C   C7        1.0  0.17460  0.91130  0.84930  1.0000 0.1350976468
C   C8        1.0  0.82540  0.08870  0.15070  1.0000 0.1350976468
C   C9        1.0  0.31260  0.88890  0.72010  1.0000 -0.0433242678
C   C10       1.0  0.68740  0.11110  0.27990  1.0000 -0.0433242678
C   C11       1.0  0.19280  0.45290  0.81790  1.0000 0.1305448354
C   C12       1.0  0.80720  0.54710  0.18210  1.0000 0.1305448354
C   C13       1.0  0.99490  0.75960  0.06310  1.0000 0.1305448354
C   C14       1.0  0.00510  0.24040  0.93690  1.0000 0.1305448354
C   C15       1.0  0.46090  0.65270  0.19940  1.0000 -0.047142586
C   C16       1.0  0.53910  0.34730  0.80060  1.0000 -0.047142586
C   C17       1.0  0.76040  0.76520  0.93280  1.0000 -0.0593019075
C   C18       1.0  0.23960  0.23480  0.06720  1.0000 -0.0593019075
C   C19       1.0  0.30460  0.61990  0.11300  1.0000 -0.0978830367
C   C20       1.0  0.69540  0.38010  0.88700  1.0000 -0.0978830367
C   C21       1.0  0.97530  0.48610  0.68510  1.0000 -0.087265095
C   C22       1.0  0.02470  0.51390  0.31490  1.0000 -0.087265095
C   C23       1.0  0.84750  0.72410  0.85560  1.0000 -0.0815476164
C   C24       1.0  0.15250  0.27590  0.14440  1.0000 -0.0815476164
C   C25       1.0  0.99440  0.36380  0.63610  1.0000 -0.03410982
C   C26       1.0  0.00560  0.63620  0.36390  1.0000 -0.03410982
N   N1        1.0  0.54760  0.75040  0.16860  1.0000 -0.270462571
N   N2        1.0  0.45240  0.24960  0.83140  1.0000 -0.270462571
N   N3        1.0  0.10460  0.54510  0.80340  1.0000 -0.2145917624
N   N4        1.0  0.89540  0.45490  0.19660  1.0000 -0.2145917624
N   N5        1.0  0.29110  0.69670  0.02580  1.0000 -0.2266825422
N   N6        1.0  0.70890  0.30330  0.97420  1.0000 -0.2266825422
N   N7        1.0  0.19150  0.78540  0.82770  1.0000 -0.2198393516
N   N8        1.0  0.80850  0.21460  0.17230  1.0000 -0.2198393516
N   N9        1.0  0.99790  0.71840  0.93850  1.0000 -0.2198393516
N   N10       1.0  0.00210  0.28160  0.06150  1.0000 -0.2198393516
N   N11       1.0  0.13210  0.34270  0.72030  1.0000 -0.270462571
N   N12       1.0  0.86790  0.65730  0.27970  1.0000 -0.270462571
N   N13       1.0  0.85380  0.78760  0.06400  1.0000 -0.2878295441
N   N14       1.0  0.14620  0.21240  0.93600  1.0000 -0.2878295441
N   N15       1.0  0.24440  0.97700  0.78610  1.0000 -0.2878295441
N   N16       1.0  0.75560  0.02300  0.21390  1.0000 -0.2844162046
O   O1        1.0  0.05310  0.94310  0.35960  1.0000 -0.5076904058
O   O2        1.0  0.94690  0.05690  0.64040  1.0000 -0.5076904058
O   O3        1.0  0.19860  0.09450  0.55450  1.0000 -0.5076904058
O   O4        1.0  0.80140  0.90550  0.44550  1.0000 -0.5076904058
