# DDEC6 charges by PACMAN v1.1 (https://github.com/mtap-research/PACMAN-charge/)
data_2015[Mn][lvt]3[ASR]1
_chemical_formula_sum              "Mn4 H40 C48 N32 O8"
_cell_length_a       13.3631
_cell_length_b       13.3631
_cell_length_c       13.3631
_cell_angle_alpha    100.314
_cell_angle_beta     100.314
_cell_angle_gamma    129.936

_symmetry_space_group_name_H-M    "P 1"
_symmetry_Int_Tables_number       1

loop_
  _symmetry_equiv_pos_as_xyz
  'x, y, z'

loop_
  _atom_site_type_symbol
  _atom_site_label
  _atom_site_symmetry_multiplicity
  _atom_site_fract_x
  _atom_site_fract_y
  _atom_site_fract_z
  _atom_site_occupancy
  _atom_site_charge
Mn  Mn1       1.0  0.62500  0.37500  0.75000  1.0000 0.8028328093
Mn  Mn2       1.0  0.62500  0.87500  0.25000  1.0000 0.8028328093
Mn  Mn3       1.0  0.12500  0.37500  0.75000  1.0000 0.8028328093
Mn  Mn4       1.0  0.62500  0.37500  0.25000  1.0000 0.8028328093
H   H1        1.0  0.75590  0.47880  0.56350  1.0000 0.1180092665
H   H2        1.0  0.91530  0.19240  0.43650  1.0000 0.1180092665
H   H3        1.0  0.44240  0.50590  0.77710  1.0000 0.1180092665
H   H4        1.0  0.72880  0.66530  0.22290  1.0000 0.1180092665
H   H5        1.0  0.49410  0.27120  0.93650  1.0000 0.1180092665
H   H6        1.0  0.33470  0.55760  0.06350  1.0000 0.1180092665
H   H7        1.0  0.80760  0.24410  0.72290  1.0000 0.1180092665
H   H8        1.0  0.52120  0.08470  0.27710  1.0000 0.1180092665
H   H9        1.0  0.14570  0.00300  0.21530  1.0000 0.1697104453
H   H10       1.0  0.78770  0.93040  0.78470  1.0000 0.1697104453
H   H11       1.0  0.18040  0.89570  0.64270  1.0000 0.1697104453
H   H12       1.0  0.25300  0.53770  0.35730  1.0000 0.1697104453
H   H13       1.0  0.10430  0.74700  0.28470  1.0000 0.1697104453
H   H14       1.0  0.46230  0.81960  0.71530  1.0000 0.1697104453
H   H15       1.0  0.06960  0.85430  0.85730  1.0000 0.1697104453
H   H16       1.0  0.99700  0.21230  0.14270  1.0000 0.1697104453
H   H17       1.0  0.04250  0.00780  0.42730  1.0000 0.1597202095
H   H18       1.0  0.58050  0.61520  0.57270  1.0000 0.1597202095
H   H19       1.0  0.86520  0.79250  0.53470  1.0000 0.1597202095
H   H20       1.0  0.25780  0.33050  0.46530  1.0000 0.1597202095
H   H21       1.0  0.20750  0.74220  0.07270  1.0000 0.1597202095
H   H22       1.0  0.66950  0.13480  0.92730  1.0000 0.1597202095
H   H23       1.0  0.38480  0.95750  0.96530  1.0000 0.1597202095
H   H24       1.0  0.99220  0.41950  0.03470  1.0000 0.1597202095
H   H25       1.0  0.98690  0.91190  0.30500  1.0000 0.1538628909
H   H26       1.0  0.60690  0.68190  0.69500  1.0000 0.1538628909
H   H27       1.0  0.93190  0.73690  0.57500  1.0000 0.1538628909
H   H28       1.0  0.16190  0.35690  0.42500  1.0000 0.1538628909
H   H29       1.0  0.26310  0.83810  0.19500  1.0000 0.1538628909
H   H30       1.0  0.64310  0.06810  0.80500  1.0000 0.1538628909
H   H31       1.0  0.31810  0.01310  0.92500  1.0000 0.1538628909
H   H32       1.0  0.08810  0.39310  0.07500  1.0000 0.1538628909
H   H33       1.0  0.04170  0.88810  0.40300  1.0000 0.1597202095
H   H34       1.0  0.48510  0.63870  0.59700  1.0000 0.1597202095
H   H35       1.0  0.88870  0.79170  0.65360  1.0000 0.1597202095
H   H36       1.0  0.13810  0.23510  0.34640  1.0000 0.1597202095
H   H37       1.0  0.20830  0.86190  0.09700  1.0000 0.1597202095
H   H38       1.0  0.76490  0.11130  0.90300  1.0000 0.1597202095
H   H39       1.0  0.36130  0.95830  0.84640  1.0000 0.1597202095
H   H40       1.0  0.11190  0.51490  0.15360  1.0000 0.1597202095
C   C1        1.0  0.65910  0.40370  0.52200  1.0000 0.1697104453
C   C2        1.0  0.88170  0.13710  0.47800  1.0000 0.1697104453
C   C3        1.0  0.38710  0.40910  0.75540  1.0000 0.1697104453
C   C4        1.0  0.65370  0.63170  0.24460  1.0000 0.1697104453
C   C5        1.0  0.59090  0.34630  0.97800  1.0000 0.1697104453
C   C6        1.0  0.36830  0.61290  0.02200  1.0000 0.1697104453
C   C7        1.0  0.86290  0.34090  0.74460  1.0000 0.1697104453
C   C8        1.0  0.59630  0.11830  0.25540  1.0000 0.1697104453
C   C9        1.0  0.43750  0.23850  0.48240  1.0000 0.4232637296
C   C10       1.0  0.75610  0.95510  0.51760  1.0000 0.4232637296
C   C11       1.0  0.20510  0.18750  0.69900  1.0000 0.4232637296
C   C12       1.0  0.48850  0.50610  0.30100  1.0000 0.4232637296
C   C13       1.0  0.81250  0.51150  0.01760  1.0000 0.4232637296
C   C14       1.0  0.49390  0.79490  0.98240  1.0000 0.4232637296
C   C15       1.0  0.04490  0.56250  0.80100  1.0000 0.4232637296
C   C16       1.0  0.76150  0.24390  0.19900  1.0000 0.4232637296
C   C17       1.0  0.20330  0.06170  0.38040  1.0000 0.3681386607
C   C18       1.0  0.68130  0.82290  0.61960  1.0000 0.3681386607
C   C19       1.0  0.07290  0.95330  0.64160  1.0000 0.3681386607
C   C20       1.0  0.31170  0.43130  0.35840  1.0000 0.3681386607
C   C21       1.0  0.04670  0.68830  0.11960  1.0000 0.3681386607
C   C22       1.0  0.56870  0.92710  0.88040  1.0000 0.3681386607
C   C23       1.0  0.17710  0.79670  0.85840  1.0000 0.3681386607
C   C24       1.0  0.93830  0.31870  0.14160  1.0000 0.3681386607
C   C25       1.0  0.22370  0.06630  0.28220  1.0000 -0.4185323482
C   C26       1.0  0.78410  0.94150  0.71780  1.0000 -0.4185323482
C   C27       1.0  0.19150  0.97370  0.65740  1.0000 -0.4185323482
C   C28       1.0  0.31630  0.53410  0.34260  1.0000 -0.4185323482
C   C29       1.0  0.02630  0.68370  0.21780  1.0000 -0.4185323482
C   C30       1.0  0.46590  0.80850  0.78220  1.0000 -0.4185323482
C   C31       1.0  0.05850  0.77630  0.84260  1.0000 -0.4185323482
C   C32       1.0  0.93370  0.21590  0.15740  1.0000 -0.4185323482
C   C33       1.0  0.35910  0.16400  0.28230  1.0000 0.4352451014
C   C34       1.0  0.88170  0.07680  0.71770  1.0000 0.4352451014
C   C35       1.0  0.32680  0.10910  0.69510  1.0000 0.4352451014
C   C36       1.0  0.41400  0.63170  0.30490  1.0000 0.4352451014
C   C37       1.0  0.89090  0.58600  0.21770  1.0000 0.4352451014
C   C38       1.0  0.36830  0.67320  0.78230  1.0000 0.4352451014
C   C39       1.0  0.92320  0.64090  0.80490  1.0000 0.4352451014
C   C40       1.0  0.83600  0.11830  0.19510  1.0000 0.4352451014
C   C41       1.0  0.05500  0.95780  0.37880  1.0000 -0.4914074865
C   C42       1.0  0.57900  0.67620  0.62120  1.0000 -0.4914074865
C   C43       1.0  0.92620  0.80500  0.59720  1.0000 -0.4914074865
C   C44       1.0  0.20780  0.32900  0.40280  1.0000 -0.4914074865
C   C45       1.0  0.19500  0.79220  0.12120  1.0000 -0.4914074865
C   C46       1.0  0.67100  0.07380  0.87880  1.0000 -0.4914074865
C   C47       1.0  0.32380  0.94500  0.90280  1.0000 -0.4914074865
C   C48       1.0  0.04220  0.42100  0.09720  1.0000 -0.4914074865
N   N1        1.0  0.60539  0.35379  0.41278  1.0000 -0.2580753368
N   N2        1.0  0.94101  0.19261  0.58722  1.0000 -0.2580753368
N   N3        1.0  0.44261  0.35539  0.75160  1.0000 -0.2580753368
N   N4        1.0  0.60379  0.69101  0.24840  1.0000 -0.2580753368
N   N5        1.0  0.64461  0.39621  0.08722  1.0000 -0.2580753368
N   N6        1.0  0.30899  0.55739  0.91278  1.0000 -0.2580753368
N   N7        1.0  0.80739  0.39461  0.74840  1.0000 -0.2580753368
N   N8        1.0  0.64621  0.05899  0.25160  1.0000 -0.2580753368
N   N9        1.0  0.56458  0.33870  0.56988  1.0000 -0.414657521
N   N10       1.0  0.76882  0.99470  0.43012  1.0000 -0.414657521
N   N11       1.0  0.24470  0.31458  0.72588  1.0000 -0.414657521
N   N12       1.0  0.58870  0.51882  0.27412  1.0000 -0.414657521
N   N13       1.0  0.68542  0.41130  0.93012  1.0000 -0.414657521
N   N14       1.0  0.48118  0.75530  0.06988  1.0000 -0.414657521
N   N15       1.0  0.00530  0.43542  0.77412  1.0000 -0.414657521
N   N16       1.0  0.66130  0.23118  0.22588  1.0000 -0.414657521
N   N17       1.0  0.30868  0.14724  0.48132  1.0000 -0.4392302026
N   N18       1.0  0.66592  0.82736  0.51868  1.0000 -0.4392302026
N   N19       1.0  0.07736  0.05868  0.66144  1.0000 -0.4392302026
N   N20       1.0  0.39724  0.41592  0.33856  1.0000 -0.4392302026
N   N21       1.0  0.94132  0.60276  0.01868  1.0000 -0.4392302026
N   N22       1.0  0.58408  0.92264  0.98132  1.0000 -0.4392302026
N   N23       1.0  0.17264  0.69132  0.83856  1.0000 -0.4392302026
N   N24       1.0  0.85276  0.33408  0.16144  1.0000 -0.4392302026
N   N25       1.0  0.46293  0.24583  0.38876  1.0000 -0.0454869819
N   N26       1.0  0.85707  0.07417  0.61124  1.0000 -0.0454869819
N   N27       1.0  0.32417  0.21293  0.71710  1.0000 -0.0454869819
N   N28       1.0  0.49583  0.60707  0.28290  1.0000 -0.0454869819
N   N29       1.0  0.78707  0.50417  0.11124  1.0000 -0.0454869819
N   N30       1.0  0.39293  0.67583  0.88876  1.0000 -0.0454869819
N   N31       1.0  0.92583  0.53707  0.78290  1.0000 -0.0454869819
N   N32       1.0  0.75417  0.14293  0.21710  1.0000 -0.0454869819
O   O1        1.0  0.39942  0.18722  0.20364  1.0000 -0.4914074865
O   O2        1.0  0.98358  0.19578  0.79636  1.0000 -0.4914074865
O   O3        1.0  0.44578  0.14942  0.71220  1.0000 -0.4914074865
O   O4        1.0  0.43722  0.73358  0.28780  1.0000 -0.4914074865
O   O5        1.0  0.85058  0.56278  0.29636  1.0000 -0.4914074865
O   O6        1.0  0.26642  0.55422  0.70364  1.0000 -0.4914074865
O   O7        1.0  0.80422  0.60058  0.78780  1.0000 -0.4914074865
O   O8        1.0  0.81278  0.01642  0.21220  1.0000 -0.4914074865
