# DDEC6 charges by PACMAN v1.1 (https://github.com/mtap-research/PACMAN-charge/)
data_2015[AgSm][nan]3[ASR]1
_chemical_formula_sum              "Sm4 Ag4 H32 C56 N8 O32"
_cell_length_a       12.0112
_cell_length_b       12.0112
_cell_length_c       16.899
_cell_angle_alpha    83.6711
_cell_angle_beta     96.3289
_cell_angle_gamma    133.265

_symmetry_space_group_name_H-M    "P 1"
_symmetry_Int_Tables_number       1

loop_
  _symmetry_equiv_pos_as_xyz
  'x, y, z'

loop_
  _atom_site_type_symbol
  _atom_site_label
  _atom_site_symmetry_multiplicity
  _atom_site_fract_x
  _atom_site_fract_y
  _atom_site_fract_z
  _atom_site_occupancy
  _atom_site_charge
Sm  Sm1       1.0  0.80554  0.79640  0.93421  1.0000 2.0726473973
Sm  Sm2       1.0  0.79640  0.80554  0.56579  1.0000 2.0726473973
Sm  Sm3       1.0  0.19446  0.20360  0.06579  1.0000 2.0726473973
Sm  Sm4       1.0  0.20360  0.19446  0.43421  1.0000 2.0726473973
Ag  Ag1       1.0  0.77706  0.46100  0.08362  1.0000 0.33080398
Ag  Ag2       1.0  0.46100  0.77706  0.41638  1.0000 0.33080398
Ag  Ag3       1.0  0.22294  0.53900  0.91638  1.0000 0.33080398
Ag  Ag4       1.0  0.53900  0.22294  0.58362  1.0000 0.33080398
H   H1        1.0  0.50890  0.92930  0.12880  1.0000 0.1200585244
H   H2        1.0  0.92930  0.50890  0.37120  1.0000 0.1200585244
H   H3        1.0  0.49110  0.07070  0.87120  1.0000 0.1200585244
H   H4        1.0  0.07070  0.49110  0.62880  1.0000 0.1200585244
H   H5        1.0  0.53380  0.63320  0.16790  1.0000 0.1432854244
H   H6        1.0  0.63320  0.53380  0.33210  1.0000 0.1432854244
H   H7        1.0  0.46620  0.36680  0.83210  1.0000 0.1432854244
H   H8        1.0  0.36680  0.46620  0.66790  1.0000 0.1432854244
H   H9        1.0  0.88150  0.07190  0.22060  1.0000 0.1529249557
H   H10       1.0  0.07190  0.88150  0.27940  1.0000 0.1529249557
H   H11       1.0  0.11850  0.92810  0.77940  1.0000 0.1529249557
H   H12       1.0  0.92810  0.11850  0.72060  1.0000 0.1529249557
H   H13       1.0  0.74210  0.03030  0.32210  1.0000 0.1043484481
H   H14       1.0  0.03030  0.74210  0.17790  1.0000 0.1043484481
H   H15       1.0  0.25790  0.96970  0.67790  1.0000 0.1043484481
H   H16       1.0  0.96970  0.25790  0.82210  1.0000 0.1043484481
H   H17       1.0  0.40890  0.60650  0.27060  1.0000 0.1200585244
H   H18       1.0  0.60650  0.40890  0.22940  1.0000 0.1200585244
H   H19       1.0  0.59110  0.39350  0.72940  1.0000 0.1200585244
H   H20       1.0  0.39350  0.59110  0.77060  1.0000 0.1200585244
H   H21       1.0  0.36270  0.98950  0.11920  1.0000 0.1432854244
H   H22       1.0  0.98950  0.36270  0.38080  1.0000 0.1432854244
H   H23       1.0  0.63730  0.01050  0.88080  1.0000 0.1432854244
H   H24       1.0  0.01050  0.63730  0.61920  1.0000 0.1432854244
H   H25       1.0  0.44750  0.74910  0.05000  1.0000 0.1200585244
H   H26       1.0  0.74910  0.44750  0.45000  1.0000 0.1200585244
H   H27       1.0  0.55250  0.25090  0.95000  1.0000 0.1200585244
H   H28       1.0  0.25090  0.55250  0.55000  1.0000 0.1200585244
H   H29       1.0  0.08920  0.67020  0.95860  1.0000 0.1200585244
H   H30       1.0  0.67020  0.08920  0.54140  1.0000 0.1200585244
H   H31       1.0  0.91080  0.32980  0.04140  1.0000 0.1200585244
H   H32       1.0  0.32980  0.91080  0.45860  1.0000 0.1200585244
C   C1        1.0  0.42390  0.87950  0.09340  1.0000 -0.1475224523
C   C2        1.0  0.87950  0.42390  0.40660  1.0000 -0.1475224523
C   C3        1.0  0.57610  0.12050  0.90660  1.0000 -0.1475224523
C   C4        1.0  0.12050  0.57610  0.59340  1.0000 -0.1475224523
C   C5        1.0  0.72640  0.85460  0.18430  1.0000 0.0071642589
C   C6        1.0  0.85460  0.72640  0.31570  1.0000 0.0071642589
C   C7        1.0  0.27360  0.14540  0.81570  1.0000 0.0071642589
C   C8        1.0  0.14540  0.27360  0.68430  1.0000 0.0071642589
C   C9        1.0  0.58050  0.71570  0.19920  1.0000 -0.1581913336
C   C10       1.0  0.71570  0.58050  0.30080  1.0000 -0.1581913336
C   C11       1.0  0.41950  0.28430  0.80080  1.0000 -0.1581913336
C   C12       1.0  0.28430  0.41950  0.69920  1.0000 -0.1581913336
C   C13       1.0  0.20980  0.83780  0.03550  1.0000 -0.0798554002
C   C14       1.0  0.83780  0.20980  0.46450  1.0000 -0.0798554002
C   C15       1.0  0.79020  0.16220  0.96450  1.0000 -0.0798554002
C   C16       1.0  0.16220  0.79020  0.53550  1.0000 -0.0798554002
C   C17       1.0  0.72270  0.79310  0.74510  1.0000 0.4736878322
C   C18       1.0  0.79310  0.72270  0.75490  1.0000 0.4736878322
C   C19       1.0  0.27730  0.20690  0.25490  1.0000 0.4736878322
C   C20       1.0  0.20690  0.27730  0.24510  1.0000 0.4736878322
C   C21       1.0  0.78600  0.97520  0.23030  1.0000 -0.143728192
C   C22       1.0  0.97520  0.78600  0.26970  1.0000 -0.143728192
C   C23       1.0  0.21400  0.02480  0.76970  1.0000 -0.143728192
C   C24       1.0  0.02480  0.21400  0.73030  1.0000 -0.143728192
C   C25       1.0  0.70070  0.94910  0.29100  1.0000 0.0616646455
C   C26       1.0  0.94910  0.70070  0.20900  1.0000 0.0616646455
C   C27       1.0  0.29930  0.05090  0.70900  1.0000 0.0616646455
C   C28       1.0  0.05090  0.29930  0.79100  1.0000 0.0616646455
C   C29       1.0  0.50580  0.70140  0.26070  1.0000 0.0686970324
C   C30       1.0  0.70140  0.50580  0.23930  1.0000 0.0686970324
C   C31       1.0  0.49420  0.29860  0.73930  1.0000 0.0686970324
C   C32       1.0  0.29860  0.49420  0.76070  1.0000 0.0686970324
C   C33       1.0  0.81920  0.87720  0.12170  1.0000 0.620524262
C   C34       1.0  0.87720  0.81920  0.37830  1.0000 0.620524262
C   C35       1.0  0.18080  0.12280  0.87830  1.0000 0.620524262
C   C36       1.0  0.12280  0.18080  0.62170  1.0000 0.620524262
C   C37       1.0  0.33710  0.91490  0.08810  1.0000 -0.0539224325
C   C38       1.0  0.91490  0.33710  0.41190  1.0000 -0.0539224325
C   C39       1.0  0.66290  0.08510  0.91190  1.0000 -0.0539224325
C   C40       1.0  0.08510  0.66290  0.58810  1.0000 -0.0539224325
C   C41       1.0  0.38570  0.77030  0.04650  1.0000 0.0850554453
C   C42       1.0  0.77030  0.38570  0.45350  1.0000 0.0850554453
C   C43       1.0  0.61430  0.22970  0.95350  1.0000 0.0847531901
C   C44       1.0  0.22970  0.61430  0.54650  1.0000 0.0850554453
C   C45       1.0  0.17670  0.72610  0.99230  1.0000 0.0195160294
C   C46       1.0  0.72610  0.17670  0.50770  1.0000 0.0195160294
C   C47       1.0  0.82330  0.27390  0.00770  1.0000 0.0195160294
C   C48       1.0  0.27390  0.82330  0.49230  1.0000 0.0195160294
C   C49       1.0  0.11140  0.87160  0.02530  1.0000 0.6077931569
C   C50       1.0  0.87160  0.11140  0.47470  1.0000 0.6077931569
C   C51       1.0  0.88860  0.12840  0.97470  1.0000 0.6077931569
C   C52       1.0  0.12840  0.88860  0.52530  1.0000 0.6077931569
C   C53       1.0  0.53640  0.46660  0.01230  1.0000 0.4839889453
C   C54       1.0  0.46660  0.53640  0.48770  1.0000 0.4839889453
C   C55       1.0  0.46360  0.53340  0.98770  1.0000 0.4839889453
C   C56       1.0  0.53340  0.46360  0.51230  1.0000 0.4839889453
N   N1        1.0  0.56210  0.81390  0.30710  1.0000 -0.1867135717
N   N2        1.0  0.81390  0.56210  0.19290  1.0000 -0.1867135717
N   N3        1.0  0.43790  0.18610  0.69290  1.0000 -0.1867135717
N   N4        1.0  0.18610  0.43790  0.80710  1.0000 -0.1867135717
N   N5        1.0  0.26510  0.69470  0.99670  1.0000 -0.1808247967
N   N6        1.0  0.69470  0.26510  0.50330  1.0000 -0.1808247967
N   N7        1.0  0.73490  0.30530  0.00330  1.0000 -0.1808247967
N   N8        1.0  0.30530  0.73490  0.49670  1.0000 -0.1808247967
O   O1        1.0  0.71170  0.83110  0.80700  1.0000 -0.5796101196
O   O2        1.0  0.83110  0.71170  0.69300  1.0000 -0.5796101196
O   O3        1.0  0.28830  0.16890  0.19300  1.0000 -0.5796101196
O   O4        1.0  0.16890  0.28830  0.30700  1.0000 -0.5796101196
O   O5        1.0  0.75250  0.77430  0.07360  1.0000 -0.6344005257
O   O6        1.0  0.77430  0.75250  0.42640  1.0000 -0.6352652861
O   O7        1.0  0.24750  0.22570  0.92640  1.0000 -0.6344005257
O   O8        1.0  0.22570  0.24750  0.57360  1.0000 -0.6344005257
O   O9        1.0  0.66010  0.53270  0.98160  1.0000 -0.5719859554
O   O10       1.0  0.53270  0.66010  0.51840  1.0000 -0.5719859554
O   O11       1.0  0.33990  0.46730  0.01840  1.0000 -0.5719859554
O   O12       1.0  0.46730  0.33990  0.48160  1.0000 -0.5719859554
O   O13       1.0  0.98040  0.77200  0.99440  1.0000 -0.6344005257
O   O14       1.0  0.77200  0.98040  0.50560  1.0000 -0.6344005257
O   O15       1.0  0.01960  0.22800  0.00560  1.0000 -0.6344005257
O   O16       1.0  0.22800  0.01960  0.49440  1.0000 -0.6344005257
O   O17       1.0  0.95650  0.99970  0.12130  1.0000 -0.6773226662
O   O18       1.0  0.99970  0.95650  0.37870  1.0000 -0.6773226662
O   O19       1.0  0.04350  0.00030  0.87870  1.0000 -0.6773226662
O   O20       1.0  0.00030  0.04350  0.62130  1.0000 -0.6773226662
O   O21       1.0  0.16630  0.99490  0.04750  1.0000 -0.6344005257
O   O22       1.0  0.99490  0.16630  0.45250  1.0000 -0.6344005257
O   O23       1.0  0.83370  0.00510  0.95250  1.0000 -0.6344005257
O   O24       1.0  0.00510  0.83370  0.54750  1.0000 -0.6344005257
O   O25       1.0  0.68210  0.80470  0.67570  1.0000 -0.5928409649
O   O26       1.0  0.80470  0.68210  0.82430  1.0000 -0.5928409649
O   O27       1.0  0.31790  0.19530  0.32430  1.0000 -0.5928409649
O   O28       1.0  0.19530  0.31790  0.17570  1.0000 -0.5928409649
O   O29       1.0  0.46720  0.35340  0.05970  1.0000 -0.5796101196
O   O30       1.0  0.35340  0.46720  0.44030  1.0000 -0.5796101196
O   O31       1.0  0.53280  0.64660  0.94030  1.0000 -0.5796101196
O   O32       1.0  0.64660  0.53280  0.55970  1.0000 -0.5796101196
