# DDEC6 charges by PACMAN v1.1 (https://github.com/mtap-research/PACMAN-charge/)
data_2015[Co][crb]3[ASR]2
_chemical_formula_sum              "Co4 H36 C60 N20 O16"
_cell_length_a       9.8767
_cell_length_b       17.4389
_cell_length_c       14.5314
_cell_angle_alpha    90
_cell_angle_beta     124.913
_cell_angle_gamma    90

_symmetry_space_group_name_H-M    "P 1"
_symmetry_Int_Tables_number       1

loop_
  _symmetry_equiv_pos_as_xyz
  'x, y, z'

loop_
  _atom_site_type_symbol
  _atom_site_label
  _atom_site_symmetry_multiplicity
  _atom_site_fract_x
  _atom_site_fract_y
  _atom_site_fract_z
  _atom_site_occupancy
  _atom_site_charge
Co  Co1       1.0  0.10658  0.54625  0.65508  1.0000 0.7929786338
Co  Co2       1.0  0.89342  0.04625  0.84492  1.0000 0.7929786338
Co  Co3       1.0  0.89342  0.45375  0.34492  1.0000 0.7929786338
Co  Co4       1.0  0.10658  0.95375  0.15508  1.0000 0.7929786338
H   H1        1.0  0.42540  0.05770  0.83920  1.0000 0.1508072608
H   H2        1.0  0.57460  0.55770  0.66080  1.0000 0.1508072608
H   H3        1.0  0.57460  0.94230  0.16080  1.0000 0.1508072608
H   H4        1.0  0.42540  0.44230  0.33920  1.0000 0.1508072608
H   H5        1.0  0.05440  0.21400  0.70450  1.0000 0.1431574939
H   H6        1.0  0.94560  0.71400  0.79550  1.0000 0.1431574939
H   H7        1.0  0.94560  0.78600  0.29550  1.0000 0.1431574939
H   H8        1.0  0.05440  0.28600  0.20450  1.0000 0.1431574939
H   H9        1.0  0.45220  0.25190  0.69610  1.0000 0.1431574939
H   H10       1.0  0.54780  0.75190  0.80390  1.0000 0.1431574939
H   H11       1.0  0.54780  0.74810  0.30390  1.0000 0.1431574939
H   H12       1.0  0.45220  0.24810  0.19610  1.0000 0.1431574939
H   H13       1.0  0.16030  0.26260  0.44150  1.0000 0.1588531105
H   H14       1.0  0.83970  0.76260  0.05850  1.0000 0.1588531105
H   H15       1.0  0.83970  0.73740  0.55850  1.0000 0.1588531105
H   H16       1.0  0.16030  0.23740  0.94150  1.0000 0.1588531105
H   H17       1.0  0.04810  0.21490  0.46820  1.0000 0.1508072608
H   H18       1.0  0.95190  0.71490  0.03180  1.0000 0.1508072608
H   H19       1.0  0.95190  0.78510  0.53180  1.0000 0.1508072608
H   H20       1.0  0.04810  0.28510  0.96820  1.0000 0.1508072608
H   H21       1.0  0.96500  0.27630  0.36840  1.0000 0.1830942525
H   H22       1.0  0.03500  0.77630  0.13160  1.0000 0.1830942525
H   H23       1.0  0.03500  0.72370  0.63160  1.0000 0.1830942525
H   H24       1.0  0.96500  0.22370  0.86840  1.0000 0.1830942525
H   H25       1.0  0.41660  0.34090  0.04040  1.0000 0.1064613579
H   H26       1.0  0.58340  0.84090  0.45960  1.0000 0.1064613579
H   H27       1.0  0.58340  0.65910  0.95960  1.0000 0.1064613579
H   H28       1.0  0.41660  0.15910  0.54040  1.0000 0.1064613579
H   H29       1.0  0.37330  0.46640  0.07170  1.0000 0.1508072608
H   H30       1.0  0.62670  0.96640  0.42830  1.0000 0.1508072608
H   H31       1.0  0.62670  0.53360  0.92830  1.0000 0.1508072608
H   H32       1.0  0.37330  0.03360  0.57170  1.0000 0.1508072608
H   H33       1.0  0.25640  0.55320  0.92190  1.0000 0.1230219944
H   H34       1.0  0.74360  0.05320  0.57810  1.0000 0.1230219944
H   H35       1.0  0.74360  0.44680  0.07810  1.0000 0.1230219944
H   H36       1.0  0.25640  0.94680  0.42190  1.0000 0.1230219944
C   C1        1.0  0.13950  0.08230  0.81640  1.0000 0.5344190193
C   C2        1.0  0.86050  0.58230  0.68360  1.0000 0.5344190193
C   C3        1.0  0.86050  0.91770  0.18360  1.0000 0.5344190193
C   C4        1.0  0.13950  0.41770  0.31640  1.0000 0.5344190193
C   C5        1.0  0.62100  0.12250  0.78920  1.0000 0.5137663974
C   C6        1.0  0.37900  0.62250  0.71080  1.0000 0.5137663974
C   C7        1.0  0.37900  0.87750  0.21080  1.0000 0.5137663974
C   C8        1.0  0.62100  0.37750  0.28920  1.0000 0.5137663974
C   C9        1.0  0.37870  0.10485  0.80120  1.0000 -0.1205917796
C   C10       1.0  0.62130  0.60485  0.69880  1.0000 -0.1205917796
C   C11       1.0  0.62130  0.89515  0.19880  1.0000 -0.1205917796
C   C12       1.0  0.37870  0.39515  0.30120  1.0000 -0.1205917796
C   C13       1.0  0.22790  0.12876  0.77830  1.0000 0.016255329
C   C14       1.0  0.77210  0.62876  0.72170  1.0000 0.016255329
C   C15       1.0  0.77210  0.87124  0.22170  1.0000 0.016255329
C   C16       1.0  0.22790  0.37124  0.27830  1.0000 0.016255329
C   C17       1.0  0.46150  0.14930  0.76890  1.0000 0.0066483069
C   C18       1.0  0.53850  0.64930  0.73110  1.0000 0.0066483069
C   C19       1.0  0.53850  0.85070  0.23110  1.0000 0.0066483069
C   C20       1.0  0.46150  0.35070  0.26890  1.0000 0.0066483069
C   C21       1.0  0.15870  0.19772  0.72240  1.0000 -0.1845346423
C   C22       1.0  0.84130  0.69772  0.77760  1.0000 -0.1845346423
C   C23       1.0  0.84130  0.80228  0.27760  1.0000 -0.1845346423
C   C24       1.0  0.15870  0.30228  0.22240  1.0000 -0.1845346423
C   C25       1.0  0.39510  0.21985  0.71610  1.0000 -0.2089075441
C   C26       1.0  0.60490  0.71985  0.78390  1.0000 -0.2089075441
C   C27       1.0  0.60490  0.78015  0.28390  1.0000 -0.2089075441
C   C28       1.0  0.39510  0.28015  0.21610  1.0000 -0.2089075441
C   C29       1.0  0.24460  0.24191  0.69350  1.0000 0.1588531105
C   C30       1.0  0.75540  0.74191  0.80650  1.0000 0.1588531105
C   C31       1.0  0.75540  0.75809  0.30650  1.0000 0.1588531105
C   C32       1.0  0.24460  0.25809  0.19350  1.0000 0.1588531105
C   C33       1.0  0.06280  0.26460  0.44350  1.0000 -0.5269430982
C   C34       1.0  0.93720  0.76460  0.05650  1.0000 -0.5269430982
C   C35       1.0  0.93720  0.73540  0.55650  1.0000 -0.5269430982
C   C36       1.0  0.06280  0.23540  0.94350  1.0000 -0.5269430982
C   C37       1.0  0.08570  0.32505  0.52280  1.0000 0.3724883167
C   C38       1.0  0.91430  0.82505  0.97720  1.0000 0.3724883167
C   C39       1.0  0.91430  0.67495  0.47720  1.0000 0.3724883167
C   C40       1.0  0.08570  0.17495  0.02280  1.0000 0.3724883167
C   C41       1.0  0.16830  0.38188  0.67950  1.0000 0.1919272734
C   C42       1.0  0.83170  0.88188  0.82050  1.0000 0.1919272734
C   C43       1.0  0.83170  0.61812  0.32050  1.0000 0.1919272734
C   C44       1.0  0.16830  0.11812  0.17950  1.0000 0.1919272734
C   C45       1.0  0.24130  0.40343  0.79690  1.0000 0.2828480197
C   C46       1.0  0.75870  0.90343  0.70310  1.0000 0.2828480197
C   C47       1.0  0.75870  0.59657  0.20310  1.0000 0.2828480197
C   C48       1.0  0.24130  0.09657  0.29690  1.0000 0.2828480197
C   C49       1.0  0.36300  0.37600  0.97940  1.0000 0.1034931546
C   C50       1.0  0.63700  0.87600  0.52060  1.0000 0.1034931546
C   C51       1.0  0.63700  0.62400  0.02060  1.0000 0.1034931546
C   C52       1.0  0.36300  0.12400  0.47940  1.0000 0.1034931546
C   C53       1.0  0.34120  0.45040  0.99930  1.0000 -0.1882493155
C   C54       1.0  0.65880  0.95040  0.50070  1.0000 -0.1882493155
C   C55       1.0  0.65880  0.54960  0.00070  1.0000 -0.1882493155
C   C56       1.0  0.34120  0.04960  0.49930  1.0000 -0.1882493155
C   C57       1.0  0.27090  0.50110  0.91020  1.0000 0.1277436694
C   C58       1.0  0.72910  0.00110  0.58980  1.0000 0.1277436694
C   C59       1.0  0.72910  0.49890  0.08980  1.0000 0.1277436694
C   C60       1.0  0.27090  0.99890  0.41020  1.0000 0.1277436694
N   N1        1.0  0.17150  0.31382  0.63620  1.0000 -0.084476394
N   N2        1.0  0.82850  0.81382  0.86380  1.0000 -0.084476394
N   N3        1.0  0.82850  0.68618  0.36380  1.0000 -0.084476394
N   N4        1.0  0.17150  0.18618  0.13620  1.0000 -0.084476394
N   N5        1.0  0.03290  0.39649  0.49920  1.0000 -0.2208212497
N   N6        1.0  0.96710  0.89649  0.00080  1.0000 -0.2208212497
N   N7        1.0  0.96710  0.60351  0.50080  1.0000 -0.2208212497
N   N8        1.0  0.03290  0.10351  0.99920  1.0000 -0.2208212497
N   N9        1.0  0.08570  0.43232  0.59910  1.0000 -0.2089075441
N   N10       1.0  0.91430  0.93232  0.90090  1.0000 -0.2089075441
N   N11       1.0  0.91430  0.56768  0.40090  1.0000 -0.2089075441
N   N12       1.0  0.08570  0.06768  0.09910  1.0000 -0.2089075441
N   N13       1.0  0.31100  0.35075  0.87650  1.0000 -0.2989392982
N   N14       1.0  0.68900  0.85075  0.62350  1.0000 -0.2989392982
N   N15       1.0  0.68900  0.64925  0.12350  1.0000 -0.2989392982
N   N16       1.0  0.31100  0.14925  0.37650  1.0000 -0.2989392982
N   N17       1.0  0.22320  0.47831  0.80800  1.0000 -0.2870290981
N   N18       1.0  0.77680  0.97831  0.69200  1.0000 -0.2870290981
N   N19       1.0  0.77680  0.52169  0.19200  1.0000 -0.2870290981
N   N20       1.0  0.22320  0.02169  0.30800  1.0000 -0.2870290981
O   O1        1.0  0.21250  0.02858  0.88350  1.0000 -0.5389530839
O   O2        1.0  0.78750  0.52858  0.61650  1.0000 -0.5389530839
O   O3        1.0  0.78750  0.97142  0.11650  1.0000 -0.5389530839
O   O4        1.0  0.21250  0.47142  0.38350  1.0000 -0.5389530839
O   O5        1.0  0.99430  0.10252  0.77860  1.0000 -0.5389530839
O   O6        1.0  0.00570  0.60252  0.72140  1.0000 -0.5389530839
O   O7        1.0  0.00570  0.89748  0.22140  1.0000 -0.5389530839
O   O8        1.0  0.99430  0.39748  0.27860  1.0000 -0.5389530839
O   O9        1.0  0.67000  0.05596  0.82610  1.0000 -0.5064563261
O   O10       1.0  0.33000  0.55596  0.67390  1.0000 -0.5064563261
O   O11       1.0  0.33000  0.94404  0.17390  1.0000 -0.5064563261
O   O12       1.0  0.67000  0.44404  0.32610  1.0000 -0.5064563261
O   O13       1.0  0.69700  0.16220  0.76490  1.0000 -0.497826259
O   O14       1.0  0.30300  0.66220  0.73510  1.0000 -0.497826259
O   O15       1.0  0.30300  0.83780  0.23510  1.0000 -0.497826259
O   O16       1.0  0.69700  0.33780  0.26490  1.0000 -0.497826259
