# DDEC6 charges by PACMAN v1.1 (https://github.com/mtap-research/PACMAN-charge/)
data_2015[Zn][bnn]3[ASR]1
_chemical_formula_sum              "Zn2 H22 C38 N2 O8"
_cell_length_a       11.3323
_cell_length_b       11.3323
_cell_length_c       8.3702
_cell_angle_alpha    70.781
_cell_angle_beta     109.219
_cell_angle_gamma    96.0118

_symmetry_space_group_name_H-M    "P 1"
_symmetry_Int_Tables_number       1

loop_
  _symmetry_equiv_pos_as_xyz
  'x, y, z'

loop_
  _atom_site_type_symbol
  _atom_site_label
  _atom_site_symmetry_multiplicity
  _atom_site_fract_x
  _atom_site_fract_y
  _atom_site_fract_z
  _atom_site_occupancy
  _atom_site_charge
Zn  Zn1       1.0  0.98363  0.98363  0.25000  1.0000 0.8850563169
Zn  Zn2       1.0  0.01637  0.01637  0.75000  1.0000 0.8850563169
H   H1        1.0  0.01620  0.41160  0.42680  1.0000 0.1195458035
H   H2        1.0  0.41160  0.01620  0.07320  1.0000 0.1195458035
H   H3        1.0  0.98380  0.58840  0.57320  1.0000 0.1195458035
H   H4        1.0  0.58840  0.98380  0.92680  1.0000 0.1195458035
H   H5        1.0  0.97090  0.60570  0.21570  1.0000 0.1271558292
H   H6        1.0  0.60570  0.97090  0.28430  1.0000 0.1271558292
H   H7        1.0  0.02910  0.39430  0.78430  1.0000 0.1271558292
H   H8        1.0  0.39430  0.02910  0.71570  1.0000 0.1271558292
H   H9        1.0  0.73130  0.44870  0.87210  1.0000 0.1195458035
H   H10       1.0  0.44870  0.73130  0.62790  1.0000 0.1195458035
H   H11       1.0  0.26870  0.55130  0.12790  1.0000 0.1195458035
H   H12       1.0  0.55130  0.26870  0.37210  1.0000 0.1195458035
H   H13       1.0  0.77780  0.25460  0.08270  1.0000 0.1195458035
H   H14       1.0  0.25460  0.77780  0.41730  1.0000 0.1195458035
H   H15       1.0  0.22220  0.74540  0.91730  1.0000 0.1195458035
H   H16       1.0  0.74540  0.22220  0.58270  1.0000 0.1195458035
H   H17       1.0  0.97840  0.75460  0.96760  1.0000 0.1090101376
H   H18       1.0  0.75460  0.97840  0.53240  1.0000 0.1090101376
H   H19       1.0  0.02160  0.24540  0.03240  1.0000 0.1090101376
H   H20       1.0  0.24540  0.02160  0.46760  1.0000 0.1090101376
H   H21       1.0  0.63730  0.63730  0.75000  1.0000 0.1195458035
H   H22       1.0  0.36270  0.36270  0.25000  1.0000 0.1195458035
C   C1        1.0  0.93393  0.18367  0.41040  1.0000 0.5564879775
C   C2        1.0  0.18367  0.93393  0.08960  1.0000 0.5564879775
C   C3        1.0  0.06607  0.81633  0.58960  1.0000 0.5564879775
C   C4        1.0  0.81633  0.06607  0.91040  1.0000 0.5564879775
C   C5        1.0  0.90161  0.31299  0.27660  1.0000 -0.0300160684
C   C6        1.0  0.31299  0.90161  0.22340  1.0000 -0.0300160684
C   C7        1.0  0.09839  0.68701  0.72340  1.0000 -0.0300160684
C   C8        1.0  0.68701  0.09839  0.77660  1.0000 -0.0300160684
C   C9        1.0  0.95890  0.41890  0.31500  1.0000 -0.1023417115
C   C10       1.0  0.41890  0.95890  0.18500  1.0000 -0.1023417115
C   C11       1.0  0.04110  0.58110  0.68500  1.0000 -0.1023417115
C   C12       1.0  0.58110  0.04110  0.81500  1.0000 -0.1023417115
C   C13       1.0  0.93150  0.53550  0.18840  1.0000 -0.143161945
C   C14       1.0  0.53550  0.93150  0.31160  1.0000 -0.143161945
C   C15       1.0  0.06850  0.46450  0.81160  1.0000 -0.143161945
C   C16       1.0  0.46450  0.06850  0.68840  1.0000 -0.143161945
C   C17       1.0  0.84548  0.54874  0.02040  1.0000 0.0784235094
C   C18       1.0  0.54874  0.84548  0.47960  1.0000 0.0784235094
C   C19       1.0  0.15452  0.45126  0.97960  1.0000 0.0784235094
C   C20       1.0  0.45126  0.15452  0.52040  1.0000 0.0784235094
C   C21       1.0  0.78890  0.44170  0.98370  1.0000 -0.1481060535
C   C22       1.0  0.44170  0.78890  0.51630  1.0000 -0.1481060535
C   C23       1.0  0.21110  0.55830  0.01630  1.0000 -0.1481060535
C   C24       1.0  0.55830  0.21110  0.48370  1.0000 -0.1481060535
C   C25       1.0  0.81660  0.32520  0.11000  1.0000 -0.1075060014
C   C26       1.0  0.32520  0.81660  0.39000  1.0000 -0.1075060014
C   C27       1.0  0.18340  0.67480  0.89000  1.0000 -0.1075060014
C   C28       1.0  0.67480  0.18340  0.61000  1.0000 -0.1075060014
C   C29       1.0  0.90176  0.76880  0.87770  1.0000 0.0413351339
C   C30       1.0  0.76880  0.90176  0.62230  1.0000 0.0413351339
C   C31       1.0  0.09824  0.23120  0.12230  1.0000 0.0413351339
C   C32       1.0  0.23120  0.09824  0.37770  1.0000 0.0413351339
C   C33       1.0  0.81386  0.67342  0.88110  1.0000 0.0413351339
C   C34       1.0  0.67342  0.81386  0.61890  1.0000 0.0413351339
C   C35       1.0  0.18614  0.32658  0.11890  1.0000 0.0413351339
C   C36       1.0  0.32658  0.18614  0.38110  1.0000 0.0413351339
C   C37       1.0  0.69870  0.69870  0.75000  1.0000 -0.143161945
C   C38       1.0  0.30130  0.30130  0.25000  1.0000 -0.143161945
N   N1        1.0  0.88070  0.88070  0.75000  1.0000 -0.2376668677
N   N2        1.0  0.11930  0.11930  0.25000  1.0000 -0.2376668677
O   O1        1.0  0.00219  0.17891  0.56650  1.0000 -0.5234083533
O   O2        1.0  0.17891  0.00219  0.93350  1.0000 -0.5234083533
O   O3        1.0  0.99781  0.82109  0.43350  1.0000 -0.5234083533
O   O4        1.0  0.82109  0.99781  0.06650  1.0000 -0.5234083533
O   O5        1.0  0.89065  0.09087  0.36260  1.0000 -0.5697316527
O   O6        1.0  0.09087  0.89065  0.13740  1.0000 -0.5697316527
O   O7        1.0  0.10935  0.90913  0.63740  1.0000 -0.5697316527
O   O8        1.0  0.90913  0.10935  0.86260  1.0000 -0.5697316527
