# DDEC6 charges by PACMAN v1.1 (https://github.com/mtap-research/PACMAN-charge/)
data_2015[EuCd][flu]3[ASR]1
_chemical_formula_sum              "Eu2 Cd4 H120 C176 O48"
_cell_length_a       15.97
_cell_length_b       18.597
_cell_length_c       28.434
_cell_angle_alpha    100.536
_cell_angle_beta     95.13
_cell_angle_gamma    109.615

_symmetry_space_group_name_H-M    "P 1"
_symmetry_Int_Tables_number       1

loop_
  _symmetry_equiv_pos_as_xyz
  'x, y, z'

loop_
  _atom_site_type_symbol
  _atom_site_label
  _atom_site_symmetry_multiplicity
  _atom_site_fract_x
  _atom_site_fract_y
  _atom_site_fract_z
  _atom_site_occupancy
  _atom_site_charge
Eu  Eu1       1.0  0.19333  0.22537  0.23173  1.0000 2.1521105277
Eu  Eu2       1.0  0.80667  0.77463  0.76827  1.0000 2.1521105277
Cd  Cd1       1.0  0.38215  0.14410  0.24088  1.0000 1.0098288166
Cd  Cd2       1.0  0.61785  0.85590  0.75912  1.0000 1.0098288166
Cd  Cd3       1.0  0.04404  0.34534  0.26525  1.0000 1.0098288166
Cd  Cd4       1.0  0.95596  0.65466  0.73475  1.0000 1.0098288166
H   H1        1.0  0.79750  0.12250  0.18070  1.0000 0.1397728566
H   H2        1.0  0.20250  0.87750  0.81930  1.0000 0.1397728566
H   H3        1.0  0.71080  0.99750  0.13820  1.0000 0.1293642026
H   H4        1.0  0.28920  0.00250  0.86180  1.0000 0.1293642026
H   H5        1.0  0.87410  0.91140  0.20050  1.0000 0.1198251303
H   H6        1.0  0.12590  0.08860  0.79950  1.0000 0.1198251303
H   H7        1.0  0.97010  0.03370  0.23860  1.0000 0.1120732143
H   H8        1.0  0.02990  0.96630  0.76140  1.0000 0.1120732143
H   H9        1.0  0.72500  0.90290  0.07140  1.0000 0.1198251303
H   H10       1.0  0.27500  0.09710  0.92860  1.0000 0.1198251303
H   H11       1.0  0.58900  0.85470  0.99940  1.0000 0.1293642026
H   H12       1.0  0.41100  0.14530  0.00060  1.0000 0.1293642026
H   H13       1.0  0.59590  0.87390  0.92010  1.0000 0.1293642026
H   H14       1.0  0.40410  0.12610  0.07990  1.0000 0.1293642026
H   H15       1.0  0.74400  0.74280  0.89820  1.0000 0.1198251303
H   H16       1.0  0.25600  0.25720  0.10180  1.0000 0.1198251303
H   H17       1.0  0.74250  0.72270  0.97630  1.0000 0.1198251303
H   H18       1.0  0.25750  0.27730  0.02370  1.0000 0.1198251303
H   H19       1.0  0.71590  0.61490  0.04100  1.0000 0.1198251303
H   H20       1.0  0.28410  0.38510  0.95900  1.0000 0.1198251303
H   H21       1.0  0.65240  0.57530  0.99090  1.0000 0.1198251303
H   H22       1.0  0.34760  0.42470  0.00910  1.0000 0.1198251303
H   H23       1.0  0.62140  0.55010  0.03810  1.0000 0.1198251303
H   H24       1.0  0.37860  0.44990  0.96190  1.0000 0.1198251303
H   H25       1.0  0.68170  0.81220  0.25540  1.0000 0.1198251303
H   H26       1.0  0.31830  0.18780  0.74460  1.0000 0.1198251303
H   H27       1.0  0.60600  0.77000  0.21000  1.0000 0.1198251303
H   H28       1.0  0.39400  0.23000  0.79000  1.0000 0.1198251303
H   H29       1.0  0.66170  0.85980  0.21850  1.0000 0.1120732143
H   H30       1.0  0.33830  0.14020  0.78150  1.0000 0.1120732143
H   H31       1.0  0.37520  0.62140  0.09760  1.0000 0.1198251303
H   H32       1.0  0.62480  0.37860  0.90240  1.0000 0.1293642026
H   H33       1.0  0.41840  0.55700  0.08790  1.0000 0.0980290058
H   H34       1.0  0.58160  0.44300  0.91210  1.0000 0.0980290058
H   H35       1.0  0.44900  0.62930  0.06400  1.0000 0.1120732143
H   H36       1.0  0.55100  0.37070  0.93600  1.0000 0.1120732143
H   H37       1.0  0.91830  0.70620  0.16730  1.0000 0.1293642026
H   H38       1.0  0.08170  0.29380  0.83270  1.0000 0.1293642026
H   H39       1.0  0.85770  0.66180  0.20100  1.0000 0.1120732143
H   H40       1.0  0.14230  0.33820  0.79900  1.0000 0.1120732143
H   H41       1.0  0.84870  0.73880  0.19010  1.0000 0.1198251303
H   H42       1.0  0.15130  0.26120  0.80990  1.0000 0.1198251303
H   H43       1.0  0.57850  0.47530  0.18730  1.0000 0.1198251303
H   H44       1.0  0.42150  0.52470  0.81270  1.0000 0.1198251303
H   H45       1.0  0.41780  0.40840  0.14620  1.0000 0.1198251303
H   H46       1.0  0.58220  0.59160  0.85380  1.0000 0.1198251303
H   H47       1.0  0.28230  0.35390  0.17230  1.0000 0.1120732143
H   H48       1.0  0.71770  0.64610  0.82770  1.0000 0.1120732143
H   H49       1.0  0.30440  0.56650  0.24480  1.0000 0.1293642026
H   H50       1.0  0.69560  0.43350  0.75520  1.0000 0.1293642026
H   H51       1.0  0.43670  0.62210  0.21340  1.0000 0.1198251303
H   H52       1.0  0.56330  0.37790  0.78660  1.0000 0.1198251303
H   H53       1.0  0.70980  0.50270  0.24530  1.0000 0.1120732143
H   H54       1.0  0.29020  0.49730  0.75470  1.0000 0.1198251303
H   H55       1.0  0.80960  0.44990  0.27210  1.0000 0.1198251303
H   H56       1.0  0.19040  0.55010  0.72790  1.0000 0.1198251303
H   H57       1.0  0.90140  0.44790  0.14510  1.0000 0.1293642026
H   H58       1.0  0.09860  0.55210  0.85490  1.0000 0.1293642026
H   H59       1.0  0.80410  0.50550  0.12070  1.0000 0.1198251303
H   H60       1.0  0.19590  0.49450  0.87930  1.0000 0.1198251303
H   H61       1.0  0.13850  0.13650  0.32830  1.0000 0.1198251303
H   H62       1.0  0.86150  0.86350  0.67170  1.0000 0.1198251303
H   H63       1.0  0.00920  0.08140  0.35990  1.0000 0.1293642026
H   H64       1.0  0.99080  0.91860  0.64010  1.0000 0.1293642026
H   H65       1.0  0.99360  0.86720  0.29080  1.0000 0.1198251303
H   H66       1.0  0.00640  0.13280  0.70920  1.0000 0.1198251303
H   H67       1.0  0.12120  0.92340  0.26050  1.0000 0.1293642026
H   H68       1.0  0.87880  0.07660  0.73950  1.0000 0.1293642026
H   H69       1.0  0.85300  0.01780  0.32030  1.0000 0.1120732143
H   H70       1.0  0.14700  0.98220  0.67970  1.0000 0.1120732143
H   H71       1.0  0.04110  0.84720  0.40900  1.0000 0.1198251303
H   H72       1.0  0.95890  0.15280  0.59100  1.0000 0.1198251303
H   H73       1.0  0.98130  0.88420  0.43840  1.0000 0.1120732143
H   H74       1.0  0.01870  0.11580  0.56160  1.0000 0.1120732143
H   H75       1.0  0.03230  0.92540  0.40040  1.0000 0.0980290058
H   H76       1.0  0.96770  0.07460  0.59960  1.0000 0.0980290058
H   H77       1.0  0.50700  0.79890  0.34760  1.0000 0.1293642026
H   H78       1.0  0.49300  0.20110  0.65240  1.0000 0.1293642026
H   H79       1.0  0.57030  0.76840  0.31710  1.0000 0.1198251303
H   H80       1.0  0.42970  0.23160  0.68290  1.0000 0.1198251303
H   H81       1.0  0.56200  0.84930  0.31450  1.0000 0.1120732143
H   H82       1.0  0.43800  0.15070  0.68550  1.0000 0.1120732143
H   H83       1.0  0.72310  0.99550  0.26280  1.0000 0.1120732143
H   H84       1.0  0.27690  0.00450  0.73720  1.0000 0.1120732143
H   H85       1.0  0.62470  0.05180  0.23860  1.0000 0.1198251303
H   H86       1.0  0.37530  0.94820  0.76140  1.0000 0.1198251303
H   H87       1.0  0.53410  0.05530  0.36480  1.0000 0.1198251303
H   H88       1.0  0.46590  0.94470  0.63520  1.0000 0.1198251303
H   H89       1.0  0.63180  0.99830  0.39000  1.0000 0.1198251303
H   H90       1.0  0.36820  0.00170  0.61000  1.0000 0.1198251303
H   H91       1.0  0.70730  0.67830  0.24790  1.0000 0.1198251303
H   H92       1.0  0.29270  0.32170  0.75210  1.0000 0.1198251303
H   H93       1.0  0.74200  0.63730  0.28480  1.0000 0.1120732143
H   H94       1.0  0.25800  0.36270  0.71520  1.0000 0.1120732143
H   H95       1.0  0.78930  0.72750  0.28920  1.0000 0.1198251303
H   H96       1.0  0.21070  0.27250  0.71080  1.0000 0.1198251303
H   H97       1.0  0.81450  0.92220  0.52010  1.0000 0.1198251303
H   H98       1.0  0.18550  0.07780  0.47990  1.0000 0.1198251303
H   H99       1.0  0.72410  0.85930  0.49020  1.0000 0.1198251303
H   H100      1.0  0.27590  0.14070  0.50980  1.0000 0.1120732143
H   H101      1.0  0.78270  0.92550  0.46700  1.0000 0.1198251303
H   H102      1.0  0.21730  0.07450  0.53300  1.0000 0.1198251303
H   H103      1.0  0.68670  0.58790  0.43530  1.0000 0.1198251303
H   H104      1.0  0.31330  0.41210  0.56470  1.0000 0.1198251303
H   H105      1.0  0.84530  0.63180  0.49360  1.0000 0.1293642026
H   H106      1.0  0.15470  0.36820  0.50640  1.0000 0.1293642026
H   H107      1.0  0.89840  0.64090  0.57550  1.0000 0.1293642026
H   H108      1.0  0.10160  0.35910  0.42450  1.0000 0.1293642026
H   H109      1.0  0.73620  0.74710  0.61610  1.0000 0.1397728566
H   H110      1.0  0.26380  0.25290  0.38390  1.0000 0.1397728566
H   H111      1.0  0.70490  0.75890  0.53900  1.0000 0.1198251303
H   H112      1.0  0.29510  0.24110  0.46100  1.0000 0.1198251303
H   H113      1.0  0.51570  0.58890  0.31800  1.0000 0.1198251303
H   H114      1.0  0.48430  0.41110  0.68200  1.0000 0.1198251303
H   H115      1.0  0.41620  0.46680  0.27970  1.0000 0.1120732143
H   H116      1.0  0.58380  0.53320  0.72030  1.0000 0.1120732143
H   H117      1.0  0.59090  0.36970  0.31460  1.0000 0.1293642026
H   H118      1.0  0.40910  0.63030  0.68540  1.0000 0.1293642026
H   H119      1.0  0.69520  0.49300  0.35740  1.0000 0.1198251303
H   H120      1.0  0.30480  0.50700  0.64260  1.0000 0.1198251303
C   C1        1.0  0.81590  0.08060  0.18290  1.0000 -0.0892998792
C   C2        1.0  0.18410  0.91940  0.81710  1.0000 -0.0892998792
C   C3        1.0  0.76350  0.00560  0.15860  1.0000 -0.1582545286
C   C4        1.0  0.23650  0.99440  0.84140  1.0000 -0.1582545286
C   C5        1.0  0.86130  0.95460  0.19480  1.0000 -0.1389672703
C   C6        1.0  0.13870  0.04540  0.80520  1.0000 -0.1389672703
C   C7        1.0  0.91810  0.02730  0.21810  1.0000 -0.0994904654
C   C8        1.0  0.08190  0.97270  0.78190  1.0000 -0.0994904654
C   C9        1.0  0.73300  0.86220  0.13100  1.0000 -0.0291532726
C   C10       1.0  0.26700  0.13780  0.86900  1.0000 -0.0291532726
C   C11       1.0  0.71310  0.85690  0.08240  1.0000 -0.1804778655
C   C12       1.0  0.28690  0.14310  0.91760  1.0000 -0.1804778655
C   C13       1.0  0.67590  0.78580  0.04880  1.0000 -0.050162593
C   C14       1.0  0.32410  0.21420  0.95120  1.0000 -0.050162593
C   C15       1.0  0.65750  0.71830  0.06480  1.0000 0.1397728566
C   C16       1.0  0.34250  0.28170  0.93520  1.0000 0.1397728566
C   C17       1.0  0.67200  0.72080  0.11390  1.0000 -0.0994904654
C   C18       1.0  0.32800  0.27920  0.88610  1.0000 -0.0994904654
C   C19       1.0  0.71140  0.79270  0.14720  1.0000 0.1617822457
C   C20       1.0  0.28860  0.20730  0.85280  1.0000 0.1617822457
C   C21       1.0  0.66790  0.78890  0.99640  1.0000 0.0980290058
C   C22       1.0  0.33210  0.21110  0.00360  1.0000 0.0980290058
C   C23       1.0  0.62140  0.83270  0.97960  1.0000 -0.1582545286
C   C24       1.0  0.37860  0.16730  0.02040  1.0000 -0.1582545286
C   C25       1.0  0.62460  0.84290  0.93140  1.0000 -0.073385809
C   C26       1.0  0.37540  0.15710  0.06860  1.0000 -0.073385809
C   C27       1.0  0.66870  0.80820  0.90130  1.0000 -0.050162593
C   C28       1.0  0.33130  0.19180  0.09870  1.0000 -0.050162593
C   C29       1.0  0.71260  0.76540  0.91850  1.0000 -0.0892998792
C   C30       1.0  0.28740  0.23460  0.08150  1.0000 -0.0892998792
C   C31       1.0  0.71290  0.75360  0.96570  1.0000 -0.1582545286
C   C32       1.0  0.28710  0.24640  0.03430  1.0000 -0.1582545286
C   C33       1.0  0.67040  0.82250  0.85210  1.0000 0.6283158469
C   C34       1.0  0.32960  0.17750  0.14790  1.0000 0.6283158469
C   C35       1.0  0.65440  0.59330  0.02500  1.0000 -0.2007792584
C   C36       1.0  0.34560  0.40670  0.97500  1.0000 -0.2007792584
C   C37       1.0  0.66420  0.81010  0.22190  1.0000 -0.222834338
C   C38       1.0  0.33580  0.18990  0.77810  1.0000 -0.222834338
C   C39       1.0  0.42950  0.61200  0.09240  1.0000 -0.240458515
C   C40       1.0  0.57050  0.38800  0.90760  1.0000 -0.240458515
C   C41       1.0  0.85990  0.69210  0.17690  1.0000 -0.222834338
C   C42       1.0  0.14010  0.30790  0.82310  1.0000 -0.222834338
C   C43       1.0  0.64460  0.64860  0.13380  1.0000 -0.0892998792
C   C44       1.0  0.35540  0.35140  0.86620  1.0000 -0.0994904654
C   C45       1.0  0.55750  0.61640  0.14340  1.0000 0.1397728566
C   C46       1.0  0.44250  0.38360  0.85660  1.0000 0.1397728566
C   C47       1.0  0.53270  0.55390  0.16510  1.0000 -0.0386672802
C   C48       1.0  0.46730  0.44610  0.83490  1.0000 -0.050162593
C   C49       1.0  0.59610  0.51970  0.17460  1.0000 -0.2007792584
C   C50       1.0  0.40390  0.48030  0.82540  1.0000 -0.2007792584
C   C51       1.0  0.68310  0.54830  0.16600  1.0000 -0.0386672802
C   C52       1.0  0.31690  0.45170  0.83400  1.0000 -0.0386672802
C   C53       1.0  0.70670  0.61410  0.14580  1.0000 0.1488585542
C   C54       1.0  0.29330  0.38590  0.85420  1.0000 0.1488585542
C   C55       1.0  0.39500  0.44070  0.16580  1.0000 -0.1389672703
C   C56       1.0  0.60500  0.55930  0.83420  1.0000 -0.1389672703
C   C57       1.0  0.31430  0.40750  0.18220  1.0000 -0.0994904654
C   C58       1.0  0.68570  0.59250  0.81780  1.0000 -0.0994904654
C   C59       1.0  0.32710  0.53470  0.22470  1.0000 -0.0892998792
C   C60       1.0  0.67290  0.46530  0.77530  1.0000 -0.0892998792
C   C61       1.0  0.40720  0.56810  0.20640  1.0000 -0.1488361156
C   C62       1.0  0.59280  0.43190  0.79360  1.0000 -0.1488361156
C   C63       1.0  0.20010  0.41560  0.23490  1.0000 0.6119936812
C   C64       1.0  0.79990  0.58440  0.76510  1.0000 0.6119936812
C   C65       1.0  0.74930  0.51310  0.18130  1.0000 0.0784247578
C   C66       1.0  0.25070  0.48690  0.81870  1.0000 0.0784247578
C   C67       1.0  0.75050  0.49360  0.22570  1.0000 -0.1582545286
C   C68       1.0  0.24950  0.50640  0.77430  1.0000 -0.1582545286
C   C69       1.0  0.80920  0.46160  0.24170  1.0000 -0.0892998792
C   C70       1.0  0.19080  0.53840  0.75830  1.0000 -0.0892998792
C   C71       1.0  0.86930  0.44620  0.21170  1.0000 -0.0115165324
C   C72       1.0  0.13070  0.55380  0.78830  1.0000 -0.0038091627
C   C73       1.0  0.86460  0.46090  0.16610  1.0000 -0.0892998792
C   C74       1.0  0.13540  0.53910  0.83390  1.0000 -0.0892998792
C   C75       1.0  0.80580  0.49470  0.15140  1.0000 -0.1389672703
C   C76       1.0  0.19420  0.50530  0.84860  1.0000 -0.1488361156
C   C77       1.0  0.93430  0.40950  0.22880  1.0000 0.5405261922
C   C78       1.0  0.06570  0.59050  0.77120  1.0000 0.5405261922
C   C79       1.0  0.22550  0.07250  0.26920  1.0000 0.5986528504
C   C80       1.0  0.77450  0.92750  0.73080  1.0000 0.5986528504
C   C81       1.0  0.14130  0.03530  0.28980  1.0000 -0.0291532726
C   C82       1.0  0.85870  0.96470  0.71020  1.0000 -0.0291532726
C   C83       1.0  0.10840  0.08250  0.32030  1.0000 -0.1074680429
C   C84       1.0  0.89160  0.91750  0.67970  1.0000 -0.1074680429
C   C85       1.0  0.03070  0.04960  0.33890  1.0000 -0.1389672703
C   C86       1.0  0.96930  0.95040  0.66110  1.0000 -0.1389672703
C   C87       1.0  0.98590  0.97040  0.32650  1.0000 0.088031705
C   C88       1.0  0.01410  0.02960  0.67350  1.0000 0.088031705
C   C89       1.0  0.02160  0.92150  0.29760  1.0000 -0.1488361156
C   C90       1.0  0.97840  0.07850  0.70240  1.0000 -0.1488361156
C   C91       1.0  0.09770  0.95530  0.27990  1.0000 -0.0892998792
C   C92       1.0  0.90230  0.04470  0.72010  1.0000 -0.0892998792
C   C93       1.0  0.89470  0.93760  0.34140  1.0000 -0.0386672802
C   C94       1.0  0.10530  0.06240  0.65860  1.0000 -0.0386672802
C   C95       1.0  0.83410  0.97360  0.33310  1.0000 -0.1910489343
C   C96       1.0  0.16590  0.02640  0.66690  1.0000 -0.1910489343
C   C97       1.0  0.74620  0.94780  0.34280  1.0000 -0.0386672802
C   C98       1.0  0.25380  0.05220  0.65720  1.0000 -0.0386672802
C   C99       1.0  0.72040  0.88200  0.36340  1.0000 0.1669229377
C   C100      1.0  0.27960  0.11800  0.63660  1.0000 0.1669229377
C   C101      1.0  0.78080  0.84420  0.37230  1.0000 -0.0994904654
C   C102      1.0  0.21920  0.15580  0.62770  1.0000 -0.0994904654
C   C103      1.0  0.86550  0.87230  0.36190  1.0000 0.1397728566
C   C104      1.0  0.13450  0.12770  0.63810  1.0000 0.1397728566
C   C105      1.0  0.00120  0.87580  0.40760  1.0000 -0.2309401319
C   C106      1.0  0.99880  0.12420  0.59240  1.0000 -0.2309401319
C   C107      1.0  0.56280  0.81410  0.33520  1.0000 -0.2309401319
C   C108      1.0  0.43720  0.18590  0.66480  1.0000 -0.2309401319
C   C109      1.0  0.68500  0.98720  0.32900  1.0000 0.0784247578
C   C110      1.0  0.31500  0.01280  0.67100  1.0000 0.0784247578
C   C111      1.0  0.68430  0.00620  0.28320  1.0000 -0.1582545286
C   C112      1.0  0.31570  0.99380  0.71680  1.0000 -0.1582545286
C   C113      1.0  0.62600  0.04060  0.26920  1.0000 -0.0892998792
C   C114      1.0  0.37400  0.95940  0.73080  1.0000 -0.0892998792
C   C115      1.0  0.56940  0.05930  0.29850  1.0000 -0.0038091627
C   C116      1.0  0.43060  0.94070  0.70150  1.0000 -0.0038091627
C   C117      1.0  0.57180  0.04280  0.34430  1.0000 -0.0892998792
C   C118      1.0  0.42820  0.95720  0.65570  1.0000 -0.0892998792
C   C119      1.0  0.62980  0.00800  0.35910  1.0000 -0.1488361156
C   C120      1.0  0.37020  0.99200  0.64090  1.0000 -0.1488361156
C   C121      1.0  0.50240  0.09460  0.28070  1.0000 0.5405261922
C   C122      1.0  0.49760  0.90540  0.71930  1.0000 0.5405261922
C   C123      1.0  0.73270  0.68440  0.28100  1.0000 -0.240458515
C   C124      1.0  0.26730  0.31560  0.71900  1.0000 -0.240458515
C   C125      1.0  0.78400  0.89140  0.48840  1.0000 -0.2309401319
C   C126      1.0  0.21600  0.10860  0.51160  1.0000 -0.2309401319
C   C127      1.0  0.75080  0.77200  0.39190  1.0000 -0.0994904654
C   C128      1.0  0.24920  0.22800  0.60810  1.0000 -0.0994904654
C   C129      1.0  0.69740  0.70060  0.36110  1.0000 0.1669229377
C   C130      1.0  0.30260  0.29940  0.63890  1.0000 0.1669229377
C   C131      1.0  0.67170  0.62970  0.37630  1.0000 -0.0291532726
C   C132      1.0  0.32830  0.37030  0.62370  1.0000 -0.0291532726
C   C133      1.0  0.70160  0.63400  0.42430  1.0000 -0.2007792584
C   C134      1.0  0.29840  0.36600  0.57570  1.0000 -0.2007792584
C   C135      1.0  0.75340  0.70490  0.45710  1.0000 -0.0291532726
C   C136      1.0  0.24660  0.29510  0.54290  1.0000 -0.0291532726
C   C137      1.0  0.77770  0.77400  0.43990  1.0000 0.1488585542
C   C138      1.0  0.22230  0.22600  0.56010  1.0000 0.1488585542
C   C139      1.0  0.82910  0.66180  0.51850  1.0000 -0.1488361156
C   C140      1.0  0.17090  0.33820  0.48150  1.0000 -0.1488361156
C   C141      1.0  0.85720  0.66430  0.56830  1.0000 -0.0892998792
C   C142      1.0  0.14280  0.33570  0.43170  1.0000 -0.0892998792
C   C143      1.0  0.76550  0.72900  0.59240  1.0000 -0.0994904654
C   C144      1.0  0.23450  0.27100  0.40760  1.0000 -0.0994904654
C   C145      1.0  0.74460  0.73380  0.54560  1.0000 -0.1488361156
C   C146      1.0  0.25540  0.26620  0.45440  1.0000 -0.1488361156
C   C147      1.0  0.85130  0.69420  0.65560  1.0000 0.6283158469
C   C148      1.0  0.14870  0.30580  0.34440  1.0000 0.6283158469
C   C149      1.0  0.61300  0.55550  0.34520  1.0000 0.088031705
C   C150      1.0  0.38700  0.44450  0.65480  1.0000 0.088031705
C   C151      1.0  0.53120  0.54530  0.31960  1.0000 -0.1389672703
C   C152      1.0  0.46880  0.45470  0.68040  1.0000 -0.1389672703
C   C153      1.0  0.47140  0.47150  0.29620  1.0000 -0.0892998792
C   C154      1.0  0.52860  0.52850  0.70380  1.0000 -0.0892998792
C   C155      1.0  0.49010  0.40600  0.29630  1.0000 -0.0291532726
C   C156      1.0  0.50990  0.59400  0.70370  1.0000 -0.0291532726
C   C157      1.0  0.57490  0.41380  0.31720  1.0000 -0.0994904654
C   C158      1.0  0.42510  0.58620  0.68280  1.0000 -0.0994904654
C   C159      1.0  0.63850  0.48830  0.34270  1.0000 -0.1582545286
C   C160      1.0  0.36150  0.51170  0.65730  1.0000 -0.1582545286
C   C161      1.0  0.42570  0.32510  0.27040  1.0000 0.6211290914
C   C162      1.0  0.57430  0.67490  0.72960  1.0000 0.6211290914
C   C163      1.0  0.28230  0.45360  0.21250  1.0000 -0.0115165324
C   C164      1.0  0.71770  0.54640  0.78750  1.0000 -0.0115165324
C   C165      1.0  0.78590  0.94270  0.16320  1.0000 0.0784247578
C   C166      1.0  0.21410  0.05730  0.83680  1.0000 0.0784247578
C   C167      1.0  0.44120  0.51950  0.17790  1.0000 0.088031705
C   C168      1.0  0.55880  0.48050  0.82210  1.0000 0.088031705
C   C169      1.0  0.89810  0.09220  0.21130  1.0000 -0.0291532726
C   C170      1.0  0.10190  0.90780  0.78870  1.0000 -0.0291532726
C   C171      1.0  0.77870  0.70400  0.50890  1.0000 0.0784247578
C   C172      1.0  0.22130  0.29600  0.49110  1.0000 0.0784247578
C   C173      1.0  0.82640  0.69910  0.60470  1.0000 -0.0386672802
C   C174      1.0  0.17360  0.30090  0.39530  1.0000 -0.0386672802
C   C175      1.0  0.96280  0.17380  0.23180  1.0000 0.6211290914
C   C176      1.0  0.03720  0.82620  0.76820  1.0000 0.6211290914
O   O1        1.0  0.04580  0.18780  0.24500  1.0000 -0.7386266184
O   O2        1.0  0.95420  0.81220  0.75500  1.0000 -0.7386266184
O   O3        1.0  0.94300  0.40620  0.27260  1.0000 -0.5297961383
O   O4        1.0  0.05700  0.59380  0.72740  1.0000 -0.5297961383
O   O5        1.0  0.97560  0.38380  0.19910  1.0000 -0.5221918515
O   O6        1.0  0.02440  0.61620  0.80090  1.0000 -0.5221918515
O   O7        1.0  0.16910  0.45750  0.26010  1.0000 -0.4839810845
O   O8        1.0  0.83090  0.54250  0.73990  1.0000 -0.4839810845
O   O9        1.0  0.16580  0.34170  0.22510  1.0000 -0.6985848587
O   O10       1.0  0.83420  0.65830  0.77490  1.0000 -0.6985848587
O   O11       1.0  0.25170  0.14590  0.27270  1.0000 -0.6985848587
O   O12       1.0  0.74830  0.85410  0.72730  1.0000 -0.6985848587
O   O13       1.0  0.26420  0.03040  0.24910  1.0000 -0.4979413492
O   O14       1.0  0.73580  0.96960  0.75090  1.0000 -0.4979413492
O   O15       1.0  0.71080  0.78810  0.82460  1.0000 -0.7503263843
O   O16       1.0  0.28920  0.21190  0.17540  1.0000 -0.7503263843
O   O17       1.0  0.63180  0.86530  0.83850  1.0000 -0.5099084121
O   O18       1.0  0.36820  0.13470  0.16150  1.0000 -0.5099084121
O   O19       1.0  0.34200  0.31720  0.26510  1.0000 -0.6885771346
O   O20       1.0  0.65800  0.68280  0.73490  1.0000 -0.6885771346
O   O21       1.0  0.45390  0.27350  0.26700  1.0000 -0.4839810845
O   O22       1.0  0.54610  0.72650  0.73300  1.0000 -0.4839810845
O   O23       1.0  0.49410  0.09650  0.23690  1.0000 -0.5221918515
O   O24       1.0  0.50590  0.90350  0.76310  1.0000 -0.5297961383
O   O25       1.0  0.45980  0.11910  0.30970  1.0000 -0.5297961383
O   O26       1.0  0.54020  0.88090  0.69030  1.0000 -0.5297961383
O   O27       1.0  0.90980  0.66320  0.66220  1.0000 -0.5297961383
O   O28       1.0  0.09020  0.33680  0.33780  1.0000 -0.5297961383
O   O29       1.0  0.81280  0.72000  0.68640  1.0000 -0.6328314734
O   O30       1.0  0.18720  0.28000  0.31360  1.0000 -0.6328314734
O   O31       1.0  0.49960  0.65520  0.13450  1.0000 -0.1804778655
O   O32       1.0  0.50040  0.34480  0.86550  1.0000 -0.1804778655
O   O33       1.0  0.79310  0.64700  0.13590  1.0000 -0.165704031
O   O34       1.0  0.20690  0.35300  0.86410  1.0000 -0.165704031
O   O35       1.0  0.61760  0.64820  0.03190  1.0000 -0.1268550162
O   O36       1.0  0.38240  0.35180  0.96810  1.0000 -0.1268550162
O   O37       1.0  0.72750  0.79310  0.19510  1.0000 -0.1910489343
O   O38       1.0  0.27250  0.20690  0.80490  1.0000 -0.1910489343
O   O39       1.0  0.67080  0.70010  0.31310  1.0000 -0.2309401319
O   O40       1.0  0.32920  0.29990  0.68690  1.0000 -0.2309401319
O   O41       1.0  0.83160  0.84310  0.47040  1.0000 -0.1582545286
O   O42       1.0  0.16840  0.15690  0.52960  1.0000 -0.1582545286
O   O43       1.0  0.63630  0.85270  0.37490  1.0000 -0.1389672703
O   O44       1.0  0.36370  0.14730  0.62510  1.0000 -0.1389672703
O   O45       1.0  0.92150  0.82990  0.36900  1.0000 -0.1910489343
O   O46       1.0  0.07850  0.17010  0.63100  1.0000 -0.1910489343
O   O47       1.0  0.93390  0.22940  0.23410  1.0000 -0.5099084121
O   O48       1.0  0.06610  0.77060  0.76590  1.0000 -0.5099084121
