# DDEC6 charges by PACMAN v1.1 (https://github.com/mtap-research/PACMAN-charge/)
data_2015[NiCd][lil]3[ASR]1
_chemical_formula_sum              "Cd2 Ni4 H116 C160 N40 Cl4"
_cell_length_a       22.0919
_cell_length_b       22.0919
_cell_length_c       22.0919
_cell_angle_alpha    144.54
_cell_angle_beta     114.504
_cell_angle_gamma    76.7457

_symmetry_space_group_name_H-M    "P 1"
_symmetry_Int_Tables_number       1

loop_
  _symmetry_equiv_pos_as_xyz
  'x, y, z'

loop_
  _atom_site_type_symbol
  _atom_site_label
  _atom_site_symmetry_multiplicity
  _atom_site_fract_x
  _atom_site_fract_y
  _atom_site_fract_z
  _atom_site_occupancy
  _atom_site_charge
Cd  Cd1       1.0  0.23833  0.39557  0.15724  1.0000 0.7508101718
Cd  Cd2       1.0  0.76167  0.91891  0.15724  1.0000 0.7508101718
Ni  Ni1       1.0  0.64802  0.81803  0.63193  1.0000 0.5291753964
Ni  Ni2       1.0  0.35198  0.98391  0.17001  1.0000 0.5291753964
Ni  Ni3       1.0  0.81390  0.98391  0.63193  1.0000 0.5291753964
Ni  Ni4       1.0  0.18610  0.81803  0.17001  1.0000 0.5291753964
H   H1        1.0  0.78250  0.99120  0.86510  1.0000 0.0921243268
H   H2        1.0  0.21750  0.08260  0.20870  1.0000 0.0921243268
H   H3        1.0  0.87390  0.08260  0.86510  1.0000 0.0921243268
H   H4        1.0  0.12610  0.99120  0.20870  1.0000 0.0921243268
H   H5        1.0  0.78660  0.16420  0.06180  1.0000 0.1209872172
H   H6        1.0  0.21340  0.27520  0.37760  1.0000 0.1209872172
H   H7        1.0  0.89760  0.27520  0.06180  1.0000 0.1209872172
H   H8        1.0  0.10240  0.16420  0.37760  1.0000 0.1209872172
H   H9        1.0  0.66770  0.17940  0.04250  1.0000 0.1121434786
H   H10       1.0  0.33230  0.37480  0.51170  1.0000 0.1121434786
H   H11       1.0  0.86310  0.37480  0.04250  1.0000 0.1121434786
H   H12       1.0  0.13690  0.17940  0.51170  1.0000 0.1121434786
H   H13       1.0  0.42500  0.92930  0.68430  1.0000 0.1209872172
H   H14       1.0  0.57500  0.25930  0.50430  1.0000 0.1209872172
H   H15       1.0  0.75500  0.25930  0.68430  1.0000 0.1209872172
H   H16       1.0  0.24500  0.92930  0.50430  1.0000 0.1209872172
H   H17       1.0  0.39100  0.74750  0.47850  1.0000 0.12871045
H   H18       1.0  0.60900  0.08750  0.35650  1.0000 0.12871045
H   H19       1.0  0.73100  0.08750  0.47850  1.0000 0.12871045
H   H20       1.0  0.26900  0.74750  0.35650  1.0000 0.12871045
H   H21       1.0  0.49860  0.68740  0.45000  1.0000 0.0996569249
H   H22       1.0  0.50140  0.95140  0.18880  1.0000 0.0996569249
H   H23       1.0  0.76260  0.95140  0.45000  1.0000 0.0996569249
H   H24       1.0  0.23740  0.68740  0.18880  1.0000 0.0996569249
H   H25       1.0  0.57260  0.20430  0.94550  1.0000 0.1209872172
H   H26       1.0  0.42740  0.37290  0.63170  1.0000 0.1209872172
H   H27       1.0  0.74120  0.37290  0.94550  1.0000 0.1209872172
H   H28       1.0  0.25880  0.20430  0.63170  1.0000 0.1209872172
H   H29       1.0  0.51740  0.33320  0.06380  1.0000 0.12871045
H   H30       1.0  0.48260  0.54640  0.81580  1.0000 0.12871045
H   H31       1.0  0.73060  0.54640  0.06380  1.0000 0.12871045
H   H32       1.0  0.26940  0.33320  0.81580  1.0000 0.12871045
H   H33       1.0  0.42680  0.12720  0.98620  1.0000 0.12871045
H   H34       1.0  0.57320  0.55940  0.70040  1.0000 0.12871045
H   H35       1.0  0.85900  0.55940  0.98620  1.0000 0.12871045
H   H36       1.0  0.14100  0.12720  0.70040  1.0000 0.12871045
H   H37       1.0  0.48090  0.99790  0.86480  1.0000 0.1209872172
H   H38       1.0  0.51910  0.38390  0.51700  1.0000 0.1209872172
H   H39       1.0  0.86690  0.38390  0.86480  1.0000 0.1209872172
H   H40       1.0  0.13310  0.99790  0.51700  1.0000 0.1209872172
H   H41       1.0  0.49550  0.46980  0.24250  1.0000 0.12871045
H   H42       1.0  0.50450  0.74700  0.97430  1.0000 0.12871045
H   H43       1.0  0.77270  0.74700  0.24250  1.0000 0.12871045
H   H44       1.0  0.22730  0.46980  0.97430  1.0000 0.12871045
H   H45       1.0  0.40420  0.54090  0.30850  1.0000 0.12871045
H   H46       1.0  0.59580  0.90430  0.13670  1.0000 0.12871045
H   H47       1.0  0.76760  0.90430  0.30850  1.0000 0.12871045
H   H48       1.0  0.23240  0.54090  0.13670  1.0000 0.12871045
H   H49       1.0  0.34250  0.23160  0.02870  1.0000 0.1121434786
H   H50       1.0  0.65750  0.68620  0.88910  1.0000 0.1121434786
H   H51       1.0  0.79710  0.68620  0.02870  1.0000 0.1121434786
H   H52       1.0  0.20290  0.23160  0.88910  1.0000 0.1121434786
H   H53       1.0  0.31580  0.12840  0.16620  1.0000 0.0996569249
H   H54       1.0  0.68420  0.85040  0.81260  1.0000 0.0996569249
H   H55       1.0  0.03780  0.85040  0.16620  1.0000 0.0996569249
H   H56       1.0  0.96220  0.12840  0.81260  1.0000 0.0996569249
H   H57       1.0  0.30570  0.08680  0.01810  1.0000 0.1209872172
H   H58       1.0  0.69430  0.71240  0.78110  1.0000 0.1209872172
H   H59       1.0  0.93130  0.71240  0.01810  1.0000 0.1209872172
H   H60       1.0  0.06870  0.08680  0.78110  1.0000 0.1209872172
H   H61       1.0  0.32160  0.89990  0.86170  1.0000 0.1121434786
H   H62       1.0  0.67840  0.54010  0.57830  1.0000 0.1121434786
H   H63       1.0  0.96180  0.54010  0.86170  1.0000 0.1121434786
H   H64       1.0  0.03820  0.89990  0.57830  1.0000 0.1121434786
H   H65       1.0  0.35660  0.60190  0.79490  1.0000 0.1209872172
H   H66       1.0  0.64340  0.43830  0.24530  1.0000 0.1209872172
H   H67       1.0  0.19300  0.43830  0.79490  1.0000 0.1209872172
H   H68       1.0  0.80700  0.60190  0.24530  1.0000 0.1209872172
H   H69       1.0  0.39440  0.61050  0.92490  1.0000 0.1209872172
H   H70       1.0  0.60560  0.53050  0.21610  1.0000 0.1209872172
H   H71       1.0  0.31440  0.53050  0.92490  1.0000 0.1209872172
H   H72       1.0  0.68560  0.61050  0.21610  1.0000 0.1209872172
H   H73       1.0  0.40750  0.79890  0.11600  1.0000 0.0921243268
H   H74       1.0  0.59250  0.70850  0.39140  1.0000 0.0921243268
H   H75       1.0  0.31710  0.70850  0.11600  1.0000 0.0921243268
H   H76       1.0  0.68290  0.79890  0.39140  1.0000 0.0921243268
H   H77       1.0  0.23660  0.71680  0.72240  1.0000 0.1209872172
H   H78       1.0  0.76340  0.48580  0.48020  1.0000 0.1209872172
H   H79       1.0  0.00560  0.48580  0.72240  1.0000 0.1209872172
H   H80       1.0  0.99440  0.71680  0.48020  1.0000 0.1209872172
H   H81       1.0  0.22060  0.57950  0.53290  1.0000 0.1209872172
H   H82       1.0  0.77940  0.31230  0.35890  1.0000 0.1209872172
H   H83       1.0  0.95340  0.31230  0.53290  1.0000 0.1209872172
H   H84       1.0  0.04660  0.57950  0.35890  1.0000 0.1209872172
H   H85       1.0  0.41620  0.56220  0.61600  1.0000 0.1209872172
H   H86       1.0  0.58380  0.19980  0.14600  1.0000 0.1209872172
H   H87       1.0  0.05380  0.19980  0.61600  1.0000 0.1209872172
H   H88       1.0  0.94620  0.56220  0.14600  1.0000 0.1209872172
H   H89       1.0  0.43080  0.69390  0.80230  1.0000 0.1121434786
H   H90       1.0  0.56920  0.37150  0.26310  1.0000 0.1121434786
H   H91       1.0  0.10840  0.37150  0.80230  1.0000 0.1121434786
H   H92       1.0  0.89160  0.69390  0.26310  1.0000 0.1121434786
H   H93       1.0  0.37020  0.37550  0.40250  1.0000 0.1209872172
H   H94       1.0  0.62980  0.03230  0.00530  1.0000 0.1209872172
H   H95       1.0  0.02700  0.03230  0.40250  1.0000 0.1209872172
H   H96       1.0  0.97300  0.37550  0.00530  1.0000 0.1209872172
H   H97       1.0  0.33030  0.29180  0.22170  1.0000 0.12871045
H   H98       1.0  0.66970  0.89140  0.96150  1.0000 0.12871045
H   H99       1.0  0.92990  0.89140  0.22170  1.0000 0.12871045
H   H100      1.0  0.07010  0.29180  0.96150  1.0000 0.12871045
H   H101      1.0  0.24500  0.53760  0.40500  1.0000 0.1121434786
H   H102      1.0  0.75500  0.16000  0.29260  1.0000 0.1121434786
H   H103      1.0  0.86740  0.16000  0.40500  1.0000 0.1121434786
H   H104      1.0  0.13260  0.53760  0.29260  1.0000 0.1121434786
H   H105      1.0  0.56010  0.01050  0.57060  1.0000 0.1394418285
H   H106      1.0  0.43990  0.01050  0.45040  1.0000 0.1394418285
H   H107      1.0  0.54910  0.92190  0.58620  1.0000 0.1121434786
H   H108      1.0  0.45090  0.03710  0.37280  1.0000 0.1121434786
H   H109      1.0  0.66430  0.03710  0.58620  1.0000 0.1121434786
H   H110      1.0  0.33570  0.92190  0.37280  1.0000 0.1121434786
H   H111      1.0  0.79220  0.74390  0.65030  1.0000 0.1209872172
H   H112      1.0  0.20780  0.85810  0.95170  1.0000 0.1209872172
H   H113      1.0  0.90640  0.85810  0.65030  1.0000 0.1209872172
H   H114      1.0  0.09360  0.74390  0.95170  1.0000 0.1209872172
H   H115      1.0  0.89490  0.76540  0.66030  1.0000 0.1394418285
H   H116      1.0  0.10510  0.76540  0.87050  1.0000 0.1394418285
C   C1        1.0  0.74463  0.01690  0.88243  1.0000 0.0288939772
C   C2        1.0  0.25537  0.13780  0.27227  1.0000 0.0288939772
C   C3        1.0  0.86553  0.13780  0.88243  1.0000 0.0288939772
C   C4        1.0  0.13447  0.01690  0.27227  1.0000 0.0288939772
C   C5        1.0  0.74758  0.11526  0.99450  1.0000 -0.1607108346
C   C6        1.0  0.25242  0.24692  0.36768  1.0000 -0.1607108346
C   C7        1.0  0.87924  0.24692  0.99450  1.0000 -0.1607108346
C   C8        1.0  0.12076  0.11526  0.36768  1.0000 -0.1607108346
C   C9        1.0  0.68208  0.12347  0.98363  1.0000 -0.2268293823
C   C10       1.0  0.31792  0.30155  0.44139  1.0000 -0.2268293823
C   C11       1.0  0.86016  0.30155  0.98363  1.0000 -0.2268293823
C   C12       1.0  0.13984  0.12347  0.44139  1.0000 -0.2268293823
C   C13       1.0  0.63962  0.03103  0.86591  1.0000 0.12871045
C   C14       1.0  0.36038  0.22629  0.39141  1.0000 0.12871045
C   C15       1.0  0.83488  0.22629  0.86591  1.0000 0.12871045
C   C16       1.0  0.16512  0.03103  0.39141  1.0000 0.12871045
C   C17       1.0  0.56811  0.00474  0.81537  1.0000 -0.0405188442
C   C18       1.0  0.43189  0.24726  0.43663  1.0000 -0.0405188442
C   C19       1.0  0.81063  0.24726  0.81537  1.0000 -0.0405188442
C   C20       1.0  0.18937  0.00474  0.43663  1.0000 -0.0405188442
C   C21       1.0  0.52701  0.91202  0.70205  1.0000 0.12871045
C   C22       1.0  0.47299  0.17504  0.38501  1.0000 0.12871045
C   C23       1.0  0.79003  0.17504  0.70205  1.0000 0.12871045
C   C24       1.0  0.20997  0.91202  0.38501  1.0000 0.12871045
C   C25       1.0  0.45407  0.88595  0.64830  1.0000 -0.2092064887
C   C26       1.0  0.54593  0.19423  0.43188  1.0000 -0.2092064887
C   C27       1.0  0.76235  0.19423  0.64830  1.0000 -0.2092064887
C   C28       1.0  0.23765  0.88595  0.43188  1.0000 -0.2092064887
C   C29       1.0  0.43506  0.78568  0.53436  1.0000 -0.1607108346
C   C30       1.0  0.56494  0.09930  0.35062  1.0000 -0.1607108346
C   C31       1.0  0.74868  0.09930  0.53436  1.0000 -0.1607108346
C   C32       1.0  0.25132  0.78568  0.35062  1.0000 -0.1607108346
C   C33       1.0  0.49651  0.75265  0.51984  1.0000 0.0386472636
C   C34       1.0  0.50349  0.02333  0.25614  1.0000 0.0386472636
C   C35       1.0  0.76719  0.02333  0.51984  1.0000 0.0386472636
C   C36       1.0  0.23281  0.75265  0.25614  1.0000 0.0386472636
C   C37       1.0  0.53299  0.08749  0.89298  1.0000 0.0683838458
C   C38       1.0  0.46701  0.35999  0.55450  1.0000 0.0683838458
C   C39       1.0  0.80549  0.35999  0.89298  1.0000 0.0683838458
C   C40       1.0  0.19451  0.08749  0.55450  1.0000 0.0683838458
C   C41       1.0  0.54319  0.18864  0.95331  1.0000 -0.1202312593
C   C42       1.0  0.45681  0.41012  0.64545  1.0000 -0.1202312593
C   C43       1.0  0.76467  0.41012  0.95331  1.0000 -0.1202312593
C   C44       1.0  0.23533  0.18864  0.64545  1.0000 -0.1202312593
C   C45       1.0  0.51043  0.26627  0.02458  1.0000 -0.1798489521
C   C46       1.0  0.48957  0.51415  0.75584  1.0000 -0.1798489521
C   C47       1.0  0.75831  0.51415  0.02458  1.0000 -0.1798489521
C   C48       1.0  0.24169  0.26627  0.75584  1.0000 -0.1798489521
C   C49       1.0  0.46701  0.24227  0.03636  1.0000 0.1687846103
C   C50       1.0  0.53299  0.56935  0.77526  1.0000 0.1687846103
C   C51       1.0  0.79409  0.56935  0.03636  1.0000 0.1687846103
C   C52       1.0  0.20591  0.24227  0.77526  1.0000 0.1687846103
C   C53       1.0  0.45583  0.14231  0.97750  1.0000 -0.1878171135
C   C54       1.0  0.54417  0.52167  0.68648  1.0000 -0.1878171135
C   C55       1.0  0.83519  0.52167  0.97750  1.0000 -0.1878171135
C   C56       1.0  0.16481  0.14231  0.68648  1.0000 -0.1878171135
C   C57       1.0  0.48868  0.06528  0.90536  1.0000 -0.1284534677
C   C58       1.0  0.51132  0.41668  0.57660  1.0000 -0.1284534677
C   C59       1.0  0.84008  0.41668  0.90536  1.0000 -0.1284534677
C   C60       1.0  0.15992  0.06528  0.57660  1.0000 -0.1284534677
C   C61       1.0  0.45431  0.43089  0.20786  1.0000 -0.1202312593
C   C62       1.0  0.54569  0.75355  0.97658  1.0000 -0.1202312593
C   C63       1.0  0.77697  0.75355  0.20786  1.0000 -0.1202312593
C   C64       1.0  0.22303  0.43089  0.97658  1.0000 -0.1202312593
C   C65       1.0  0.40337  0.46900  0.24297  1.0000 -0.0186806235
C   C66       1.0  0.59663  0.83960  0.06563  1.0000 -0.0186806235
C   C67       1.0  0.77397  0.83960  0.24297  1.0000 -0.0186806235
C   C68       1.0  0.22603  0.46900  0.06563  1.0000 -0.0186806235
C   C69       1.0  0.36895  0.29965  0.08992  1.0000 0.0921243268
C   C70       1.0  0.63105  0.72097  0.93070  1.0000 0.0921243268
C   C71       1.0  0.79027  0.72097  0.08992  1.0000 0.0921243268
C   C72       1.0  0.20973  0.29965  0.93070  1.0000 0.0921243268
C   C73       1.0  0.32001  0.06342  0.09833  1.0000 0.0522277069
C   C74       1.0  0.67999  0.77832  0.74341  1.0000 0.0522277069
C   C75       1.0  0.03491  0.77832  0.09833  1.0000 0.0522277069
C   C76       1.0  0.96509  0.06342  0.74341  1.0000 0.0522277069
C   C77       1.0  0.31392  0.04133  0.01519  1.0000 -0.1719088785
C   C78       1.0  0.68608  0.70127  0.72741  1.0000 -0.1719088785
C   C79       1.0  0.97386  0.70127  0.01519  1.0000 -0.1719088785
C   C80       1.0  0.02614  0.04133  0.72741  1.0000 -0.1719088785
C   C81       1.0  0.32273  0.93842  0.92931  1.0000 -0.2092064887
C   C82       1.0  0.67727  0.60658  0.61569  1.0000 -0.2092064887
C   C83       1.0  0.99089  0.60658  0.92931  1.0000 -0.2092064887
C   C84       1.0  0.00911  0.93842  0.61569  1.0000 -0.2092064887
C   C85       1.0  0.33403  0.90194  0.96359  1.0000 0.1209872172
C   C86       1.0  0.66597  0.62956  0.56791  1.0000 0.1209872172
C   C87       1.0  0.06165  0.62956  0.96359  1.0000 0.1209872172
C   C88       1.0  0.93835  0.90194  0.56791  1.0000 0.1209872172
C   C89       1.0  0.34390  0.80052  0.90098  1.0000 -0.0273373436
C   C90       1.0  0.65610  0.55708  0.45662  1.0000 -0.0273373436
C   C91       1.0  0.10046  0.55708  0.90098  1.0000 -0.0273373436
C   C92       1.0  0.89954  0.80052  0.45662  1.0000 -0.0273373436
C   C93       1.0  0.36120  0.76780  0.93932  1.0000 0.1209872172
C   C94       1.0  0.63880  0.57812  0.40660  1.0000 0.1209872172
C   C95       1.0  0.17152  0.57812  0.93932  1.0000 0.1209872172
C   C96       1.0  0.82848  0.76780  0.40660  1.0000 0.1209872172
C   C97       1.0  0.36586  0.66231  0.87233  1.0000 -0.2268293823
C   C98       1.0  0.63414  0.50647  0.29645  1.0000 -0.2268293823
C   C99       1.0  0.21002  0.50647  0.87233  1.0000 -0.2268293823
C   C100      1.0  0.78998  0.66231  0.29645  1.0000 -0.2268293823
C   C101      1.0  0.38657  0.66667  0.94378  1.0000 -0.1798489521
C   C102      1.0  0.61343  0.55721  0.28012  1.0000 -0.1798489521
C   C103      1.0  0.27709  0.55721  0.94378  1.0000 -0.1798489521
C   C104      1.0  0.72291  0.66667  0.28012  1.0000 -0.1798489521
C   C105      1.0  0.39347  0.77357  0.05120  1.0000 0.0157075248
C   C106      1.0  0.60653  0.65773  0.38010  1.0000 0.0157075248
C   C107      1.0  0.27763  0.65773  0.05120  1.0000 0.0157075248
C   C108      1.0  0.72237  0.77357  0.38010  1.0000 0.0157075248
C   C109      1.0  0.33520  0.71814  0.78204  1.0000 0.0683838458
C   C110      1.0  0.66480  0.44684  0.38294  1.0000 0.0683838458
C   C111      1.0  0.06390  0.44684  0.78204  1.0000 0.0683838458
C   C112      1.0  0.93610  0.71814  0.38294  1.0000 0.0683838458
C   C113      1.0  0.27265  0.68486  0.70099  1.0000 -0.1202312593
C   C114      1.0  0.72735  0.42834  0.41221  1.0000 -0.1202312593
C   C115      1.0  0.01613  0.42834  0.70099  1.0000 -0.1202312593
C   C116      1.0  0.98387  0.68486  0.41221  1.0000 -0.1202312593
C   C117      1.0  0.26310  0.60399  0.58771  1.0000 -0.1798489521
C   C118      1.0  0.73690  0.32461  0.34089  1.0000 -0.1798489521
C   C119      1.0  0.98372  0.32461  0.58771  1.0000 -0.1798489521
C   C120      1.0  0.01628  0.60399  0.34089  1.0000 -0.1798489521
C   C121      1.0  0.31752  0.56145  0.55897  1.0000 0.1564738297
C   C122      1.0  0.68248  0.24145  0.24393  1.0000 0.1564738297
C   C123      1.0  0.99752  0.24145  0.55897  1.0000 0.1564738297
C   C124      1.0  0.00248  0.56145  0.24393  1.0000 0.1564738297
C   C125      1.0  0.38000  0.59317  0.63743  1.0000 -0.1719088785
C   C126      1.0  0.62000  0.25743  0.21317  1.0000 -0.1719088785
C   C127      1.0  0.04426  0.25743  0.63743  1.0000 -0.1719088785
C   C128      1.0  0.95574  0.59317  0.21317  1.0000 -0.1719088785
C   C129      1.0  0.38848  0.67174  0.74872  1.0000 -0.1202312593
C   C130      1.0  0.61152  0.36024  0.28326  1.0000 -0.1202312593
C   C131      1.0  0.07698  0.36024  0.74872  1.0000 -0.1202312593
C   C132      1.0  0.92302  0.67174  0.28326  1.0000 -0.1202312593
C   C133      1.0  0.33999  0.39710  0.38083  1.0000 -0.1056697897
C   C134      1.0  0.66001  0.04084  0.05711  1.0000 -0.1056697897
C   C135      1.0  0.98373  0.04084  0.38083  1.0000 -0.1056697897
C   C136      1.0  0.01627  0.39710  0.05711  1.0000 -0.1056697897
C   C137      1.0  0.31759  0.35173  0.28146  1.0000 -0.0273373436
C   C138      1.0  0.68241  0.96387  0.03414  1.0000 -0.0273373436
C   C139      1.0  0.92973  0.96387  0.28146  1.0000 -0.0273373436
C   C140      1.0  0.07027  0.35173  0.03414  1.0000 -0.0273373436
C   C141      1.0  0.27020  0.48567  0.38051  1.0000 0.0996569249
C   C142      1.0  0.72980  0.11031  0.21547  1.0000 0.0996569249
C   C143      1.0  0.89484  0.11031  0.38051  1.0000 0.0996569249
C   C144      1.0  0.10516  0.48567  0.21547  1.0000 0.0996569249
C   C145      1.0  0.59664  0.98690  0.58354  1.0000 -0.1878171135
C   C146      1.0  0.40336  0.98690  0.39026  1.0000 -0.1878171135
C   C147      1.0  0.59067  0.93462  0.59363  1.0000 0.1121434786
C   C148      1.0  0.40933  0.00296  0.34395  1.0000 0.1121434786
C   C149      1.0  0.65901  0.00296  0.59363  1.0000 0.1121434786
C   C150      1.0  0.34099  0.93462  0.34395  1.0000 0.1121434786
C   C151      1.0  0.70108  0.91990  0.62098  1.0000 0.2771731174
C   C152      1.0  0.29892  0.91990  0.21882  1.0000 0.2771731174
C   C153      1.0  0.75833  0.87800  0.63633  1.0000 0.2749565498
C   C154      1.0  0.24167  0.87800  0.11967  1.0000 0.2771731174
C   C155      1.0  0.79847  0.78280  0.64867  1.0000 0.0996569249
C   C156      1.0  0.20153  0.85020  0.98433  1.0000 0.0996569249
C   C157      1.0  0.86587  0.85020  0.64867  1.0000 0.0996569249
C   C158      1.0  0.13413  0.78280  0.98433  1.0000 0.0996569249
C   C159      1.0  0.85958  0.79420  0.65378  1.0000 -0.1798489521
C   C160      1.0  0.14042  0.79420  0.93462  1.0000 -0.1798489521
N   N1        1.0  0.68051  0.96624  0.80529  1.0000 -0.2989003766
N   N2        1.0  0.31949  0.12478  0.28573  1.0000 -0.2989003766
N   N3        1.0  0.83905  0.12478  0.80529  1.0000 -0.3053271516
N   N4        1.0  0.16095  0.96624  0.28573  1.0000 -0.3053271516
N   N5        1.0  0.55094  0.82571  0.61763  1.0000 -0.2989003766
N   N6        1.0  0.44906  0.06669  0.27477  1.0000 -0.2989003766
N   N7        1.0  0.79192  0.06669  0.61763  1.0000 -0.2989003766
N   N8        1.0  0.20808  0.82571  0.27477  1.0000 -0.2989003766
N   N9        1.0  0.43217  0.32064  0.10853  1.0000 0.0013953344
N   N10       1.0  0.56783  0.67636  0.88847  1.0000 0.0013953344
N   N11       1.0  0.78789  0.67636  0.10853  1.0000 0.0013953344
N   N12       1.0  0.21211  0.32064  0.88847  1.0000 0.0013953344
N   N13       1.0  0.35005  0.38803  0.16966  1.0000 -0.2557036026
N   N14       1.0  0.64995  0.81961  0.03798  1.0000 -0.2557036026
N   N15       1.0  0.78163  0.81961  0.16966  1.0000 -0.2557036026
N   N16       1.0  0.21837  0.38803  0.03798  1.0000 -0.2557036026
N   N17       1.0  0.33215  0.98362  0.07089  1.0000 -0.2989003766
N   N18       1.0  0.66785  0.73874  0.65147  1.0000 -0.2989003766
N   N19       1.0  0.08727  0.73874  0.07089  1.0000 -0.2989003766
N   N20       1.0  0.91273  0.98362  0.65147  1.0000 -0.2989003766
N   N21       1.0  0.37792  0.83474  0.05054  1.0000 -0.2989003766
N   N22       1.0  0.62208  0.67262  0.45682  1.0000 -0.2989003766
N   N23       1.0  0.21580  0.67262  0.05054  1.0000 -0.2989003766
N   N24       1.0  0.78420  0.83474  0.45682  1.0000 -0.2989003766
N   N25       1.0  0.30849  0.48270  0.44379  1.0000 0.0077497739
N   N26       1.0  0.69151  0.13530  0.17421  1.0000 0.0077497739
N   N27       1.0  0.96109  0.13530  0.44379  1.0000 0.0077497739
N   N28       1.0  0.03891  0.48270  0.17421  1.0000 0.0077497739
N   N29       1.0  0.27295  0.40657  0.28042  1.0000 -0.2557036026
N   N30       1.0  0.72705  0.00747  0.13362  1.0000 -0.2557036026
N   N31       1.0  0.87385  0.00747  0.28042  1.0000 -0.2557036026
N   N32       1.0  0.12615  0.40657  0.13362  1.0000 -0.2557036026
N   N33       1.0  0.74741  0.82570  0.64155  1.0000 -0.2428842753
N   N34       1.0  0.25259  0.89414  0.07829  1.0000 -0.2428842753
N   N35       1.0  0.81585  0.89414  0.64155  1.0000 -0.2428842753
N   N36       1.0  0.18415  0.82570  0.07829  1.0000 -0.2428842753
N   N37       1.0  0.64354  0.90199  0.61371  1.0000 -0.2428842753
N   N38       1.0  0.35646  0.97017  0.25845  1.0000 -0.2428842753
N   N39       1.0  0.71172  0.97017  0.61371  1.0000 -0.2428842753
N   N40       1.0  0.28828  0.90199  0.25845  1.0000 -0.2428842753
Cl  Cl1       1.0  0.20937  0.18706  0.97769  1.0000 -0.6420455917
Cl  Cl2       1.0  0.79063  0.76832  0.97769  1.0000 -0.6420455917
Cl  Cl3       1.0  0.26967  0.60399  0.33432  1.0000 -0.6327092095
Cl  Cl4       1.0  0.73033  0.06465  0.33432  1.0000 -0.6327092095
