# DDEC6 charges by PACMAN v1.1 (https://github.com/mtap-research/PACMAN-charge/)
data_2015[Cd][dia]3[ASR]7
_chemical_formula_sum              "Cd4 H52 C56 N20 O12"
_cell_length_a       10.4215
_cell_length_b       10.5323
_cell_length_c       22.2477
_cell_angle_alpha    90
_cell_angle_beta     90
_cell_angle_gamma    90

_symmetry_space_group_name_H-M    "P 1"
_symmetry_Int_Tables_number       1

loop_
  _symmetry_equiv_pos_as_xyz
  'x, y, z'

loop_
  _atom_site_type_symbol
  _atom_site_label
  _atom_site_symmetry_multiplicity
  _atom_site_fract_x
  _atom_site_fract_y
  _atom_site_fract_z
  _atom_site_occupancy
  _atom_site_charge
Cd  Cd1       1.0  0.47941  0.08051  0.90326  1.0000 0.7497196147
Cd  Cd2       1.0  0.02059  0.91949  0.40326  1.0000 0.7497196147
Cd  Cd3       1.0  0.52059  0.58051  0.59674  1.0000 0.7497196147
Cd  Cd4       1.0  0.97941  0.41949  0.09674  1.0000 0.7497196147
H   H1        1.0  0.27800  0.03290  0.02410  1.0000 0.1303694496
H   H2        1.0  0.22200  0.96710  0.52410  1.0000 0.1303694496
H   H3        1.0  0.72200  0.53290  0.47590  1.0000 0.1303694496
H   H4        1.0  0.77800  0.46710  0.97590  1.0000 0.1303694496
H   H5        1.0  0.13380  0.14090  0.08190  1.0000 0.1219377966
H   H6        1.0  0.36620  0.85910  0.58190  1.0000 0.1219377966
H   H7        1.0  0.86620  0.64090  0.41810  1.0000 0.1219377966
H   H8        1.0  0.63380  0.35910  0.91810  1.0000 0.1219377966
H   H9        1.0  0.12550  0.41210  0.96330  1.0000 0.1219377966
H   H10       1.0  0.37450  0.58790  0.46330  1.0000 0.1219377966
H   H11       1.0  0.87450  0.91210  0.53670  1.0000 0.1219377966
H   H12       1.0  0.62550  0.08790  0.03670  1.0000 0.1219377966
H   H13       1.0  0.28200  0.51970  0.88290  1.0000 0.1533778234
H   H14       1.0  0.21800  0.48030  0.38290  1.0000 0.1533778234
H   H15       1.0  0.71800  0.01970  0.61710  1.0000 0.1533778234
H   H16       1.0  0.78200  0.98030  0.11710  1.0000 0.1533778234
H   H17       1.0  0.15650  0.44720  0.86470  1.0000 0.1533778234
H   H18       1.0  0.34350  0.55280  0.36470  1.0000 0.1533778234
H   H19       1.0  0.84350  0.94720  0.63530  1.0000 0.1533778234
H   H20       1.0  0.65650  0.05280  0.13530  1.0000 0.1533778234
H   H21       1.0  0.27190  0.45510  0.81960  1.0000 0.1588616973
H   H22       1.0  0.22810  0.54490  0.31960  1.0000 0.1588616973
H   H23       1.0  0.72810  0.95510  0.68040  1.0000 0.1588616973
H   H24       1.0  0.77190  0.04490  0.18040  1.0000 0.1588616973
H   H25       1.0  0.77250  0.17400  0.74490  1.0000 0.1303694496
H   H26       1.0  0.72750  0.82600  0.24490  1.0000 0.1303694496
H   H27       1.0  0.22750  0.67400  0.75510  1.0000 0.1303694496
H   H28       1.0  0.27250  0.32600  0.25510  1.0000 0.1303694496
H   H29       1.0  0.87310  0.25240  0.65950  1.0000 0.1409868324
H   H30       1.0  0.62690  0.74760  0.15950  1.0000 0.1409868324
H   H31       1.0  0.12690  0.75240  0.84050  1.0000 0.1409868324
H   H32       1.0  0.37310  0.24760  0.34050  1.0000 0.1409868324
H   H33       1.0  0.78110  0.41450  0.60720  1.0000 0.10983339
H   H34       1.0  0.71890  0.58550  0.10720  1.0000 0.10983339
H   H35       1.0  0.21890  0.91450  0.89280  1.0000 0.10983339
H   H36       1.0  0.28110  0.08550  0.39280  1.0000 0.10983339
H   H37       1.0  0.49500  0.43080  0.71910  1.0000 0.1219377966
H   H38       1.0  0.00500  0.56920  0.21910  1.0000 0.1219377966
H   H39       1.0  0.50500  0.93080  0.78090  1.0000 0.1219377966
H   H40       1.0  0.99500  0.06920  0.28090  1.0000 0.1219377966
H   H41       1.0  0.59250  0.75660  0.03280  1.0000 0.1409868324
H   H42       1.0  0.90750  0.24340  0.53280  1.0000 0.1409868324
H   H43       1.0  0.40750  0.25660  0.46720  1.0000 0.1409868324
H   H44       1.0  0.09250  0.74340  0.96720  1.0000 0.1409868324
H   H45       1.0  0.72250  0.76820  0.99780  1.0000 0.1588616973
H   H46       1.0  0.77750  0.23180  0.49780  1.0000 0.1588616973
H   H47       1.0  0.27750  0.26820  0.50220  1.0000 0.1588616973
H   H48       1.0  0.22250  0.73180  0.00220  1.0000 0.1588616973
H   H49       1.0  0.61090  0.68530  0.97160  1.0000 0.1533778234
H   H50       1.0  0.88910  0.31470  0.47160  1.0000 0.1533778234
H   H51       1.0  0.38910  0.18530  0.52840  1.0000 0.1533778234
H   H52       1.0  0.11090  0.81470  0.02840  1.0000 0.1533778234
C   C1        1.0  0.57180  0.39340  0.70722  1.0000 0.068959503
C   C2        1.0  0.92820  0.60660  0.20722  1.0000 0.068959503
C   C3        1.0  0.42820  0.89340  0.79278  1.0000 0.068959503
C   C4        1.0  0.07180  0.10660  0.29278  1.0000 0.068959503
C   C5        1.0  0.62160  0.29560  0.74188  1.0000 -0.0481991297
C   C6        1.0  0.87840  0.70440  0.24188  1.0000 -0.0481991297
C   C7        1.0  0.37840  0.79560  0.75812  1.0000 -0.0481991297
C   C8        1.0  0.12160  0.20440  0.25812  1.0000 -0.0447067073
C   C9        1.0  0.24890  0.11180  0.01124  1.0000 0.0355783427
C   C10       1.0  0.25110  0.88820  0.51124  1.0000 0.0355783427
C   C11       1.0  0.75110  0.61180  0.48876  1.0000 0.0355783427
C   C12       1.0  0.74890  0.38820  0.98876  1.0000 0.0355783427
C   C13       1.0  0.16140  0.17650  0.04589  1.0000 0.0078843118
C   C14       1.0  0.33860  0.82350  0.54589  1.0000 0.0078843118
C   C15       1.0  0.83860  0.67650  0.45411  1.0000 0.0078843118
C   C16       1.0  0.66140  0.32350  0.95411  1.0000 0.0078843118
C   C17       1.0  0.15790  0.33500  0.97698  1.0000 -0.009391402
C   C18       1.0  0.34210  0.66500  0.47698  1.0000 -0.009391402
C   C19       1.0  0.84210  0.83500  0.52302  1.0000 -0.009391402
C   C20       1.0  0.65790  0.16500  0.02302  1.0000 -0.009391402
C   C21       1.0  0.24920  0.27230  0.94224  1.0000 0.1219377966
C   C22       1.0  0.25080  0.72770  0.44224  1.0000 0.1219377966
C   C23       1.0  0.75080  0.77230  0.55776  1.0000 0.1219377966
C   C24       1.0  0.74920  0.22770  0.05776  1.0000 0.1219377966
C   C25       1.0  0.30220  0.32810  0.88675  1.0000 0.213395963
C   C26       1.0  0.19780  0.67190  0.38675  1.0000 0.213395963
C   C27       1.0  0.69780  0.82810  0.61325  1.0000 0.213395963
C   C28       1.0  0.80220  0.17190  0.11325  1.0000 0.213395963
C   C29       1.0  0.24830  0.44830  0.86119  1.0000 -0.479167161
C   C30       1.0  0.25170  0.55170  0.36119  1.0000 -0.479167161
C   C31       1.0  0.75170  0.94830  0.63881  1.0000 -0.479167161
C   C32       1.0  0.74830  0.05170  0.13881  1.0000 -0.479167161
C   C33       1.0  0.55620  0.24950  0.79749  1.0000 0.4022032717
C   C34       1.0  0.94380  0.75050  0.29749  1.0000 0.4022032717
C   C35       1.0  0.44380  0.74950  0.70251  1.0000 0.4022032717
C   C36       1.0  0.05620  0.25050  0.20251  1.0000 0.4022032717
C   C37       1.0  0.73650  0.24070  0.72331  1.0000 -0.0481991297
C   C38       1.0  0.76350  0.75930  0.22331  1.0000 -0.0481991297
C   C39       1.0  0.26350  0.74070  0.77669  1.0000 -0.0481991297
C   C40       1.0  0.23650  0.25930  0.27669  1.0000 -0.0481991297
C   C41       1.0  0.79580  0.28690  0.67247  1.0000 -0.1486835233
C   C42       1.0  0.70420  0.71310  0.17247  1.0000 -0.1486835233
C   C43       1.0  0.20420  0.78690  0.82753  1.0000 -0.1486835233
C   C44       1.0  0.29580  0.21310  0.32753  1.0000 -0.1486835233
C   C45       1.0  0.73990  0.38370  0.64131  1.0000 0.0633084947
C   C46       1.0  0.76010  0.61630  0.14131  1.0000 0.0633084947
C   C47       1.0  0.26010  0.88370  0.85869  1.0000 0.0633084947
C   C48       1.0  0.23990  0.11630  0.35869  1.0000 0.0633084947
C   C49       1.0  0.63110  0.76090  0.99370  1.0000 -0.6096093556
C   C50       1.0  0.86890  0.23910  0.49370  1.0000 -0.6096093556
C   C51       1.0  0.36890  0.26090  0.50630  1.0000 -0.6096093556
C   C52       1.0  0.13110  0.73910  0.00630  1.0000 -0.6096093556
C   C53       1.0  0.58010  0.87530  0.96050  1.0000 0.6471340009
C   C54       1.0  0.91990  0.12470  0.46050  1.0000 0.6471340009
C   C55       1.0  0.41990  0.37530  0.53950  1.0000 0.6471340009
C   C56       1.0  0.08010  0.62470  0.03950  1.0000 0.6471340009
N   N1        1.0  0.62900  0.43620  0.65754  1.0000 -0.2117148353
N   N2        1.0  0.87100  0.56380  0.15754  1.0000 -0.2117148353
N   N3        1.0  0.37100  0.93620  0.84246  1.0000 -0.2117148353
N   N4        1.0  0.12900  0.06380  0.34246  1.0000 -0.2117148353
N   N5        1.0  0.29310  0.15950  0.95971  1.0000 -0.2364694229
N   N6        1.0  0.20690  0.84050  0.45971  1.0000 -0.2364694229
N   N7        1.0  0.70690  0.65950  0.54029  1.0000 -0.2364694229
N   N8        1.0  0.79310  0.34050  0.04029  1.0000 -0.2364694229
N   N9        1.0  0.11510  0.28890  0.02908  1.0000 -0.1616589179
N   N10       1.0  0.38490  0.71110  0.52908  1.0000 -0.1616589179
N   N11       1.0  0.88490  0.78890  0.47092  1.0000 -0.1616589179
N   N12       1.0  0.61510  0.21110  0.97092  1.0000 -0.1616589179
N   N13       1.0  0.39900  0.26930  0.86398  1.0000 -0.172390548
N   N14       1.0  0.10100  0.73070  0.36398  1.0000 -0.172390548
N   N15       1.0  0.60100  0.76930  0.63602  1.0000 -0.172390548
N   N16       1.0  0.89900  0.23070  0.13602  1.0000 -0.172390548
N   N17       1.0  0.45500  0.31830  0.81351  1.0000 -0.3489403775
N   N18       1.0  0.04500  0.68170  0.31351  1.0000 -0.3489403775
N   N19       1.0  0.54500  0.81830  0.68649  1.0000 -0.3489403775
N   N20       1.0  0.95500  0.18170  0.18649  1.0000 -0.3489403775
O   O1        1.0  0.60245  0.15310  0.82352  1.0000 -0.4892422161
O   O2        1.0  0.89755  0.84690  0.32352  1.0000 -0.4892422161
O   O3        1.0  0.39755  0.65310  0.67648  1.0000 -0.4892422161
O   O4        1.0  0.10245  0.34690  0.17648  1.0000 -0.4892422161
O   O5        1.0  0.63640  0.91280  0.91424  1.0000 -0.550997158
O   O6        1.0  0.86360  0.08720  0.41424  1.0000 -0.550997158
O   O7        1.0  0.36360  0.41280  0.58576  1.0000 -0.550997158
O   O8        1.0  0.13640  0.58720  0.08576  1.0000 -0.550997158
O   O9        1.0  0.48450  0.93100  0.98151  1.0000 -0.5925474366
O   O10       1.0  0.01550  0.06900  0.48151  1.0000 -0.5925474366
O   O11       1.0  0.51550  0.43100  0.51849  1.0000 -0.5925474366
O   O12       1.0  0.98450  0.56900  0.01849  1.0000 -0.5925474366
