# DDEC6 charges by PACMAN v1.1 (https://github.com/mtap-research/PACMAN-charge/)
data_2015[Mn][nan]3[ASR]12
_chemical_formula_sum              "Mn6 H6 C24 O18"
_cell_length_a       15.3651
_cell_length_b       15.3651
_cell_length_c       15.3651
_cell_angle_alpha    117.689
_cell_angle_beta     117.689
_cell_angle_gamma    117.689

_symmetry_space_group_name_H-M    "P 1"
_symmetry_Int_Tables_number       1

loop_
  _symmetry_equiv_pos_as_xyz
  'x, y, z'

loop_
  _atom_site_type_symbol
  _atom_site_label
  _atom_site_symmetry_multiplicity
  _atom_site_fract_x
  _atom_site_fract_y
  _atom_site_fract_z
  _atom_site_occupancy
  _atom_site_charge
Mn  Mn1       1.0  0.70570  0.96880  0.37950  1.0000 0.9894707821
Mn  Mn2       1.0  0.96880  0.37950  0.70570  1.0000 0.9894707821
Mn  Mn3       1.0  0.37950  0.70570  0.96880  1.0000 0.9894707821
Mn  Mn4       1.0  0.29430  0.03120  0.62050  1.0000 0.9894707821
Mn  Mn5       1.0  0.03120  0.62050  0.29430  1.0000 0.9894707821
Mn  Mn6       1.0  0.62050  0.29430  0.03120  1.0000 0.9894707821
H   H1        1.0  0.86217  0.30981  0.83974  1.0000 0.1425943645
H   H2        1.0  0.30981  0.83974  0.86217  1.0000 0.1425943645
H   H3        1.0  0.83974  0.86217  0.30981  1.0000 0.1425943645
H   H4        1.0  0.13783  0.69019  0.16026  1.0000 0.1425943645
H   H5        1.0  0.69019  0.16026  0.13783  1.0000 0.1425943645
H   H6        1.0  0.16026  0.13783  0.69019  1.0000 0.1425943645
C   C1        1.0  0.33270  0.76750  0.16480  1.0000 0.5601207537
C   C2        1.0  0.76750  0.16480  0.33270  1.0000 0.5601207537
C   C3        1.0  0.16480  0.33270  0.76750  1.0000 0.5601207537
C   C4        1.0  0.66730  0.23250  0.83520  1.0000 0.5601207537
C   C5        1.0  0.23250  0.83520  0.66730  1.0000 0.5601207537
C   C6        1.0  0.83520  0.66730  0.23250  1.0000 0.5601207537
C   C7        1.0  0.41240  0.88110  0.32850  1.0000 -0.1933529504
C   C8        1.0  0.88110  0.32850  0.41240  1.0000 -0.1933529504
C   C9        1.0  0.32850  0.41240  0.88110  1.0000 -0.1933529504
C   C10       1.0  0.58760  0.11890  0.67150  1.0000 -0.1933529504
C   C11       1.0  0.11890  0.67150  0.58760  1.0000 -0.1933529504
C   C12       1.0  0.67150  0.58760  0.11890  1.0000 -0.1933529504
C   C13       1.0  0.61830  0.06100  0.52470  1.0000 0.3027290724
C   C14       1.0  0.06100  0.52470  0.61830  1.0000 0.3027290724
C   C15       1.0  0.52470  0.61830  0.06100  1.0000 0.3027290724
C   C16       1.0  0.38170  0.93900  0.47530  1.0000 0.3027290724
C   C17       1.0  0.93900  0.47530  0.38170  1.0000 0.3027290724
C   C18       1.0  0.47530  0.38170  0.93900  1.0000 0.3027290724
C   C19       1.0  0.70920  0.17480  0.69500  1.0000 -0.1824312188
C   C20       1.0  0.17480  0.69500  0.70920  1.0000 -0.1824312188
C   C21       1.0  0.69500  0.70920  0.17480  1.0000 -0.1824312188
C   C22       1.0  0.29080  0.82520  0.30500  1.0000 -0.1824312188
C   C23       1.0  0.82520  0.30500  0.29080  1.0000 -0.1824312188
C   C24       1.0  0.30500  0.29080  0.82520  1.0000 -0.1824312188
O   O1        1.0  0.14140  0.61360  0.98800  1.0000 -0.5255060074
O   O2        1.0  0.61360  0.98800  0.14140  1.0000 -0.5255060074
O   O3        1.0  0.98800  0.14140  0.61360  1.0000 -0.5255060074
O   O4        1.0  0.85860  0.38640  0.01200  1.0000 -0.5255060074
O   O5        1.0  0.38640  0.01200  0.85860  1.0000 -0.5255060074
O   O6        1.0  0.01200  0.85860  0.38640  1.0000 -0.5255060074
O   O7        1.0  0.41380  0.79770  0.15550  1.0000 -0.5024712362
O   O8        1.0  0.79770  0.15550  0.41380  1.0000 -0.5024712362
O   O9        1.0  0.15550  0.41380  0.79770  1.0000 -0.5024712362
O   O10       1.0  0.58620  0.20230  0.84450  1.0000 -0.5024712362
O   O11       1.0  0.20230  0.84450  0.58620  1.0000 -0.5024712362
O   O12       1.0  0.84450  0.58620  0.20230  1.0000 -0.5024712362
O   O13       1.0  0.74490  0.11740  0.56070  1.0000 -0.5911535598
O   O14       1.0  0.11740  0.56070  0.74490  1.0000 -0.5911535598
O   O15       1.0  0.56070  0.74490  0.11740  1.0000 -0.5911535598
O   O16       1.0  0.25510  0.88260  0.43930  1.0000 -0.5911535598
O   O17       1.0  0.88260  0.43930  0.25510  1.0000 -0.5911535598
O   O18       1.0  0.43930  0.25510  0.88260  1.0000 -0.5911535598
