# DDEC6 charges by PACMAN v1.1 (https://github.com/mtap-research/PACMAN-charge/)
data_2015[Co][nan]3[ASR]14
_chemical_formula_sum              "Co10 H12 C40 O36"
_cell_length_a       7.452
_cell_length_b       16.472
_cell_length_c       15.7353
_cell_angle_alpha    90
_cell_angle_beta     112.668
_cell_angle_gamma    90

_symmetry_space_group_name_H-M    "P 1"
_symmetry_Int_Tables_number       1

loop_
  _symmetry_equiv_pos_as_xyz
  'x, y, z'

loop_
  _atom_site_type_symbol
  _atom_site_label
  _atom_site_symmetry_multiplicity
  _atom_site_fract_x
  _atom_site_fract_y
  _atom_site_fract_z
  _atom_site_occupancy
  _atom_site_charge
Co  Co1       1.0  0.00000  0.50000  0.50000  1.0000 1.0710082699
Co  Co2       1.0  0.00000  0.00000  0.00000  1.0000 1.0710082699
Co  Co3       1.0  0.46711  0.51353  0.67611  1.0000 1.0263485361
Co  Co4       1.0  0.53289  0.01353  0.82389  1.0000 1.0246679235
Co  Co5       1.0  0.53289  0.48647  0.32389  1.0000 1.0263485361
Co  Co6       1.0  0.46711  0.98647  0.17611  1.0000 1.0263485361
Co  Co7       1.0  0.28380  0.62784  0.47251  1.0000 1.0556275297
Co  Co8       1.0  0.71620  0.12784  0.02749  1.0000 1.0556275297
Co  Co9       1.0  0.71620  0.37216  0.52749  1.0000 1.0556275297
Co  Co10      1.0  0.28380  0.87216  0.97251  1.0000 1.0556275297
H   H1        1.0  0.65320  0.52410  0.49020  1.0000 0.3978185106
H   H2        1.0  0.34680  0.02410  0.00980  1.0000 0.3978185106
H   H3        1.0  0.34680  0.47590  0.50980  1.0000 0.3978185106
H   H4        1.0  0.65320  0.97590  0.99020  1.0000 0.3978185106
H   H5        1.0  0.23750  0.79490  0.66960  1.0000 0.1370424658
H   H6        1.0  0.76250  0.29490  0.83040  1.0000 0.1370424658
H   H7        1.0  0.76250  0.20510  0.33040  1.0000 0.1370424658
H   H8        1.0  0.23750  0.70510  0.16960  1.0000 0.1370424658
H   H9        1.0  0.67540  0.77500  0.72590  1.0000 0.1370424658
H   H10       1.0  0.32460  0.27500  0.77410  1.0000 0.1370424658
H   H11       1.0  0.32460  0.22500  0.27410  1.0000 0.1370424658
H   H12       1.0  0.67540  0.72500  0.22590  1.0000 0.1370424658
C   C1        1.0  0.83050  0.71950  0.66320  1.0000 -0.0119509392
C   C2        1.0  0.16950  0.21950  0.83680  1.0000 -0.0119509392
C   C3        1.0  0.16950  0.28050  0.33680  1.0000 -0.0119509392
C   C4        1.0  0.83050  0.78050  0.16320  1.0000 -0.0119509392
C   C5        1.0  0.99910  0.72440  0.64580  1.0000 -0.0346543853
C   C6        1.0  0.00090  0.22440  0.85420  1.0000 -0.0346543853
C   C7        1.0  0.00090  0.27560  0.35420  1.0000 -0.038954844
C   C8        1.0  0.99910  0.77560  0.14580  1.0000 -0.0346543853
C   C9        1.0  0.12720  0.78990  0.68330  1.0000 -0.1088223409
C   C10       1.0  0.87280  0.28990  0.81670  1.0000 -0.1088223409
C   C11       1.0  0.87280  0.21010  0.31670  1.0000 -0.1088223409
C   C12       1.0  0.12720  0.71010  0.18330  1.0000 -0.1088223409
C   C13       1.0  0.09280  0.84730  0.74020  1.0000 -0.038954844
C   C14       1.0  0.90720  0.34730  0.75980  1.0000 -0.038954844
C   C15       1.0  0.90720  0.15270  0.25980  1.0000 -0.038954844
C   C16       1.0  0.09280  0.65270  0.24020  1.0000 -0.038954844
C   C17       1.0  0.92050  0.84130  0.75600  1.0000 -0.045761558
C   C18       1.0  0.07950  0.34130  0.74400  1.0000 -0.045761558
C   C19       1.0  0.07950  0.15870  0.24400  1.0000 -0.045761558
C   C20       1.0  0.92050  0.65870  0.25600  1.0000 -0.045761558
C   C21       1.0  0.79080  0.77790  0.71630  1.0000 -0.1241288249
C   C22       1.0  0.20920  0.27790  0.78370  1.0000 -0.1241288249
C   C23       1.0  0.20920  0.22210  0.28370  1.0000 -0.1241288249
C   C24       1.0  0.79080  0.72210  0.21630  1.0000 -0.1241288249
C   C25       1.0  0.68210  0.65340  0.62580  1.0000 0.6219327583
C   C26       1.0  0.31790  0.15340  0.87420  1.0000 0.6219327583
C   C27       1.0  0.31790  0.34660  0.37420  1.0000 0.6219327583
C   C28       1.0  0.68210  0.84660  0.12580  1.0000 0.6219327583
C   C29       1.0  0.05950  0.66280  0.59160  1.0000 0.6052952457
C   C30       1.0  0.94050  0.16280  0.90840  1.0000 0.6048337269
C   C31       1.0  0.94050  0.33720  0.40840  1.0000 0.6052952457
C   C32       1.0  0.05950  0.83720  0.09160  1.0000 0.6048337269
C   C33       1.0  0.24800  0.91130  0.77850  1.0000 0.5885214854
C   C34       1.0  0.75200  0.41130  0.72150  1.0000 0.5885214854
C   C35       1.0  0.75200  0.08870  0.22150  1.0000 0.5885214854
C   C36       1.0  0.24800  0.58870  0.27850  1.0000 0.5885214854
C   C37       1.0  0.86540  0.89810  0.81680  1.0000 0.6219327583
C   C38       1.0  0.13460  0.39810  0.68320  1.0000 0.6251808453
C   C39       1.0  0.13460  0.10190  0.18320  1.0000 0.6219327583
C   C40       1.0  0.86540  0.60190  0.31680  1.0000 0.6219327583
O   O1        1.0  0.57720  0.65650  0.53940  1.0000 -0.5804148815
O   O2        1.0  0.42280  0.15650  0.96060  1.0000 -0.5804148815
O   O3        1.0  0.42280  0.34350  0.46060  1.0000 -0.5804148815
O   O4        1.0  0.57720  0.84350  0.03940  1.0000 -0.5804148815
O   O5        1.0  0.66560  0.60330  0.67980  1.0000 -0.5323327657
O   O6        1.0  0.33440  0.10330  0.82020  1.0000 -0.5323327657
O   O7        1.0  0.33440  0.39670  0.32020  1.0000 -0.5323327657
O   O8        1.0  0.66560  0.89670  0.17980  1.0000 -0.5323327657
O   O9        1.0  0.18830  0.68240  0.56200  1.0000 -0.5804148815
O   O10       1.0  0.81170  0.18240  0.93800  1.0000 -0.5804148815
O   O11       1.0  0.81170  0.31760  0.43800  1.0000 -0.5804148815
O   O12       1.0  0.18830  0.81760  0.06200  1.0000 -0.5804148815
O   O13       1.0  0.97920  0.59440  0.58210  1.0000 -0.5390565943
O   O14       1.0  0.02080  0.09440  0.91790  1.0000 -0.5390565943
O   O15       1.0  0.02080  0.40560  0.41790  1.0000 -0.5390565943
O   O16       1.0  0.97920  0.90560  0.08210  1.0000 -0.5390565943
O   O17       1.0  0.34290  0.91730  0.86320  1.0000 -0.5804148815
O   O18       1.0  0.65710  0.41730  0.63680  1.0000 -0.5804148815
O   O19       1.0  0.65710  0.08270  0.13680  1.0000 -0.5804148815
O   O20       1.0  0.34290  0.58270  0.36320  1.0000 -0.5804148815
O   O21       1.0  0.29030  0.95310  0.72320  1.0000 -0.4819276285
O   O22       1.0  0.70970  0.45310  0.77680  1.0000 -0.4819276285
O   O23       1.0  0.70970  0.04690  0.27680  1.0000 -0.4819276285
O   O24       1.0  0.29030  0.54690  0.22320  1.0000 -0.4819276285
O   O25       1.0  0.69460  0.92420  0.78850  1.0000 -0.5323327657
O   O26       1.0  0.30540  0.42420  0.71150  1.0000 -0.5323327657
O   O27       1.0  0.30540  0.07580  0.21150  1.0000 -0.5323327657
O   O28       1.0  0.69460  0.57580  0.28850  1.0000 -0.5323327657
O   O29       1.0  0.99670  0.91570  0.89640  1.0000 -0.6200619143
O   O30       1.0  0.00330  0.41570  0.60360  1.0000 -0.6200619143
O   O31       1.0  0.00330  0.08430  0.10360  1.0000 -0.6200619143
O   O32       1.0  0.99670  0.58430  0.39640  1.0000 -0.6200619143
O   O33       1.0  0.70130  0.48280  0.45930  1.0000 -0.9152955365
O   O34       1.0  0.29870  0.98280  0.04070  1.0000 -0.9145498228
O   O35       1.0  0.29870  0.51720  0.54070  1.0000 -0.9145498228
O   O36       1.0  0.70130  0.01720  0.95930  1.0000 -0.9152955365
