# DDEC6 charges by PACMAN v1.1 (https://github.com/mtap-research/PACMAN-charge/)
data_2015[Cd][nan]3[ASR]22
_chemical_formula_sum              "Cd4 H56 C80 N12 O16"
_cell_length_a       11.1414
_cell_length_b       11.1414
_cell_length_c       18.662
_cell_angle_alpha    86.5142
_cell_angle_beta     93.4858
_cell_angle_gamma    65.0394

_symmetry_space_group_name_H-M    "P 1"
_symmetry_Int_Tables_number       1

loop_
  _symmetry_equiv_pos_as_xyz
  'x, y, z'

loop_
  _atom_site_type_symbol
  _atom_site_label
  _atom_site_symmetry_multiplicity
  _atom_site_fract_x
  _atom_site_fract_y
  _atom_site_fract_z
  _atom_site_occupancy
  _atom_site_charge
Cd  Cd1       1.0  0.36918  0.86500  0.91017  1.0000 0.8270864937
Cd  Cd2       1.0  0.86500  0.36918  0.58983  1.0000 0.8270864937
Cd  Cd3       1.0  0.63082  0.13500  0.08983  1.0000 0.8270864937
Cd  Cd4       1.0  0.13500  0.63082  0.41017  1.0000 0.8270864937
H   H1        1.0  0.16640  0.56260  0.57670  1.0000 0.1018127355
H   H2        1.0  0.56260  0.16640  0.92330  1.0000 0.1018127355
H   H3        1.0  0.83360  0.43740  0.42330  1.0000 0.1018127355
H   H4        1.0  0.43740  0.83360  0.07670  1.0000 0.1018127355
H   H5        1.0  0.29450  0.41450  0.67070  1.0000 0.130374485
H   H6        1.0  0.41450  0.29450  0.82930  1.0000 0.130374485
H   H7        1.0  0.70550  0.58550  0.32930  1.0000 0.130374485
H   H8        1.0  0.58550  0.70550  0.17070  1.0000 0.130374485
H   H9        1.0  0.57230  0.24470  0.53560  1.0000 0.130374485
H   H10       1.0  0.24470  0.57230  0.96440  1.0000 0.130374485
H   H11       1.0  0.42770  0.75530  0.46440  1.0000 0.130374485
H   H12       1.0  0.75530  0.42770  0.03560  1.0000 0.130374485
H   H13       1.0  0.43460  0.39860  0.44570  1.0000 0.1198683344
H   H14       1.0  0.39860  0.43460  0.05430  1.0000 0.1198683344
H   H15       1.0  0.56540  0.60140  0.55430  1.0000 0.1198683344
H   H16       1.0  0.60140  0.56540  0.94570  1.0000 0.1198683344
H   H17       1.0  0.37830  0.16590  0.70270  1.0000 0.1198683344
H   H18       1.0  0.16590  0.37830  0.79730  1.0000 0.1198683344
H   H19       1.0  0.62170  0.83410  0.29730  1.0000 0.1198683344
H   H20       1.0  0.83410  0.62170  0.20270  1.0000 0.1198683344
H   H21       1.0  0.71510  0.96330  0.83160  1.0000 0.1198683344
H   H22       1.0  0.96330  0.71510  0.66840  1.0000 0.1198683344
H   H23       1.0  0.28490  0.03670  0.16840  1.0000 0.1198683344
H   H24       1.0  0.03670  0.28490  0.33160  1.0000 0.1198683344
H   H25       1.0  0.82080  0.06260  0.76380  1.0000 0.130374485
H   H26       1.0  0.06260  0.82080  0.73620  1.0000 0.130374485
H   H27       1.0  0.17920  0.93740  0.23620  1.0000 0.130374485
H   H28       1.0  0.93740  0.17920  0.26380  1.0000 0.130374485
H   H29       1.0  0.26140  0.18420  0.93900  1.0000 0.1198683344
H   H30       1.0  0.18420  0.26140  0.56100  1.0000 0.1198683344
H   H31       1.0  0.73860  0.81580  0.06100  1.0000 0.1198683344
H   H32       1.0  0.81580  0.73860  0.43900  1.0000 0.1198683344
H   H33       1.0  0.01150  0.15830  0.07320  1.0000 0.1413551212
H   H34       1.0  0.15830  0.01150  0.42680  1.0000 0.1413551212
H   H35       1.0  0.98850  0.84170  0.92680  1.0000 0.1413551212
H   H36       1.0  0.84170  0.98850  0.57320  1.0000 0.1413551212
H   H37       1.0  0.15110  0.93650  0.03970  1.0000 0.130374485
H   H38       1.0  0.93650  0.15110  0.46030  1.0000 0.130374485
H   H39       1.0  0.84890  0.06350  0.96030  1.0000 0.130374485
H   H40       1.0  0.06350  0.84890  0.53970  1.0000 0.130374485
H   H41       1.0  0.97370  0.39050  0.90370  1.0000 0.1413551212
H   H42       1.0  0.39050  0.97370  0.59630  1.0000 0.1413551212
H   H43       1.0  0.02630  0.60950  0.09630  1.0000 0.1413551212
H   H44       1.0  0.60950  0.02630  0.40370  1.0000 0.1413551212
H   H45       1.0  0.24760  0.28420  0.11890  1.0000 0.1488140973
H   H46       1.0  0.28420  0.24760  0.38110  1.0000 0.1488140973
H   H47       1.0  0.75240  0.71580  0.88110  1.0000 0.1488140973
H   H48       1.0  0.71580  0.75240  0.61890  1.0000 0.1488140973
H   H49       1.0  0.17830  0.40810  0.16200  1.0000 0.1488140973
H   H50       1.0  0.40810  0.17830  0.33800  1.0000 0.1488140973
H   H51       1.0  0.82170  0.59190  0.83800  1.0000 0.1488140973
H   H52       1.0  0.59190  0.82170  0.66200  1.0000 0.1488140973
H   H53       1.0  0.11960  0.30320  0.15650  1.0000 0.1413551212
H   H54       1.0  0.30320  0.11960  0.34350  1.0000 0.1413551212
H   H55       1.0  0.88040  0.69680  0.84350  1.0000 0.1413551212
H   H56       1.0  0.69680  0.88040  0.65650  1.0000 0.1413551212
C   C1        1.0  0.24880  0.49720  0.56830  1.0000 0.0727716777
C   C2        1.0  0.49720  0.24880  0.93170  1.0000 0.0727716777
C   C3        1.0  0.75120  0.50280  0.43170  1.0000 0.0727716777
C   C4        1.0  0.50280  0.75120  0.06830  1.0000 0.0727716777
C   C5        1.0  0.32550  0.40850  0.62520  1.0000 -0.1872421277
C   C6        1.0  0.40850  0.32550  0.87480  1.0000 -0.1872421277
C   C7        1.0  0.67450  0.59150  0.37480  1.0000 -0.1872421277
C   C8        1.0  0.59150  0.67450  0.12520  1.0000 -0.1872421277
C   C9        1.0  0.44908  0.31028  0.61480  1.0000 0.1198683344
C   C10       1.0  0.31028  0.44908  0.88520  1.0000 0.1198683344
C   C11       1.0  0.55092  0.68972  0.38520  1.0000 0.1198683344
C   C12       1.0  0.68972  0.55092  0.11480  1.0000 0.1198683344
C   C13       1.0  0.48990  0.30810  0.54530  1.0000 -0.1831947264
C   C14       1.0  0.30810  0.48990  0.95470  1.0000 -0.1831947264
C   C15       1.0  0.51010  0.69190  0.45470  1.0000 -0.1831947264
C   C16       1.0  0.69190  0.51010  0.04530  1.0000 -0.1831947264
C   C17       1.0  0.40620  0.40100  0.49160  1.0000 0.0727716777
C   C18       1.0  0.40100  0.40620  0.00840  1.0000 0.0727716777
C   C19       1.0  0.59380  0.59900  0.50840  1.0000 0.0727716777
C   C20       1.0  0.59900  0.59380  0.99160  1.0000 0.0727716777
C   C21       1.0  0.52840  0.21080  0.67534  1.0000 0.0292151052
C   C22       1.0  0.21080  0.52840  0.82466  1.0000 0.0292151052
C   C23       1.0  0.47160  0.78920  0.32466  1.0000 0.0292151052
C   C24       1.0  0.78920  0.47160  0.17534  1.0000 0.0292151052
C   C25       1.0  0.46698  0.14658  0.71546  1.0000 -0.1547591832
C   C26       1.0  0.14658  0.46698  0.78454  1.0000 -0.1547591832
C   C27       1.0  0.53302  0.85342  0.28454  1.0000 -0.1547591832
C   C28       1.0  0.85342  0.53302  0.21546  1.0000 -0.1547591832
C   C29       1.0  0.53540  0.05500  0.77376  1.0000 -0.0223954
C   C30       1.0  0.05500  0.53540  0.72624  1.0000 -0.0223954
C   C31       1.0  0.46460  0.94500  0.22624  1.0000 -0.0223954
C   C32       1.0  0.94500  0.46460  0.27376  1.0000 -0.0223954
C   C33       1.0  0.66840  0.02440  0.79230  1.0000 -0.1183482152
C   C34       1.0  0.02440  0.66840  0.70770  1.0000 -0.1183482152
C   C35       1.0  0.33160  0.97560  0.20770  1.0000 -0.1183482152
C   C36       1.0  0.97560  0.33160  0.29230  1.0000 -0.1183482152
C   C37       1.0  0.73100  0.08500  0.75210  1.0000 -0.1183482152
C   C38       1.0  0.08500  0.73100  0.74790  1.0000 -0.1256594581
C   C39       1.0  0.26900  0.91500  0.24790  1.0000 -0.1256594581
C   C40       1.0  0.91500  0.26900  0.25210  1.0000 -0.1256594581
C   C41       1.0  0.66228  0.17888  0.69468  1.0000 -0.0417896166
C   C42       1.0  0.17888  0.66228  0.80532  1.0000 -0.0417896166
C   C43       1.0  0.33772  0.82112  0.30532  1.0000 -0.0417896166
C   C44       1.0  0.82112  0.33772  0.19468  1.0000 -0.0417896166
C   C45       1.0  0.73367  0.24967  0.65749  1.0000 0.5403327796
C   C46       1.0  0.24967  0.73367  0.84251  1.0000 0.5403327796
C   C47       1.0  0.26633  0.75033  0.34251  1.0000 0.5403327796
C   C48       1.0  0.75033  0.26633  0.15749  1.0000 0.5403327796
C   C49       1.0  0.46660  0.99320  0.81920  1.0000 0.5280811044
C   C50       1.0  0.99320  0.46660  0.68080  1.0000 0.5280811044
C   C51       1.0  0.53340  0.00680  0.18080  1.0000 0.5280811044
C   C52       1.0  0.00680  0.53340  0.31920  1.0000 0.5280811044
C   C53       1.0  0.21680  0.14940  0.96820  1.0000 0.1198683344
C   C54       1.0  0.14940  0.21680  0.53180  1.0000 0.1198683344
C   C55       1.0  0.78320  0.85060  0.03180  1.0000 0.1198683344
C   C56       1.0  0.85060  0.78320  0.46820  1.0000 0.1198683344
C   C57       1.0  0.07830  0.13670  0.04220  1.0000 -0.0882991102
C   C58       1.0  0.13670  0.07830  0.45780  1.0000 -0.0882991102
C   C59       1.0  0.92170  0.86330  0.95780  1.0000 -0.0882991102
C   C60       1.0  0.86330  0.92170  0.54220  1.0000 -0.0882991102
C   C61       1.0  0.15600  0.01480  0.02350  1.0000 -0.0417896166
C   C62       1.0  0.01480  0.15600  0.47650  1.0000 -0.0417896166
C   C63       1.0  0.84400  0.98520  0.97650  1.0000 -0.0417896166
C   C64       1.0  0.98520  0.84400  0.52350  1.0000 -0.0417896166
C   C65       1.0  0.05840  0.36520  0.00460  1.0000 0.0751287717
C   C66       1.0  0.36520  0.05840  0.49540  1.0000 0.0727716777
C   C67       1.0  0.94160  0.63480  0.99540  1.0000 0.0751287717
C   C68       1.0  0.63480  0.94160  0.50460  1.0000 0.0727716777
C   C69       1.0  0.07910  0.42530  0.06440  1.0000 0.1018127355
C   C70       1.0  0.42530  0.07910  0.43560  1.0000 0.1018127355
C   C71       1.0  0.92090  0.57470  0.93560  1.0000 0.1018127355
C   C72       1.0  0.57470  0.92090  0.56440  1.0000 0.1018127355
C   C73       1.0  0.98320  0.43600  0.94220  1.0000 -0.2555944172
C   C74       1.0  0.43600  0.98320  0.55780  1.0000 -0.2555944172
C   C75       1.0  0.01680  0.56400  0.05780  1.0000 -0.2555944172
C   C76       1.0  0.56400  0.01680  0.44220  1.0000 -0.2479129103
C   C77       1.0  0.16370  0.34830  0.13150  1.0000 -0.4564565269
C   C78       1.0  0.34830  0.16370  0.36850  1.0000 -0.4564565269
C   C79       1.0  0.83630  0.65170  0.86850  1.0000 -0.4564565269
C   C80       1.0  0.65170  0.83630  0.63150  1.0000 -0.4564565269
N   N1        1.0  0.28579  0.49499  0.50187  1.0000 -0.2479129103
N   N2        1.0  0.49499  0.28579  0.99813  1.0000 -0.2479129103
N   N3        1.0  0.71421  0.50501  0.49813  1.0000 -0.2479129103
N   N4        1.0  0.50501  0.71421  0.00187  1.0000 -0.2479129103
N   N5        1.0  0.11842  0.22222  0.00611  1.0000 0.0125143438
N   N6        1.0  0.22222  0.11842  0.49389  1.0000 0.0125143438
N   N7        1.0  0.88158  0.77778  0.99389  1.0000 0.0125143438
N   N8        1.0  0.77778  0.88158  0.50611  1.0000 0.0125143438
N   N9        1.0  0.24317  0.02317  0.97709  1.0000 -0.2926636186
N   N10       1.0  0.02317  0.24317  0.52291  1.0000 -0.2926636186
N   N11       1.0  0.75683  0.97683  0.02291  1.0000 -0.2926636186
N   N12       1.0  0.97683  0.75683  0.47709  1.0000 -0.2926636186
O   O1        1.0  0.69007  0.37247  0.65652  1.0000 -0.5201703903
O   O2        1.0  0.37247  0.69007  0.84348  1.0000 -0.5201703903
O   O3        1.0  0.30993  0.62753  0.34348  1.0000 -0.5201703903
O   O4        1.0  0.62753  0.30993  0.15652  1.0000 -0.5201703903
O   O5        1.0  0.83572  0.18232  0.62937  1.0000 -0.529935613
O   O6        1.0  0.18232  0.83572  0.87063  1.0000 -0.529935613
O   O7        1.0  0.16428  0.81768  0.37063  1.0000 -0.529935613
O   O8        1.0  0.81768  0.16428  0.12937  1.0000 -0.529935613
O   O9        1.0  0.34686  0.01946  0.80291  1.0000 -0.5201703903
O   O10       1.0  0.01946  0.34686  0.69709  1.0000 -0.5201703903
O   O11       1.0  0.65314  0.98054  0.19709  1.0000 -0.5201703903
O   O12       1.0  0.98054  0.65314  0.30291  1.0000 -0.5201703903
O   O13       1.0  0.52998  0.91938  0.87439  1.0000 -0.5401172486
O   O14       1.0  0.91938  0.52998  0.62561  1.0000 -0.5401172486
O   O15       1.0  0.47002  0.08062  0.12561  1.0000 -0.5401172486
O   O16       1.0  0.08062  0.47002  0.37439  1.0000 -0.5401172486
