# DDEC6 charges by PACMAN v1.1 (https://github.com/mtap-research/PACMAN-charge/)
data_2015[Cu][nan]3[ASR]17
_chemical_formula_sum              "Cu12 H84 C132 I6 N24 O24"
_cell_length_a       24.2576
_cell_length_b       24.2576
_cell_length_c       24.2576
_cell_angle_alpha    115.272
_cell_angle_beta     115.272
_cell_angle_gamma    115.272

_symmetry_space_group_name_H-M    "P 1"
_symmetry_Int_Tables_number       1

loop_
  _symmetry_equiv_pos_as_xyz
  'x, y, z'

loop_
  _atom_site_type_symbol
  _atom_site_label
  _atom_site_symmetry_multiplicity
  _atom_site_fract_x
  _atom_site_fract_y
  _atom_site_fract_z
  _atom_site_occupancy
  _atom_site_charge
Cu  Cu1       1.0  0.92480  0.46435  0.43084  1.0000 0.1980175316
Cu  Cu2       1.0  0.46435  0.43084  0.92480  1.0000 0.1980175316
Cu  Cu3       1.0  0.43084  0.92480  0.46435  1.0000 0.1980175316
Cu  Cu4       1.0  0.07520  0.53565  0.56916  1.0000 0.1980175316
Cu  Cu5       1.0  0.53565  0.56916  0.07520  1.0000 0.1980175316
Cu  Cu6       1.0  0.56916  0.07520  0.53565  1.0000 0.1980175316
Cu  Cu7       1.0  0.07811  0.05735  0.58465  1.0000 0.7753396223
Cu  Cu8       1.0  0.05735  0.58465  0.07811  1.0000 0.7753396223
Cu  Cu9       1.0  0.58465  0.07811  0.05735  1.0000 0.7753396223
Cu  Cu10      1.0  0.92189  0.94265  0.41535  1.0000 0.7753396223
Cu  Cu11      1.0  0.94265  0.41535  0.92189  1.0000 0.7753396223
Cu  Cu12      1.0  0.41535  0.92189  0.94265  1.0000 0.7753396223
H   H1        1.0  0.77570  0.40470  0.41300  1.0000 0.1018123467
H   H2        1.0  0.40470  0.41300  0.77570  1.0000 0.1018123467
H   H3        1.0  0.41300  0.77570  0.40470  1.0000 0.1018123467
H   H4        1.0  0.22430  0.59530  0.58700  1.0000 0.1018123467
H   H5        1.0  0.59530  0.58700  0.22430  1.0000 0.1018123467
H   H6        1.0  0.58700  0.22430  0.59530  1.0000 0.1018123467
H   H7        1.0  0.92350  0.59440  0.44750  1.0000 0.1093611548
H   H8        1.0  0.59440  0.44750  0.92350  1.0000 0.1093611548
H   H9        1.0  0.44750  0.92350  0.59440  1.0000 0.1093611548
H   H10       1.0  0.07650  0.40560  0.55250  1.0000 0.1093611548
H   H11       1.0  0.40560  0.55250  0.07650  1.0000 0.1093611548
H   H12       1.0  0.55250  0.07650  0.40560  1.0000 0.1093611548
H   H13       1.0  0.71830  0.52680  0.40290  1.0000 0.1093611548
H   H14       1.0  0.52680  0.40290  0.71830  1.0000 0.1093611548
H   H15       1.0  0.40290  0.71830  0.52680  1.0000 0.1093611548
H   H16       1.0  0.28170  0.47320  0.59710  1.0000 0.1093611548
H   H17       1.0  0.47320  0.59710  0.28170  1.0000 0.1093611548
H   H18       1.0  0.59710  0.28170  0.47320  1.0000 0.1093611548
H   H19       1.0  0.98820  0.74010  0.54580  1.0000 0.1182166554
H   H20       1.0  0.74010  0.54580  0.98820  1.0000 0.1182166554
H   H21       1.0  0.54580  0.98820  0.74010  1.0000 0.1182166554
H   H22       1.0  0.01180  0.25990  0.45420  1.0000 0.1182166554
H   H23       1.0  0.25990  0.45420  0.01180  1.0000 0.1182166554
H   H24       1.0  0.45420  0.01180  0.25990  1.0000 0.1182166554
H   H25       1.0  0.03360  0.86220  0.57270  1.0000 0.1182166554
H   H26       1.0  0.86220  0.57270  0.03360  1.0000 0.1182166554
H   H27       1.0  0.57270  0.03360  0.86220  1.0000 0.1182166554
H   H28       1.0  0.96640  0.13780  0.42730  1.0000 0.1182166554
H   H29       1.0  0.13780  0.42730  0.96640  1.0000 0.1182166554
H   H30       1.0  0.42730  0.96640  0.13780  1.0000 0.1182166554
H   H31       1.0  0.77160  0.70520  0.36260  1.0000 0.1307596421
H   H32       1.0  0.70520  0.36260  0.77160  1.0000 0.1307596421
H   H33       1.0  0.36260  0.77160  0.70520  1.0000 0.1307596421
H   H34       1.0  0.22840  0.29480  0.63740  1.0000 0.1307596421
H   H35       1.0  0.29480  0.63740  0.22840  1.0000 0.1307596421
H   H36       1.0  0.63740  0.22840  0.29480  1.0000 0.1307596421
H   H37       1.0  0.72680  0.58880  0.34530  1.0000 0.1182166554
H   H38       1.0  0.58880  0.34530  0.72680  1.0000 0.1182166554
H   H39       1.0  0.34530  0.72680  0.58880  1.0000 0.1182166554
H   H40       1.0  0.27320  0.41120  0.65470  1.0000 0.1182166554
H   H41       1.0  0.41120  0.65470  0.27320  1.0000 0.1182166554
H   H42       1.0  0.65470  0.27320  0.41120  1.0000 0.1182166554
H   H43       1.0  0.75570  0.26050  0.25800  1.0000 0.1093611548
H   H44       1.0  0.26050  0.25800  0.75570  1.0000 0.1093611548
H   H45       1.0  0.25800  0.75570  0.26050  1.0000 0.1093611548
H   H46       1.0  0.24430  0.73950  0.74200  1.0000 0.1093611548
H   H47       1.0  0.73950  0.74200  0.24430  1.0000 0.1093611548
H   H48       1.0  0.74200  0.24430  0.73950  1.0000 0.1093611548
H   H49       1.0  0.92760  0.44750  0.30080  1.0000 0.1093611548
H   H50       1.0  0.44750  0.30080  0.92760  1.0000 0.1093611548
H   H51       1.0  0.30080  0.92760  0.44750  1.0000 0.1093611548
H   H52       1.0  0.07240  0.55250  0.69920  1.0000 0.1093611548
H   H53       1.0  0.55250  0.69920  0.07240  1.0000 0.1093611548
H   H54       1.0  0.69920  0.07240  0.55250  1.0000 0.1093611548
H   H55       1.0  0.70600  0.19050  0.05310  1.0000 0.1093611548
H   H56       1.0  0.19050  0.05310  0.70600  1.0000 0.1093611548
H   H57       1.0  0.05310  0.70600  0.19050  1.0000 0.1093611548
H   H58       1.0  0.29400  0.80950  0.94690  1.0000 0.1093611548
H   H59       1.0  0.80950  0.94690  0.29400  1.0000 0.1093611548
H   H60       1.0  0.94690  0.29400  0.80950  1.0000 0.1093611548
H   H61       1.0  0.90000  0.47220  0.21370  1.0000 0.1182166554
H   H62       1.0  0.47220  0.21370  0.90000  1.0000 0.1182166554
H   H63       1.0  0.21370  0.90000  0.47220  1.0000 0.1182166554
H   H64       1.0  0.10000  0.52780  0.78630  1.0000 0.1182166554
H   H65       1.0  0.52780  0.78630  0.10000  1.0000 0.1182166554
H   H66       1.0  0.78630  0.10000  0.52780  1.0000 0.1182166554
H   H67       1.0  0.95050  0.51700  0.16490  1.0000 0.1307596421
H   H68       1.0  0.51700  0.16490  0.95050  1.0000 0.1307596421
H   H69       1.0  0.16490  0.95050  0.51700  1.0000 0.1307596421
H   H70       1.0  0.04950  0.48300  0.83510  1.0000 0.1307596421
H   H71       1.0  0.48300  0.83510  0.04950  1.0000 0.1307596421
H   H72       1.0  0.83510  0.04950  0.48300  1.0000 0.1307596421
H   H73       1.0  0.86210  0.28220  0.99700  1.0000 0.1307596421
H   H74       1.0  0.28220  0.99700  0.86210  1.0000 0.1307596421
H   H75       1.0  0.99700  0.86210  0.28220  1.0000 0.1307596421
H   H76       1.0  0.13790  0.71780  0.00300  1.0000 0.1307596421
H   H77       1.0  0.71780  0.00300  0.13790  1.0000 0.1307596421
H   H78       1.0  0.00300  0.13790  0.71780  1.0000 0.1307596421
H   H79       1.0  0.81500  0.23900  0.04890  1.0000 0.1182166554
H   H80       1.0  0.23900  0.04890  0.81500  1.0000 0.1182166554
H   H81       1.0  0.04890  0.81500  0.23900  1.0000 0.1182166554
H   H82       1.0  0.18500  0.76100  0.95110  1.0000 0.1182166554
H   H83       1.0  0.76100  0.95110  0.18500  1.0000 0.1182166554
H   H84       1.0  0.95110  0.18500  0.76100  1.0000 0.1182166554
C   C1        1.0  0.78792  0.44818  0.41550  1.0000 0.1912686516
C   C2        1.0  0.44818  0.41550  0.78792  1.0000 0.1912686516
C   C3        1.0  0.41550  0.78792  0.44818  1.0000 0.1912686516
C   C4        1.0  0.21208  0.55182  0.58450  1.0000 0.1912686516
C   C5        1.0  0.55182  0.58450  0.21208  1.0000 0.1912686516
C   C6        1.0  0.58450  0.21208  0.55182  1.0000 0.1912686516
C   C7        1.0  0.87585  0.55977  0.43768  1.0000 0.0443998677
C   C8        1.0  0.55977  0.43768  0.87585  1.0000 0.0443998677
C   C9        1.0  0.43768  0.87585  0.55977  1.0000 0.0443998677
C   C10       1.0  0.12415  0.44023  0.56232  1.0000 0.0443998677
C   C11       1.0  0.44023  0.56232  0.12415  1.0000 0.0443998677
C   C12       1.0  0.56232  0.12415  0.44023  1.0000 0.0443998677
C   C13       1.0  0.82870  0.57790  0.43190  1.0000 -0.0191413828
C   C14       1.0  0.57790  0.43190  0.82870  1.0000 -0.0191413828
C   C15       1.0  0.43190  0.82870  0.57790  1.0000 -0.0191413828
C   C16       1.0  0.17130  0.42210  0.56810  1.0000 -0.0191413828
C   C17       1.0  0.42210  0.56810  0.17130  1.0000 -0.0191413828
C   C18       1.0  0.56810  0.17130  0.42210  1.0000 -0.0191413828
C   C19       1.0  0.75493  0.51987  0.41160  1.0000 0.0711621219
C   C20       1.0  0.51987  0.41160  0.75493  1.0000 0.0711621219
C   C21       1.0  0.41160  0.75493  0.51987  1.0000 0.0711621219
C   C22       1.0  0.24507  0.48013  0.58840  1.0000 0.0711621219
C   C23       1.0  0.48013  0.58840  0.24507  1.0000 0.0711621219
C   C24       1.0  0.58840  0.24507  0.48013  1.0000 0.0711621219
C   C25       1.0  0.85360  0.65205  0.44355  1.0000 0.0783157989
C   C26       1.0  0.65205  0.44355  0.85360  1.0000 0.0783157989
C   C27       1.0  0.44355  0.85360  0.65205  1.0000 0.0783157989
C   C28       1.0  0.14640  0.34795  0.55645  1.0000 0.0783157989
C   C29       1.0  0.34795  0.55645  0.14640  1.0000 0.0711621219
C   C30       1.0  0.55645  0.14640  0.34795  1.0000 0.0783157989
C   C31       1.0  0.94409  0.73351  0.51010  1.0000 -0.1429430033
C   C32       1.0  0.73351  0.51010  0.94409  1.0000 -0.1429430033
C   C33       1.0  0.51010  0.94409  0.73351  1.0000 -0.1429430033
C   C34       1.0  0.05591  0.26649  0.48990  1.0000 -0.1429430033
C   C35       1.0  0.26649  0.48990  0.05591  1.0000 -0.1429430033
C   C36       1.0  0.48990  0.05591  0.26649  1.0000 -0.1429430033
C   C37       1.0  0.97181  0.80669  0.52560  1.0000 -0.1096632044
C   C38       1.0  0.80669  0.52560  0.97181  1.0000 -0.1096632044
C   C39       1.0  0.52560  0.97181  0.80669  1.0000 -0.1096632044
C   C40       1.0  0.02819  0.19331  0.47440  1.0000 -0.1096632044
C   C41       1.0  0.19331  0.47440  0.02819  1.0000 -0.1096632044
C   C42       1.0  0.47440  0.02819  0.19331  1.0000 -0.1096632044
C   C43       1.0  0.90675  0.79595  0.47030  1.0000 -0.0191413828
C   C44       1.0  0.79595  0.47030  0.90675  1.0000 -0.0191413828
C   C45       1.0  0.47030  0.90675  0.79595  1.0000 -0.0191413828
C   C46       1.0  0.09325  0.20405  0.52970  1.0000 -0.0191413828
C   C47       1.0  0.20405  0.52970  0.09325  1.0000 -0.0191413828
C   C48       1.0  0.52970  0.09325  0.20405  1.0000 -0.0191413828
C   C49       1.0  0.81566  0.71344  0.40150  1.0000 -0.0961585403
C   C50       1.0  0.71344  0.40150  0.81566  1.0000 -0.0961585403
C   C51       1.0  0.40150  0.81566  0.71344  1.0000 -0.0961585403
C   C52       1.0  0.18434  0.28656  0.59850  1.0000 -0.0961585403
C   C53       1.0  0.28656  0.59850  0.18434  1.0000 -0.0961585403
C   C54       1.0  0.59850  0.18434  0.28656  1.0000 -0.0961585403
C   C55       1.0  0.78860  0.64270  0.38950  1.0000 -0.151087864
C   C56       1.0  0.64270  0.38950  0.78860  1.0000 -0.151087864
C   C57       1.0  0.38950  0.78860  0.64270  1.0000 -0.151087864
C   C58       1.0  0.21140  0.35730  0.61050  1.0000 -0.151087864
C   C59       1.0  0.35730  0.61050  0.21140  1.0000 -0.151087864
C   C60       1.0  0.61050  0.21140  0.35730  1.0000 -0.151087864
C   C61       1.0  0.93660  0.87250  0.48210  1.0000 0.5700468559
C   C62       1.0  0.87250  0.48210  0.93660  1.0000 0.5700468559
C   C63       1.0  0.48210  0.93660  0.87250  1.0000 0.5700468559
C   C64       1.0  0.06340  0.12750  0.51790  1.0000 0.5700468559
C   C65       1.0  0.12750  0.51790  0.06340  1.0000 0.5700468559
C   C66       1.0  0.51790  0.06340  0.12750  1.0000 0.5700468559
C   C67       1.0  0.77276  0.27716  0.23568  1.0000 0.2316655804
C   C68       1.0  0.27716  0.23568  0.77276  1.0000 0.2316655804
C   C69       1.0  0.23568  0.77276  0.27716  1.0000 0.2316655804
C   C70       1.0  0.22724  0.72284  0.76432  1.0000 0.2316655804
C   C71       1.0  0.72284  0.76432  0.22724  1.0000 0.2316655804
C   C72       1.0  0.76432  0.22724  0.72284  1.0000 0.2316655804
C   C73       1.0  0.87434  0.38706  0.26150  1.0000 0.0711621219
C   C74       1.0  0.38706  0.26150  0.87434  1.0000 0.0711621219
C   C75       1.0  0.26150  0.87434  0.38706  1.0000 0.0711621219
C   C76       1.0  0.12566  0.61294  0.73850  1.0000 0.0711621219
C   C77       1.0  0.61294  0.73850  0.12566  1.0000 0.0711621219
C   C78       1.0  0.73850  0.12566  0.61294  1.0000 0.0711621219
C   C79       1.0  0.82306  0.32340  0.17034  1.0000 -0.0191413828
C   C80       1.0  0.32340  0.17034  0.82306  1.0000 -0.0191413828
C   C81       1.0  0.17034  0.82306  0.32340  1.0000 -0.0191413828
C   C82       1.0  0.17694  0.67660  0.82966  1.0000 -0.0191413828
C   C83       1.0  0.67660  0.82966  0.17694  1.0000 -0.0191413828
C   C84       1.0  0.82966  0.17694  0.67660  1.0000 -0.0191413828
C   C85       1.0  0.74371  0.23556  0.11523  1.0000 0.0579636769
C   C86       1.0  0.23556  0.11523  0.74371  1.0000 0.0579636769
C   C87       1.0  0.11523  0.74371  0.23556  1.0000 0.0579636769
C   C88       1.0  0.25629  0.76444  0.88477  1.0000 0.0579636769
C   C89       1.0  0.76444  0.88477  0.25629  1.0000 0.0579636769
C   C90       1.0  0.88477  0.25629  0.76444  1.0000 0.0579636769
C   C91       1.0  0.85367  0.35078  0.13725  1.0000 0.0783157989
C   C92       1.0  0.35078  0.13725  0.85367  1.0000 0.0783157989
C   C93       1.0  0.13725  0.85367  0.35078  1.0000 0.0783157989
C   C94       1.0  0.14633  0.64922  0.86275  1.0000 0.0783157989
C   C95       1.0  0.64922  0.86275  0.14633  1.0000 0.0783157989
C   C96       1.0  0.86275  0.14633  0.64922  1.0000 0.0783157989
C   C97       1.0  0.89349  0.43435  0.17106  1.0000 -0.151087864
C   C98       1.0  0.43435  0.17106  0.89349  1.0000 -0.151087864
C   C99       1.0  0.17106  0.89349  0.43435  1.0000 -0.151087864
C   C100      1.0  0.10651  0.56565  0.82894  1.0000 -0.151087864
C   C101      1.0  0.56565  0.82894  0.10651  1.0000 -0.151087864
C   C102      1.0  0.82894  0.10651  0.56565  1.0000 -0.151087864
C   C103      1.0  0.92332  0.46087  0.14141  1.0000 -0.0937516706
C   C104      1.0  0.46087  0.14141  0.92332  1.0000 -0.0937516706
C   C105      1.0  0.14141  0.92332  0.46087  1.0000 -0.0937516706
C   C106      1.0  0.07668  0.53913  0.85859  1.0000 -0.0937516706
C   C107      1.0  0.53913  0.85859  0.07668  1.0000 -0.0937516706
C   C108      1.0  0.85859  0.07668  0.53913  1.0000 -0.0937516706
C   C109      1.0  0.91398  0.40623  0.07789  1.0000 -0.0255310136
C   C110      1.0  0.40623  0.07789  0.91398  1.0000 -0.0255310136
C   C111      1.0  0.07789  0.91398  0.40623  1.0000 -0.0255310136
C   C112      1.0  0.08602  0.59377  0.92211  1.0000 -0.0255310136
C   C113      1.0  0.59377  0.92211  0.08602  1.0000 -0.0255310136
C   C114      1.0  0.92211  0.08602  0.59377  1.0000 -0.0255310136
C   C115      1.0  0.87122  0.32134  0.04174  1.0000 -0.0937516706
C   C116      1.0  0.32134  0.04174  0.87122  1.0000 -0.0937516706
C   C117      1.0  0.04174  0.87122  0.32134  1.0000 -0.0937516706
C   C118      1.0  0.12878  0.67866  0.95826  1.0000 -0.0937516706
C   C119      1.0  0.67866  0.95826  0.12878  1.0000 -0.0937516706
C   C120      1.0  0.95826  0.12878  0.67866  1.0000 -0.0937516706
C   C121      1.0  0.84246  0.29524  0.07260  1.0000 -0.1560311418
C   C122      1.0  0.29524  0.07260  0.84246  1.0000 -0.1560311418
C   C123      1.0  0.07260  0.84246  0.29524  1.0000 -0.1560311418
C   C124      1.0  0.15754  0.70476  0.92740  1.0000 -0.1560311418
C   C125      1.0  0.70476  0.92740  0.15754  1.0000 -0.1560311418
C   C126      1.0  0.92740  0.15754  0.70476  1.0000 -0.151087864
C   C127      1.0  0.94775  0.43770  0.04775  1.0000 0.5700468559
C   C128      1.0  0.43770  0.04775  0.94775  1.0000 0.5700468559
C   C129      1.0  0.04775  0.94775  0.43770  1.0000 0.5700468559
C   C130      1.0  0.05225  0.56230  0.95225  1.0000 0.5700468559
C   C131      1.0  0.56230  0.95225  0.05225  1.0000 0.5700468559
C   C132      1.0  0.95225  0.05225  0.56230  1.0000 0.5700468559
I   I1        1.0  0.91499  0.38754  0.48146  1.0000 -0.4761251817
I   I2        1.0  0.38754  0.48146  0.91499  1.0000 -0.4761251817
I   I3        1.0  0.48146  0.91499  0.38754  1.0000 -0.4761251817
I   I4        1.0  0.08501  0.61246  0.51854  1.0000 -0.4761251817
I   I5        1.0  0.61246  0.51854  0.08501  1.0000 -0.4761251817
I   I6        1.0  0.51854  0.08501  0.61246  1.0000 -0.4761251817
N   N1        1.0  0.85672  0.49419  0.42999  1.0000 -0.2204783196
N   N2        1.0  0.49419  0.42999  0.85672  1.0000 -0.2204783196
N   N3        1.0  0.42999  0.85672  0.49419  1.0000 -0.2204783196
N   N4        1.0  0.14328  0.50581  0.57001  1.0000 -0.2204783196
N   N5        1.0  0.50581  0.57001  0.14328  1.0000 -0.2204783196
N   N6        1.0  0.57001  0.14328  0.50581  1.0000 -0.2204783196
N   N7        1.0  0.73434  0.45499  0.40407  1.0000 -0.2978331556
N   N8        1.0  0.45499  0.40407  0.73434  1.0000 -0.2978331556
N   N9        1.0  0.40407  0.73434  0.45499  1.0000 -0.2978331556
N   N10       1.0  0.26566  0.54501  0.59593  1.0000 -0.2978331556
N   N11       1.0  0.54501  0.59593  0.26566  1.0000 -0.2978331556
N   N12       1.0  0.59593  0.26566  0.54501  1.0000 -0.2978331556
N   N13       1.0  0.85102  0.36574  0.29594  1.0000 -0.2017110175
N   N14       1.0  0.36574  0.29594  0.85102  1.0000 -0.2017110175
N   N15       1.0  0.29594  0.85102  0.36574  1.0000 -0.2017110175
N   N16       1.0  0.14898  0.63426  0.70406  1.0000 -0.2017110175
N   N17       1.0  0.63426  0.70406  0.14898  1.0000 -0.2017110175
N   N18       1.0  0.70406  0.14898  0.63426  1.0000 -0.2017110175
N   N19       1.0  0.71890  0.21263  0.14767  1.0000 -0.2587943981
N   N20       1.0  0.21263  0.14767  0.71890  1.0000 -0.2587943981
N   N21       1.0  0.14767  0.71890  0.21263  1.0000 -0.2587943981
N   N22       1.0  0.28110  0.78737  0.85233  1.0000 -0.2587943981
N   N23       1.0  0.78737  0.85233  0.28110  1.0000 -0.2587943981
N   N24       1.0  0.85233  0.28110  0.78737  1.0000 -0.2587943981
O   O1        1.0  0.01631  0.95143  0.55956  1.0000 -0.5164132725
O   O2        1.0  0.95143  0.55956  0.01631  1.0000 -0.5164132725
O   O3        1.0  0.55956  0.01631  0.95143  1.0000 -0.5164132725
O   O4        1.0  0.98369  0.04857  0.44044  1.0000 -0.5164132725
O   O5        1.0  0.04857  0.44044  0.98369  1.0000 -0.5164132725
O   O6        1.0  0.44044  0.98369  0.04857  1.0000 -0.5164132725
O   O7        1.0  0.88206  0.85236  0.41488  1.0000 -0.5031766256
O   O8        1.0  0.85236  0.41488  0.88206  1.0000 -0.5031766256
O   O9        1.0  0.41488  0.88206  0.85236  1.0000 -0.5031766256
O   O10       1.0  0.11794  0.14764  0.58512  1.0000 -0.5031766256
O   O11       1.0  0.14764  0.58512  0.11794  1.0000 -0.5031766256
O   O12       1.0  0.58512  0.11794  0.14764  1.0000 -0.5031766256
O   O13       1.0  0.00822  0.52187  0.10171  1.0000 -0.514177691
O   O14       1.0  0.52187  0.10171  0.00822  1.0000 -0.514177691
O   O15       1.0  0.10171  0.00822  0.52187  1.0000 -0.514177691
O   O16       1.0  0.99178  0.47813  0.89829  1.0000 -0.514177691
O   O17       1.0  0.47813  0.89829  0.99178  1.0000 -0.514177691
O   O18       1.0  0.89829  0.99178  0.47813  1.0000 -0.514177691
O   O19       1.0  0.91115  0.37753  0.96992  1.0000 -0.5031766256
O   O20       1.0  0.37753  0.96992  0.91115  1.0000 -0.5031766256
O   O21       1.0  0.96992  0.91115  0.37753  1.0000 -0.5031766256
O   O22       1.0  0.08885  0.62247  0.03008  1.0000 -0.5031766256
O   O23       1.0  0.62247  0.03008  0.08885  1.0000 -0.5031766256
O   O24       1.0  0.03008  0.08885  0.62247  1.0000 -0.5031766256
