# DDEC6 charges by PACMAN v1.1 (https://github.com/mtap-research/PACMAN-charge/)
data_2015[Mn][dia]3[ASR]1
_chemical_formula_sum              "Mn12 H40 C32 O48"
_cell_length_a       11.7463
_cell_length_b       10.957
_cell_length_c       19.4136
_cell_angle_alpha    90
_cell_angle_beta     125.452
_cell_angle_gamma    90

_symmetry_space_group_name_H-M    "P 1"
_symmetry_Int_Tables_number       1

loop_
  _symmetry_equiv_pos_as_xyz
  'x, y, z'

loop_
  _atom_site_type_symbol
  _atom_site_label
  _atom_site_symmetry_multiplicity
  _atom_site_fract_x
  _atom_site_fract_y
  _atom_site_fract_z
  _atom_site_occupancy
  _atom_site_charge
Mn  Mn1       1.0  0.00000  0.00000  0.00000  1.0000 0.9888816684
Mn  Mn2       1.0  0.00000  0.50000  0.50000  1.0000 0.9888816684
Mn  Mn3       1.0  0.12413  0.04236  0.86486  1.0000 0.9835555364
Mn  Mn4       1.0  0.87587  0.54236  0.63514  1.0000 0.9888816684
Mn  Mn5       1.0  0.87587  0.95764  0.13514  1.0000 0.9835555364
Mn  Mn6       1.0  0.12413  0.45764  0.36486  1.0000 0.9835555364
Mn  Mn7       1.0  0.95395  0.82833  0.71413  1.0000 1.0120419074
Mn  Mn8       1.0  0.04605  0.32833  0.78587  1.0000 1.0120419074
Mn  Mn9       1.0  0.04605  0.17167  0.28587  1.0000 1.0120419074
Mn  Mn10      1.0  0.95395  0.67167  0.21413  1.0000 1.0120419074
Mn  Mn11      1.0  0.50000  0.00000  0.00000  1.0000 1.0120419074
Mn  Mn12      1.0  0.50000  0.50000  0.50000  1.0000 1.0120419074
H   H1        1.0  0.73840  0.91330  0.75720  1.0000 0.0921688685
H   H2        1.0  0.26160  0.41330  0.74280  1.0000 0.0921688685
H   H3        1.0  0.26160  0.08670  0.24280  1.0000 0.0921688685
H   H4        1.0  0.73840  0.58670  0.25720  1.0000 0.0921688685
H   H5        1.0  0.96640  0.33130  0.91300  1.0000 0.1096404725
H   H6        1.0  0.03360  0.83130  0.58700  1.0000 0.1096404725
H   H7        1.0  0.03360  0.66870  0.08700  1.0000 0.1096404725
H   H8        1.0  0.96640  0.16870  0.41300  1.0000 0.1096404725
H   H9        1.0  0.87910  0.13390  0.54540  1.0000 0.1516775241
H   H10       1.0  0.12090  0.63390  0.95460  1.0000 0.1516775241
H   H11       1.0  0.12090  0.86610  0.45460  1.0000 0.1516775241
H   H12       1.0  0.87910  0.36610  0.04540  1.0000 0.1516775241
H   H13       1.0  0.92190  0.25200  0.60410  1.0000 0.1516775241
H   H14       1.0  0.07810  0.75200  0.89590  1.0000 0.1516775241
H   H15       1.0  0.07810  0.74800  0.39590  1.0000 0.1516775241
H   H16       1.0  0.92190  0.24800  0.10410  1.0000 0.1604961246
H   H17       1.0  0.03680  0.18260  0.59910  1.0000 0.1604961246
H   H18       1.0  0.96320  0.68260  0.90090  1.0000 0.1604961246
H   H19       1.0  0.96320  0.81740  0.40090  1.0000 0.1604961246
H   H20       1.0  0.03680  0.31740  0.09910  1.0000 0.1604961246
H   H21       1.0  0.28010  0.87730  0.08200  1.0000 0.0979042807
H   H22       1.0  0.71990  0.37730  0.41800  1.0000 0.0979042807
H   H23       1.0  0.71990  0.12270  0.91800  1.0000 0.0979042807
H   H24       1.0  0.28010  0.62270  0.58200  1.0000 0.0979042807
H   H25       1.0  0.44880  0.26030  0.94800  1.0000 0.0979042807
H   H26       1.0  0.55120  0.76030  0.55200  1.0000 0.0979042807
H   H27       1.0  0.55120  0.73970  0.05200  1.0000 0.0979042807
H   H28       1.0  0.44880  0.23970  0.44800  1.0000 0.0979042807
H   H29       1.0  0.30970  0.72090  0.76740  1.0000 0.1604961246
H   H30       1.0  0.69030  0.22090  0.73260  1.0000 0.1604961246
H   H31       1.0  0.69030  0.27910  0.23260  1.0000 0.1604961246
H   H32       1.0  0.30970  0.77910  0.26740  1.0000 0.1604961246
H   H33       1.0  0.36120  0.65540  0.85470  1.0000 0.1604961246
H   H34       1.0  0.63880  0.15540  0.64530  1.0000 0.1604961246
H   H35       1.0  0.63880  0.34460  0.14530  1.0000 0.1604961246
H   H36       1.0  0.36120  0.84460  0.35470  1.0000 0.1604961246
H   H37       1.0  0.19760  0.66860  0.78170  1.0000 0.1516775241
H   H38       1.0  0.80240  0.16860  0.71830  1.0000 0.1516775241
H   H39       1.0  0.80240  0.33140  0.21830  1.0000 0.1516775241
H   H40       1.0  0.19760  0.83140  0.28170  1.0000 0.1516775241
C   C1        1.0  0.82720  0.93850  0.80500  1.0000 0.4913672814
C   C2        1.0  0.17280  0.43850  0.69500  1.0000 0.4819392699
C   C3        1.0  0.17280  0.06150  0.19500  1.0000 0.4819392699
C   C4        1.0  0.82720  0.56150  0.30500  1.0000 0.4819392699
C   C5        1.0  0.99440  0.24840  0.91910  1.0000 0.4819392699
C   C6        1.0  0.00560  0.74840  0.58090  1.0000 0.4819392699
C   C7        1.0  0.00560  0.75160  0.08090  1.0000 0.4819392699
C   C8        1.0  0.99440  0.25160  0.41910  1.0000 0.4819392699
C   C9        1.0  0.98760  0.09420  0.66970  1.0000 0.7030456224
C   C10       1.0  0.01240  0.59420  0.83030  1.0000 0.7030456224
C   C11       1.0  0.01240  0.90580  0.33030  1.0000 0.7030456224
C   C12       1.0  0.98760  0.40580  0.16970  1.0000 0.7030456224
C   C13       1.0  0.95350  0.17220  0.59870  1.0000 -0.6307236543
C   C14       1.0  0.04650  0.67220  0.90130  1.0000 -0.6307236543
C   C15       1.0  0.04650  0.82780  0.40130  1.0000 -0.6307236543
C   C16       1.0  0.95350  0.32780  0.09870  1.0000 -0.6307236543
C   C17       1.0  0.28160  0.91920  0.03970  1.0000 0.4913672814
C   C18       1.0  0.71840  0.41920  0.46030  1.0000 0.4913672814
C   C19       1.0  0.71840  0.08080  0.96030  1.0000 0.4913672814
C   C20       1.0  0.28160  0.58080  0.53970  1.0000 0.4913672814
C   C21       1.0  0.35290  0.23830  0.91570  1.0000 0.4991175393
C   C22       1.0  0.64710  0.73830  0.58430  1.0000 0.4991175393
C   C23       1.0  0.64710  0.76170  0.08430  1.0000 0.4991175393
C   C24       1.0  0.35290  0.26170  0.41570  1.0000 0.4991175393
C   C25       1.0  0.28760  0.82800  0.84510  1.0000 0.7099450836
C   C26       1.0  0.71240  0.32800  0.65490  1.0000 0.7099450836
C   C27       1.0  0.71240  0.17200  0.15490  1.0000 0.7099450836
C   C28       1.0  0.28760  0.67200  0.34510  1.0000 0.7099450836
C   C29       1.0  0.28910  0.70790  0.80910  1.0000 -0.6175136781
C   C30       1.0  0.71090  0.20790  0.69090  1.0000 -0.6175136781
C   C31       1.0  0.71090  0.29210  0.19090  1.0000 -0.6175136781
C   C32       1.0  0.28910  0.79210  0.30910  1.0000 -0.6175136781
O   O1        1.0  0.83397  0.96700  0.86777  1.0000 -0.4862286812
O   O2        1.0  0.16603  0.46700  0.63223  1.0000 -0.4862286812
O   O3        1.0  0.16603  0.03300  0.13223  1.0000 -0.4862286812
O   O4        1.0  0.83397  0.53300  0.36777  1.0000 -0.4862286812
O   O5        1.0  0.92698  0.93916  0.79713  1.0000 -0.5394875398
O   O6        1.0  0.07302  0.43916  0.70287  1.0000 -0.5394875398
O   O7        1.0  0.07302  0.06084  0.20287  1.0000 -0.5394875398
O   O8        1.0  0.92698  0.56084  0.29713  1.0000 -0.5394875398
O   O9        1.0  0.99277  0.18890  0.97147  1.0000 -0.477644193
O   O10       1.0  0.00723  0.68890  0.52853  1.0000 -0.477644193
O   O11       1.0  0.00723  0.81110  0.02853  1.0000 -0.477644193
O   O12       1.0  0.99277  0.31110  0.47147  1.0000 -0.477644193
O   O13       1.0  0.02936  0.21211  0.87196  1.0000 -0.5394875398
O   O14       1.0  0.97064  0.71211  0.62804  1.0000 -0.5394875398
O   O15       1.0  0.97064  0.78789  0.12804  1.0000 -0.5394875398
O   O16       1.0  0.02936  0.28789  0.37196  1.0000 -0.5394875398
O   O17       1.0  0.04283  0.14129  0.74289  1.0000 -0.6132515064
O   O18       1.0  0.95717  0.64129  0.75711  1.0000 -0.6132515064
O   O19       1.0  0.95717  0.85871  0.25711  1.0000 -0.6132515064
O   O20       1.0  0.04283  0.35871  0.24289  1.0000 -0.6132515064
O   O21       1.0  0.96240  0.98500  0.65360  1.0000 -0.5737940319
O   O22       1.0  0.03760  0.48500  0.84640  1.0000 -0.5737940319
O   O23       1.0  0.03760  0.01500  0.34640  1.0000 -0.5737940319
O   O24       1.0  0.96240  0.51500  0.15360  1.0000 -0.5750166169
O   O25       1.0  0.17006  0.97180  0.98258  1.0000 -0.5238471469
O   O26       1.0  0.82994  0.47180  0.51742  1.0000 -0.5238471469
O   O27       1.0  0.82994  0.02820  0.01742  1.0000 -0.5238471469
O   O28       1.0  0.17006  0.52820  0.48258  1.0000 -0.5238471469
O   O29       1.0  0.39122  0.91680  0.04602  1.0000 -0.477644193
O   O30       1.0  0.60878  0.41680  0.45398  1.0000 -0.477644193
O   O31       1.0  0.60878  0.08320  0.95398  1.0000 -0.477644193
O   O32       1.0  0.39122  0.58320  0.54602  1.0000 -0.477644193
O   O33       1.0  0.32558  0.12947  0.92210  1.0000 -0.5339125683
O   O34       1.0  0.67442  0.62947  0.57790  1.0000 -0.5339125683
O   O35       1.0  0.67442  0.87053  0.07790  1.0000 -0.5339125683
O   O36       1.0  0.32558  0.37053  0.42210  1.0000 -0.5339125683
O   O37       1.0  0.26827  0.31900  0.87197  1.0000 -0.4982972434
O   O38       1.0  0.73173  0.81900  0.62803  1.0000 -0.4982972434
O   O39       1.0  0.73173  0.68100  0.12803  1.0000 -0.4982972434
O   O40       1.0  0.26827  0.18100  0.37197  1.0000 -0.4982972434
O   O41       1.0  0.17132  0.87520  0.82149  1.0000 -0.6175136781
O   O42       1.0  0.82868  0.37520  0.67851  1.0000 -0.6175136781
O   O43       1.0  0.82868  0.12480  0.17851  1.0000 -0.6175136781
O   O44       1.0  0.17132  0.62480  0.32149  1.0000 -0.6175136781
O   O45       1.0  0.40279  0.87230  0.89849  1.0000 -0.5737940319
O   O46       1.0  0.59721  0.37230  0.60151  1.0000 -0.5737940319
O   O47       1.0  0.59721  0.12770  0.10151  1.0000 -0.5737940319
O   O48       1.0  0.40279  0.62770  0.39849  1.0000 -0.5737940319
