# DDEC6 charges by PACMAN v1.1 (https://github.com/mtap-research/PACMAN-charge/)
data_2015[Co][sxb]3[ASR]1
_chemical_formula_sum              "Co6 H80 C136 N8 O24"
_cell_length_a       15.8311
_cell_length_b       15.8311
_cell_length_c       16.7929
_cell_angle_alpha    68.2095
_cell_angle_beta     111.79
_cell_angle_gamma    110.012

_symmetry_space_group_name_H-M    "P 1"
_symmetry_Int_Tables_number       1

loop_
  _symmetry_equiv_pos_as_xyz
  'x, y, z'

loop_
  _atom_site_type_symbol
  _atom_site_label
  _atom_site_symmetry_multiplicity
  _atom_site_fract_x
  _atom_site_fract_y
  _atom_site_fract_z
  _atom_site_occupancy
  _atom_site_charge
Co  Co1       1.0  0.90827  0.64927  0.48663  1.0000 0.8301838481
Co  Co2       1.0  0.35073  0.09173  0.98663  1.0000 0.8301838481
Co  Co3       1.0  0.93529  0.52815  0.70443  1.0000 1.0976901495
Co  Co4       1.0  0.47185  0.06471  0.20443  1.0000 1.0976901495
Co  Co5       1.0  0.97620  0.39992  0.93104  1.0000 0.8489199721
Co  Co6       1.0  0.60008  0.02380  0.43104  1.0000 0.8489199721
H   H1        1.0  0.14410  0.87310  0.51540  1.0000 0.119823156
H   H2        1.0  0.12690  0.85590  0.01540  1.0000 0.119823156
H   H3        1.0  0.28650  0.98070  0.54660  1.0000 0.119823156
H   H4        1.0  0.01930  0.71350  0.04660  1.0000 0.119823156
H   H5        1.0  0.31900  0.85380  0.81220  1.0000 0.119823156
H   H6        1.0  0.14620  0.68100  0.31220  1.0000 0.119823156
H   H7        1.0  0.17650  0.74490  0.77940  1.0000 0.1301030516
H   H8        1.0  0.25510  0.82350  0.27940  1.0000 0.1301030516
H   H9        1.0  0.54490  0.20570  0.60520  1.0000 0.119823156
H   H10       1.0  0.79430  0.45510  0.10520  1.0000 0.119823156
H   H11       1.0  0.68680  0.31960  0.63400  1.0000 0.119823156
H   H12       1.0  0.68040  0.31320  0.13400  1.0000 0.119823156
H   H13       1.0  0.76030  0.16030  0.89020  1.0000 0.1102191725
H   H14       1.0  0.83970  0.23970  0.39020  1.0000 0.1102191725
H   H15       1.0  0.61910  0.04950  0.86400  1.0000 0.119823156
H   H16       1.0  0.95050  0.38090  0.36400  1.0000 0.119823156
H   H17       1.0  0.66860  0.74980  0.51210  1.0000 0.1301030516
H   H18       1.0  0.25020  0.33140  0.01210  1.0000 0.1301030516
H   H19       1.0  0.53630  0.71930  0.55620  1.0000 0.119823156
H   H20       1.0  0.28070  0.46370  0.05620  1.0000 0.119823156
H   H21       1.0  0.56760  0.45520  0.69770  1.0000 0.1102191725
H   H22       1.0  0.54480  0.43240  0.19770  1.0000 0.1102191725
H   H23       1.0  0.70330  0.48670  0.65570  1.0000 0.1301030516
H   H24       1.0  0.51330  0.29670  0.15570  1.0000 0.1301030516
H   H25       1.0  0.26230  0.62510  0.65740  1.0000 0.119823156
H   H26       1.0  0.37490  0.73770  0.15740  1.0000 0.119823156
H   H27       1.0  0.15050  0.58470  0.73320  1.0000 0.119823156
H   H28       1.0  0.41530  0.84950  0.23320  1.0000 0.119823156
H   H29       1.0  0.20220  0.32680  0.85590  1.0000 0.1301030516
H   H30       1.0  0.67320  0.79780  0.35590  1.0000 0.1301030516
H   H31       1.0  0.31960  0.36680  0.78440  1.0000 0.119823156
H   H32       1.0  0.63320  0.68040  0.28440  1.0000 0.119823156
H   H33       1.0  0.88980  0.57380  0.00070  1.0000 0.119823156
H   H34       1.0  0.42620  0.11020  0.50070  1.0000 0.119823156
H   H35       1.0  0.83180  0.66740  0.03770  1.0000 0.1102191725
H   H36       1.0  0.33260  0.16820  0.53770  1.0000 0.1102191725
H   H37       1.0  0.69490  0.76070  0.77330  1.0000 0.119823156
H   H38       1.0  0.23930  0.30510  0.27330  1.0000 0.119823156
H   H39       1.0  0.75470  0.66730  0.73950  1.0000 0.119823156
H   H40       1.0  0.33270  0.24530  0.23950  1.0000 0.119823156
H   H41       1.0  0.75710  0.92070  0.07840  1.0000 0.119823156
H   H42       1.0  0.07930  0.24290  0.57840  1.0000 0.119823156
H   H43       1.0  0.67610  0.98030  0.12960  1.0000 0.119823156
H   H44       1.0  0.01970  0.32390  0.62960  1.0000 0.119823156
H   H45       1.0  0.43410  0.88850  0.95510  1.0000 0.119823156
H   H46       1.0  0.11150  0.56590  0.45510  1.0000 0.119823156
H   H47       1.0  0.51360  0.82500  0.90580  1.0000 0.119823156
H   H48       1.0  0.17500  0.48640  0.40580  1.0000 0.119823156
H   H49       1.0  0.12910  0.58670  0.93470  1.0000 0.119823156
H   H50       1.0  0.41330  0.87090  0.43470  1.0000 0.119823156
H   H51       1.0  0.23480  0.66900  0.03770  1.0000 0.1301030516
H   H52       1.0  0.33100  0.76520  0.53770  1.0000 0.1301030516
H   H53       1.0  0.24450  0.59750  0.19090  1.0000 0.119823156
H   H54       1.0  0.40250  0.75550  0.69090  1.0000 0.119823156
H   H55       1.0  0.14680  0.44940  0.23550  1.0000 0.1301030516
H   H56       1.0  0.55060  0.85320  0.73550  1.0000 0.1301030516
H   H57       1.0  0.04630  0.31710  0.26430  1.0000 0.1301030516
H   H58       1.0  0.68290  0.95370  0.76430  1.0000 0.1301030516
H   H59       1.0  0.92600  0.18080  0.28480  1.0000 0.119823156
H   H60       1.0  0.81920  0.07400  0.78480  1.0000 0.119823156
H   H61       1.0  0.82440  0.13000  0.15930  1.0000 0.1388453481
H   H62       1.0  0.87000  0.17560  0.65930  1.0000 0.1388453481
H   H63       1.0  0.84600  0.21540  0.01750  1.0000 0.1102191725
H   H64       1.0  0.78460  0.15400  0.51750  1.0000 0.1102191725
H   H65       1.0  0.79780  0.43620  0.54100  1.0000 0.119823156
H   H66       1.0  0.56380  0.20220  0.04100  1.0000 0.119823156
H   H67       1.0  0.69550  0.32050  0.47170  1.0000 0.1301030516
H   H68       1.0  0.67950  0.30450  0.97170  1.0000 0.1301030516
H   H69       1.0  0.65160  0.35760  0.31660  1.0000 0.119823156
H   H70       1.0  0.64240  0.34840  0.81660  1.0000 0.119823156
H   H71       1.0  0.71310  0.50790  0.23290  1.0000 0.1301030516
H   H72       1.0  0.49210  0.28690  0.73290  1.0000 0.1301030516
H   H73       1.0  0.78140  0.64760  0.16680  1.0000 0.1301030516
H   H74       1.0  0.35240  0.21860  0.66680  1.0000 0.1301030516
H   H75       1.0  0.86220  0.80000  0.10400  1.0000 0.119823156
H   H76       1.0  0.20000  0.13780  0.60400  1.0000 0.119823156
H   H77       1.0  0.97310  0.88950  0.20140  1.0000 0.1388453481
H   H78       1.0  0.11050  0.02690  0.70140  1.0000 0.1388453481
H   H79       1.0  0.99040  0.82800  0.35440  1.0000 0.119823156
H   H80       1.0  0.17200  0.00960  0.85440  1.0000 0.119823156
C   C1        1.0  0.05150  0.73090  0.61920  1.0000 0.5884819918
C   C2        1.0  0.26910  0.94850  0.11920  1.0000 0.5884819918
C   C3        1.0  0.14530  0.79970  0.64220  1.0000 -0.0193190265
C   C4        1.0  0.20030  0.85470  0.14220  1.0000 -0.0193190265
C   C5        1.0  0.17970  0.86890  0.57590  1.0000 -0.1003799842
C   C6        1.0  0.13110  0.82030  0.07590  1.0000 -0.1003799842
C   C7        1.0  0.26460  0.93300  0.59400  1.0000 -0.1493318796
C   C8        1.0  0.06700  0.73540  0.09400  1.0000 -0.1493318796
C   C9        1.0  0.31770  0.92670  0.68260  1.0000 0.1388453481
C   C10       1.0  0.07330  0.68230  0.18260  1.0000 0.1388453481
C   C11       1.0  0.28380  0.85720  0.75180  1.0000 -0.1599354728
C   C12       1.0  0.14280  0.71620  0.25180  1.0000 -0.1599354728
C   C13       1.0  0.19870  0.79290  0.73240  1.0000 -0.1003799842
C   C14       1.0  0.20710  0.80130  0.23240  1.0000 -0.1003799842
C   C15       1.0  0.40650  0.99330  0.70290  1.0000 -0.1189073188
C   C16       1.0  0.00670  0.59350  0.20290  1.0000 -0.1189073188
C   C17       1.0  0.47910  0.04970  0.71680  1.0000 -0.1189073188
C   C18       1.0  0.95030  0.52090  0.21680  1.0000 -0.1189073188
C   C19       1.0  0.56670  0.11710  0.73250  1.0000 0.1301030516
C   C20       1.0  0.88290  0.43330  0.23250  1.0000 0.1301030516
C   C21       1.0  0.58760  0.19720  0.66330  1.0000 -0.1599354728
C   C22       1.0  0.80280  0.41240  0.16330  1.0000 -0.1599354728
C   C23       1.0  0.67270  0.26510  0.68050  1.0000 -0.1189073188
C   C24       1.0  0.73490  0.32730  0.18050  1.0000 -0.1189073188
C   C25       1.0  0.73610  0.25210  0.76620  1.0000 -0.0285112781
C   C26       1.0  0.74790  0.26390  0.26620  1.0000 -0.0285112781
C   C27       1.0  0.71600  0.17060  0.83300  1.0000 -0.1146696986
C   C28       1.0  0.82940  0.28400  0.33300  1.0000 -0.1146696986
C   C29       1.0  0.63230  0.10410  0.81730  1.0000 -0.1493318796
C   C30       1.0  0.89590  0.36770  0.31730  1.0000 -0.1493318796
C   C31       1.0  0.82420  0.32700  0.78570  1.0000 0.5828424537
C   C32       1.0  0.67300  0.17580  0.28570  1.0000 0.5828424537
C   C33       1.0  0.77990  0.63990  0.54700  1.0000 0.5707817319
C   C34       1.0  0.36010  0.22010  0.04700  1.0000 0.5707817319
C   C35       1.0  0.69900  0.62200  0.58000  1.0000 -0.0193190265
C   C36       1.0  0.37800  0.30100  0.08000  1.0000 -0.0193190265
C   C37       1.0  0.64820  0.69020  0.55040  1.0000 -0.0923381782
C   C38       1.0  0.30980  0.35180  0.05040  1.0000 -0.0923381782
C   C39       1.0  0.56950  0.67210  0.57590  1.0000 -0.1493318796
C   C40       1.0  0.32790  0.43050  0.07590  1.0000 -0.1493318796
C   C41       1.0  0.53780  0.58340  0.63150  1.0000 0.1301030516
C   C42       1.0  0.41660  0.46220  0.13150  1.0000 0.1301030516
C   C43       1.0  0.58860  0.51520  0.66030  1.0000 -0.1599354728
C   C44       1.0  0.48480  0.41140  0.16030  1.0000 -0.1599354728
C   C45       1.0  0.66930  0.53350  0.63540  1.0000 -0.0923381782
C   C46       1.0  0.46650  0.33070  0.13540  1.0000 -0.0923381782
C   C47       1.0  0.45310  0.55950  0.65610  1.0000 -0.1003799842
C   C48       1.0  0.44050  0.54690  0.15610  1.0000 -0.1003799842
C   C49       1.0  0.38360  0.53120  0.68020  1.0000 -0.1003799842
C   C50       1.0  0.46880  0.61640  0.18020  1.0000 -0.1003799842
C   C51       1.0  0.30560  0.50300  0.71700  1.0000 0.1301030516
C   C52       1.0  0.49700  0.69440  0.21700  1.0000 0.1301030516
C   C53       1.0  0.25220  0.56540  0.69950  1.0000 -0.1599354728
C   C54       1.0  0.43460  0.74780  0.19950  1.0000 -0.1599354728
C   C55       1.0  0.18440  0.54080  0.74310  1.0000 -0.0923381782
C   C56       1.0  0.45920  0.81560  0.24310  1.0000 -0.0923381782
C   C57       1.0  0.16620  0.45080  0.80190  1.0000 -0.0090407175
C   C58       1.0  0.54920  0.83380  0.30190  1.0000 -0.0090407175
C   C59       1.0  0.21570  0.38770  0.81660  1.0000 -0.0923381782
C   C60       1.0  0.61230  0.78430  0.31660  1.0000 -0.0923381782
C   C61       1.0  0.28610  0.41110  0.77460  1.0000 -0.1493318796
C   C62       1.0  0.58890  0.71390  0.27460  1.0000 -0.1493318796
C   C63       1.0  0.09307  0.42633  0.84920  1.0000 0.5707817319
C   C64       1.0  0.57367  0.90693  0.34920  1.0000 0.5707817319
C   C65       1.0  0.87040  0.55240  0.84630  1.0000 0.5884819918
C   C66       1.0  0.44760  0.12960  0.34630  1.0000 0.5884819918
C   C67       1.0  0.82950  0.61270  0.86680  1.0000 -0.0090407175
C   C68       1.0  0.38730  0.17050  0.36680  1.0000 -0.0090407175
C   C69       1.0  0.85100  0.61260  0.95490  1.0000 -0.1189073188
C   C70       1.0  0.38740  0.14900  0.45490  1.0000 -0.1146696986
C   C71       1.0  0.81650  0.66810  0.97720  1.0000 -0.1687255508
C   C72       1.0  0.33190  0.18350  0.47720  1.0000 -0.1599354728
C   C73       1.0  0.75820  0.72620  0.90840  1.0000 0.1465888539
C   C74       1.0  0.27380  0.24180  0.40840  1.0000 0.1465888539
C   C75       1.0  0.73510  0.72370  0.81970  1.0000 -0.1599354728
C   C76       1.0  0.27630  0.26490  0.31970  1.0000 -0.1599354728
C   C77       1.0  0.77050  0.66810  0.79970  1.0000 -0.0923381782
C   C78       1.0  0.33190  0.22950  0.29970  1.0000 -0.0923381782
C   C79       1.0  0.72090  0.78130  0.93260  1.0000 -0.1189073188
C   C80       1.0  0.21870  0.27910  0.43260  1.0000 -0.1189073188
C   C81       1.0  0.68930  0.82190  0.95940  1.0000 -0.1189073188
C   C82       1.0  0.17810  0.31070  0.45940  1.0000 -0.1189073188
C   C83       1.0  0.64350  0.86410  0.98970  1.0000 0.1388453481
C   C84       1.0  0.13590  0.35650  0.48970  1.0000 0.1388453481
C   C85       1.0  0.69120  0.91260  0.05420  1.0000 -0.1687255508
C   C86       1.0  0.08740  0.30880  0.55420  1.0000 -0.1687255508
C   C87       1.0  0.64320  0.94940  0.08400  1.0000 -0.1003799842
C   C88       1.0  0.05060  0.35680  0.58400  1.0000 -0.1003799842
C   C89       1.0  0.54620  0.94040  0.04590  1.0000 -0.0193190265
C   C90       1.0  0.05960  0.45380  0.54590  1.0000 -0.0193190265
C   C91       1.0  0.49960  0.89440  0.98080  1.0000 -0.1003799842
C   C92       1.0  0.10560  0.50040  0.48080  1.0000 -0.1003799842
C   C93       1.0  0.54680  0.85600  0.95120  1.0000 -0.1599354728
C   C94       1.0  0.14400  0.45320  0.45120  1.0000 -0.1599354728
C   C95       1.0  0.49310  0.98410  0.07240  1.0000 0.5707817319
C   C96       1.0  0.01590  0.50690  0.57240  1.0000 0.5707817319
C   C97       1.0  0.13290  0.55930  0.99640  1.0000 0.0977515423
C   C98       1.0  0.44070  0.86710  0.49640  1.0000 0.0977515423
C   C99       1.0  0.19640  0.60880  0.05720  1.0000 -0.1396405852
C   C100      1.0  0.39120  0.80360  0.55720  1.0000 -0.1396405852
C   C101      1.0  0.20170  0.56630  0.14760  1.0000 -0.0356727677
C   C102      1.0  0.43370  0.79830  0.64760  1.0000 -0.0356727677
C   C103      1.0  0.14430  0.47890  0.17430  1.0000 -0.176803674
C   C104      1.0  0.52110  0.85570  0.67430  1.0000 -0.176803674
C   C105      1.0  0.08260  0.43560  0.10790  1.0000 0.1830606678
C   C106      1.0  0.56440  0.91740  0.60790  1.0000 0.1830606678
C   C107      1.0  0.01290  0.34450  0.12900  1.0000 0.1733301573
C   C108      1.0  0.65550  0.98710  0.62900  1.0000 0.1733301573
C   C109      1.0  0.00410  0.29550  0.21460  1.0000 -0.1687255508
C   C110      1.0  0.70450  0.99590  0.71460  1.0000 -0.1687255508
C   C111      1.0  0.93340  0.21480  0.22680  1.0000 -0.0193190265
C   C112      1.0  0.78520  0.06660  0.72680  1.0000 -0.0193190265
C   C113      1.0  0.87370  0.18490  0.15280  1.0000 -0.1493318796
C   C114      1.0  0.81510  0.12630  0.65280  1.0000 -0.1493318796
C   C115      1.0  0.88670  0.23630  0.06810  1.0000 0.0977515423
C   C116      1.0  0.76370  0.11330  0.56810  1.0000 0.0977515423
C   C117      1.0  0.78060  0.45040  0.47780  1.0000 0.0977515423
C   C118      1.0  0.54960  0.21940  0.97780  1.0000 0.0977515423
C   C119      1.0  0.71910  0.38130  0.43710  1.0000 -0.1396405852
C   C120      1.0  0.61870  0.28090  0.93710  1.0000 -0.1396405852
C   C121      1.0  0.69390  0.40330  0.34600  1.0000 -0.0285112781
C   C122      1.0  0.59670  0.30610  0.84600  1.0000 -0.0285112781
C   C123      1.0  0.72960  0.49180  0.29620  1.0000 -0.176803674
C   C124      1.0  0.50820  0.27040  0.79620  1.0000 -0.176803674
C   C125      1.0  0.79140  0.55700  0.34330  1.0000 0.1858598732
C   C126      1.0  0.44300  0.20860  0.84330  1.0000 0.1858598732
C   C127      1.0  0.83720  0.65360  0.29720  1.0000 0.1830606678
C   C128      1.0  0.34640  0.16280  0.79720  1.0000 0.1830606678
C   C129      1.0  0.82340  0.68620  0.20390  1.0000 -0.176803674
C   C130      1.0  0.31380  0.17660  0.70390  1.0000 -0.176803674
C   C131      1.0  0.87230  0.77570  0.16680  1.0000 -0.0356727677
C   C132      1.0  0.22430  0.12770  0.66680  1.0000 -0.0356727677
C   C133      1.0  0.93710  0.82930  0.22430  1.0000 -0.1493318796
C   C134      1.0  0.17070  0.06290  0.72430  1.0000 -0.1493318796
C   C135      1.0  0.94710  0.79190  0.31530  1.0000 0.09322261
C   C136      1.0  0.20810  0.05290  0.81530  1.0000 0.09322261
N   N1        1.0  0.07750  0.47530  0.02150  1.0000 -0.2718222297
N   N2        1.0  0.52470  0.92250  0.52150  1.0000 -0.2718222297
N   N3        1.0  0.95540  0.31420  0.05690  1.0000 -0.2718222297
N   N4        1.0  0.68580  0.04460  0.55690  1.0000 -0.2718222297
N   N5        1.0  0.81620  0.53600  0.43090  1.0000 -0.2634610838
N   N6        1.0  0.46400  0.18380  0.93090  1.0000 -0.2634610838
N   N7        1.0  0.89770  0.70650  0.35060  1.0000 -0.2634610838
N   N8        1.0  0.29350  0.10230  0.85060  1.0000 -0.2634610838
O   O1        1.0  0.00350  0.75250  0.53950  1.0000 -0.528555975
O   O2        1.0  0.24750  0.99650  0.03950  1.0000 -0.528555975
O   O3        1.0  0.03100  0.65960  0.68140  1.0000 -0.5792923129
O   O4        1.0  0.34040  0.96900  0.18140  1.0000 -0.5792923129
O   O5        1.0  0.83590  0.40150  0.72270  1.0000 -0.5700683551
O   O6        1.0  0.59850  0.16410  0.22270  1.0000 -0.5700683551
O   O7        1.0  0.87790  0.30950  0.86400  1.0000 -0.5525894022
O   O8        1.0  0.69050  0.12210  0.36400  1.0000 -0.5525894022
O   O9        1.0  0.79240  0.70500  0.47740  1.0000 -0.528555975
O   O10       1.0  0.29500  0.20760  0.97740  1.0000 -0.528555975
O   O11       1.0  0.83580  0.58340  0.58570  1.0000 -0.6003039933
O   O12       1.0  0.41660  0.16420  0.08570  1.0000 -0.6003039933
O   O13       1.0  0.03770  0.48070  0.82360  1.0000 -0.6003039933
O   O14       1.0  0.51930  0.96230  0.32360  1.0000 -0.6003039933
O   O15       1.0  0.08980  0.35760  0.91730  1.0000 -0.5235852754
O   O16       1.0  0.64240  0.91020  0.41730  1.0000 -0.5235852754
O   O17       1.0  0.88590  0.58010  0.77180  1.0000 -0.5433593846
O   O18       1.0  0.41990  0.11410  0.27180  1.0000 -0.5433593846
O   O19       1.0  0.88970  0.48070  0.90900  1.0000 -0.5700683551
O   O20       1.0  0.51930  0.11030  0.40900  1.0000 -0.5700683551
O   O21       1.0  0.40950  0.98210  0.02380  1.0000 -0.5525894022
O   O22       1.0  0.01790  0.59050  0.52380  1.0000 -0.5525894022
O   O23       1.0  0.53360  0.02100  0.13530  1.0000 -0.5700683551
O   O24       1.0  0.97900  0.46640  0.63530  1.0000 -0.5700683551
