# DDEC6 charges by PACMAN v1.1 (https://github.com/mtap-research/PACMAN-charge/)
data_2015[Eu][sra]3[ASR]1
_chemical_formula_sum              "Eu4 H64 C96 N4 O32"
_cell_length_a       10.959
_cell_length_b       16.565
_cell_length_c       19.75
_cell_angle_alpha    90
_cell_angle_beta     90
_cell_angle_gamma    90

_symmetry_space_group_name_H-M    "P 1"
_symmetry_Int_Tables_number       1

loop_
  _symmetry_equiv_pos_as_xyz
  'x, y, z'

loop_
  _atom_site_type_symbol
  _atom_site_label
  _atom_site_symmetry_multiplicity
  _atom_site_fract_x
  _atom_site_fract_y
  _atom_site_fract_z
  _atom_site_occupancy
  _atom_site_charge
Eu  Eu1       1.0  0.29256  0.25000  0.70399  1.0000 2.0559762099
Eu  Eu2       1.0  0.20744  0.75000  0.20399  1.0000 2.0559762099
Eu  Eu3       1.0  0.70744  0.75000  0.29601  1.0000 2.0559762099
Eu  Eu4       1.0  0.79256  0.25000  0.79601  1.0000 2.0559762099
H   H1        1.0  0.34930  0.25000  0.19100  1.0000 0.3652067759
H   H2        1.0  0.15070  0.75000  0.69100  1.0000 0.3652067759
H   H3        1.0  0.65070  0.75000  0.80900  1.0000 0.3652067759
H   H4        1.0  0.84930  0.25000  0.30900  1.0000 0.3652067759
H   H5        1.0  0.96410  0.25000  0.95830  1.0000 0.1351849266
H   H6        1.0  0.53590  0.75000  0.45830  1.0000 0.1351849266
H   H7        1.0  0.03590  0.75000  0.04170  1.0000 0.1351849266
H   H8        1.0  0.46410  0.25000  0.54170  1.0000 0.1351849266
H   H9        1.0  0.01690  0.25000  0.07160  1.0000 0.118737486
H   H10       1.0  0.48310  0.75000  0.57160  1.0000 0.118737486
H   H11       1.0  0.98310  0.75000  0.92840  1.0000 0.118737486
H   H12       1.0  0.51690  0.25000  0.42840  1.0000 0.118737486
H   H13       1.0  0.31530  0.25000  0.90650  1.0000 0.1266901472
H   H14       1.0  0.18470  0.75000  0.40650  1.0000 0.1266901472
H   H15       1.0  0.68470  0.75000  0.09350  1.0000 0.1266901472
H   H16       1.0  0.81530  0.25000  0.59350  1.0000 0.1266901472
H   H17       1.0  0.56930  0.18140  0.01340  1.0000 0.118737486
H   H18       1.0  0.93070  0.81860  0.51340  1.0000 0.118737486
H   H19       1.0  0.43070  0.68140  0.98660  1.0000 0.118737486
H   H20       1.0  0.06930  0.31860  0.48660  1.0000 0.118737486
H   H21       1.0  0.43070  0.81860  0.98660  1.0000 0.118737486
H   H22       1.0  0.06930  0.18140  0.48660  1.0000 0.118737486
H   H23       1.0  0.56930  0.31860  0.01340  1.0000 0.118737486
H   H24       1.0  0.93070  0.68140  0.51340  1.0000 0.118737486
H   H25       1.0  0.47210  0.17100  0.95570  1.0000 0.1086363659
H   H26       1.0  0.02790  0.82900  0.45570  1.0000 0.1086363659
H   H27       1.0  0.52790  0.67100  0.04430  1.0000 0.1086363659
H   H28       1.0  0.97210  0.32900  0.54430  1.0000 0.1086363659
H   H29       1.0  0.52790  0.82900  0.04430  1.0000 0.1086363659
H   H30       1.0  0.97210  0.17100  0.54430  1.0000 0.1086363659
H   H31       1.0  0.47210  0.32900  0.95570  1.0000 0.1086363659
H   H32       1.0  0.02790  0.67100  0.45570  1.0000 0.1086363659
H   H33       1.0  0.54170  0.10790  0.12100  1.0000 0.118737486
H   H34       1.0  0.95830  0.89210  0.62100  1.0000 0.118737486
H   H35       1.0  0.45830  0.60790  0.87900  1.0000 0.118737486
H   H36       1.0  0.04170  0.39210  0.37900  1.0000 0.118737486
H   H37       1.0  0.45830  0.89210  0.87900  1.0000 0.118737486
H   H38       1.0  0.04170  0.10790  0.37900  1.0000 0.118737486
H   H39       1.0  0.54170  0.39210  0.12100  1.0000 0.118737486
H   H40       1.0  0.95830  0.60790  0.62100  1.0000 0.118737486
H   H41       1.0  0.47600  0.99190  0.17280  1.0000 0.118737486
H   H42       1.0  0.02400  0.00810  0.67280  1.0000 0.118737486
H   H43       1.0  0.52400  0.49190  0.82720  1.0000 0.118737486
H   H44       1.0  0.97600  0.50810  0.32720  1.0000 0.118737486
H   H45       1.0  0.52400  0.00810  0.82720  1.0000 0.118737486
H   H46       1.0  0.97600  0.99190  0.32720  1.0000 0.118737486
H   H47       1.0  0.47600  0.50810  0.17280  1.0000 0.118737486
H   H48       1.0  0.02400  0.49190  0.67280  1.0000 0.118737486
H   H49       1.0  0.24610  0.95160  0.01810  1.0000 0.118737486
H   H50       1.0  0.25390  0.04840  0.51810  1.0000 0.118737486
H   H51       1.0  0.75390  0.45160  0.98190  1.0000 0.118737486
H   H52       1.0  0.74610  0.54840  0.48190  1.0000 0.118737486
H   H53       1.0  0.75390  0.04840  0.98190  1.0000 0.118737486
H   H54       1.0  0.74610  0.95160  0.48190  1.0000 0.118737486
H   H55       1.0  0.24610  0.54840  0.01810  1.0000 0.118737486
H   H56       1.0  0.25390  0.45160  0.51810  1.0000 0.118737486
H   H57       1.0  0.31270  0.06940  0.96720  1.0000 0.118737486
H   H58       1.0  0.18730  0.93060  0.46720  1.0000 0.118737486
H   H59       1.0  0.68730  0.56940  0.03280  1.0000 0.118737486
H   H60       1.0  0.81270  0.43060  0.53280  1.0000 0.118737486
H   H61       1.0  0.68730  0.93060  0.03280  1.0000 0.118737486
H   H62       1.0  0.81270  0.06940  0.53280  1.0000 0.118737486
H   H63       1.0  0.31270  0.43060  0.96720  1.0000 0.118737486
H   H64       1.0  0.18730  0.56940  0.46720  1.0000 0.118737486
C   C1        1.0  0.10240  0.25000  0.84710  1.0000 0.6750349381
C   C2        1.0  0.39760  0.75000  0.34710  1.0000 0.6750349381
C   C3        1.0  0.89760  0.75000  0.15290  1.0000 0.6750349381
C   C4        1.0  0.60240  0.25000  0.65290  1.0000 0.6750349381
C   C5        1.0  0.13460  0.25000  0.92210  1.0000 -0.0109848656
C   C6        1.0  0.36540  0.75000  0.42210  1.0000 -0.0109848656
C   C7        1.0  0.86540  0.75000  0.07790  1.0000 -0.0109848656
C   C8        1.0  0.63460  0.25000  0.57790  1.0000 -0.0109848656
C   C9        1.0  0.04590  0.25000  0.97080  1.0000 -0.0982650047
C   C10       1.0  0.45410  0.75000  0.47080  1.0000 -0.0982650047
C   C11       1.0  0.95410  0.75000  0.02920  1.0000 -0.0982650047
C   C12       1.0  0.54590  0.25000  0.52920  1.0000 -0.0982650047
C   C13       1.0  0.07770  0.25000  0.03880  1.0000 -0.0982650047
C   C14       1.0  0.42230  0.75000  0.53880  1.0000 -0.0982650047
C   C15       1.0  0.92230  0.75000  0.96120  1.0000 -0.0982650047
C   C16       1.0  0.57770  0.25000  0.46120  1.0000 -0.0982650047
C   C17       1.0  0.19970  0.25000  0.05840  1.0000 -0.1104576823
C   C18       1.0  0.30030  0.75000  0.55840  1.0000 -0.1104576823
C   C19       1.0  0.80030  0.75000  0.94160  1.0000 -0.1104576823
C   C20       1.0  0.69970  0.25000  0.44160  1.0000 -0.1104576823
C   C21       1.0  0.29080  0.25000  0.00890  1.0000 0.1455775552
C   C22       1.0  0.20920  0.75000  0.50890  1.0000 0.1455775552
C   C23       1.0  0.70920  0.75000  0.99110  1.0000 0.1455775552
C   C24       1.0  0.79080  0.25000  0.49110  1.0000 0.1455775552
C   C25       1.0  0.25570  0.25000  0.94010  1.0000 -0.2074243597
C   C26       1.0  0.24430  0.75000  0.44010  1.0000 -0.2074243597
C   C27       1.0  0.74430  0.75000  0.05990  1.0000 -0.2074243597
C   C28       1.0  0.75570  0.25000  0.55990  1.0000 -0.2074243597
C   C29       1.0  0.22690  0.25000  0.13300  1.0000 0.5498043128
C   C30       1.0  0.27310  0.75000  0.63300  1.0000 0.5498043128
C   C31       1.0  0.77310  0.75000  0.86700  1.0000 0.5498043128
C   C32       1.0  0.72690  0.25000  0.36700  1.0000 0.5498043128
C   C33       1.0  0.48270  0.17610  0.00430  1.0000 -0.1672278217
C   C34       1.0  0.01730  0.82390  0.50430  1.0000 -0.1672278217
C   C35       1.0  0.51730  0.67610  0.99570  1.0000 -0.1672278217
C   C36       1.0  0.98270  0.32390  0.49570  1.0000 -0.1672278217
C   C37       1.0  0.51730  0.82390  0.99570  1.0000 -0.1672278217
C   C38       1.0  0.98270  0.17610  0.49570  1.0000 -0.1672278217
C   C39       1.0  0.48270  0.32390  0.00430  1.0000 -0.1672278217
C   C40       1.0  0.01730  0.67610  0.50430  1.0000 -0.1672278217
C   C41       1.0  0.43520  0.10060  0.03850  1.0000 0.1016945966
C   C42       1.0  0.06480  0.89940  0.53850  1.0000 0.1016945966
C   C43       1.0  0.56480  0.60060  0.96150  1.0000 0.1016945966
C   C44       1.0  0.93520  0.39940  0.46150  1.0000 0.1016945966
C   C45       1.0  0.56480  0.89940  0.96150  1.0000 0.1016945966
C   C46       1.0  0.93520  0.10060  0.46150  1.0000 0.1016945966
C   C47       1.0  0.43520  0.39940  0.03850  1.0000 0.1016945966
C   C48       1.0  0.06480  0.60060  0.53850  1.0000 0.1016945966
C   C49       1.0  0.48230  0.07640  0.10010  1.0000 -0.1598663939
C   C50       1.0  0.01770  0.92360  0.60010  1.0000 -0.1598663939
C   C51       1.0  0.51770  0.57640  0.89990  1.0000 -0.1598663939
C   C52       1.0  0.98230  0.42360  0.39990  1.0000 -0.1598663939
C   C53       1.0  0.51770  0.92360  0.89990  1.0000 -0.1598663939
C   C54       1.0  0.98230  0.07640  0.39990  1.0000 -0.1598663939
C   C55       1.0  0.48230  0.42360  0.10010  1.0000 -0.1598663939
C   C56       1.0  0.01770  0.57640  0.60010  1.0000 -0.1598663939
C   C57       1.0  0.44300  0.00680  0.13120  1.0000 -0.0868113561
C   C58       1.0  0.05700  0.99320  0.63120  1.0000 -0.0868113561
C   C59       1.0  0.55700  0.50680  0.86880  1.0000 -0.0868113561
C   C60       1.0  0.94300  0.49320  0.36880  1.0000 -0.0868113561
C   C61       1.0  0.55700  0.99320  0.86880  1.0000 -0.0868113561
C   C62       1.0  0.94300  0.00680  0.36880  1.0000 -0.0868113561
C   C63       1.0  0.44300  0.49320  0.13120  1.0000 -0.0868113561
C   C64       1.0  0.05700  0.50680  0.63120  1.0000 -0.0868113561
C   C65       1.0  0.35380  0.95790  0.10090  1.0000 -0.0478717483
C   C66       1.0  0.14620  0.04210  0.60090  1.0000 -0.0478717483
C   C67       1.0  0.64620  0.45790  0.89910  1.0000 -0.0478717483
C   C68       1.0  0.85380  0.54210  0.39910  1.0000 -0.0478717483
C   C69       1.0  0.64620  0.04210  0.89910  1.0000 -0.0478717483
C   C70       1.0  0.85380  0.95790  0.39910  1.0000 -0.0478717483
C   C71       1.0  0.35380  0.54210  0.10090  1.0000 -0.0478717483
C   C72       1.0  0.14620  0.45790  0.60090  1.0000 -0.0478717483
C   C73       1.0  0.30580  0.98270  0.03910  1.0000 -0.0868113561
C   C74       1.0  0.19420  0.01730  0.53910  1.0000 -0.0868113561
C   C75       1.0  0.69420  0.48270  0.96090  1.0000 -0.0868113561
C   C76       1.0  0.80580  0.51730  0.46090  1.0000 -0.0868113561
C   C77       1.0  0.69420  0.01730  0.96090  1.0000 -0.0868113561
C   C78       1.0  0.80580  0.98270  0.46090  1.0000 -0.0868113561
C   C79       1.0  0.30580  0.51730  0.03910  1.0000 -0.0868113561
C   C80       1.0  0.19420  0.48270  0.53910  1.0000 -0.0868113561
C   C81       1.0  0.34610  0.05360  0.00840  1.0000 -0.1598663939
C   C82       1.0  0.15390  0.94640  0.50840  1.0000 -0.1598663939
C   C83       1.0  0.65390  0.55360  0.99160  1.0000 -0.1598663939
C   C84       1.0  0.84610  0.44640  0.49160  1.0000 -0.1598663939
C   C85       1.0  0.65390  0.94640  0.99160  1.0000 -0.1598663939
C   C86       1.0  0.84610  0.05360  0.49160  1.0000 -0.1598663939
C   C87       1.0  0.34610  0.44640  0.00840  1.0000 -0.1598663939
C   C88       1.0  0.15390  0.55360  0.50840  1.0000 -0.1598663939
C   C89       1.0  0.31260  0.88230  0.13360  1.0000 0.5571547725
C   C90       1.0  0.18740  0.11770  0.63360  1.0000 0.5571547725
C   C91       1.0  0.68740  0.38230  0.86640  1.0000 0.5571547725
C   C92       1.0  0.81260  0.61770  0.36640  1.0000 0.5571547725
C   C93       1.0  0.68740  0.11770  0.86640  1.0000 0.5571547725
C   C94       1.0  0.81260  0.88230  0.36640  1.0000 0.5571547725
C   C95       1.0  0.31260  0.61770  0.13360  1.0000 0.5571547725
C   C96       1.0  0.18740  0.38230  0.63360  1.0000 0.5571547725
N   N1        1.0  0.41820  0.25000  0.02840  1.0000 -0.1104576823
N   N2        1.0  0.08180  0.75000  0.52840  1.0000 -0.1104576823
N   N3        1.0  0.58180  0.75000  0.97160  1.0000 -0.1104576823
N   N4        1.0  0.91820  0.25000  0.47160  1.0000 -0.1104576823
O   O1        1.0  0.18610  0.25000  0.80540  1.0000 -0.6809113643
O   O2        1.0  0.31390  0.75000  0.30540  1.0000 -0.6809113643
O   O3        1.0  0.81390  0.75000  0.19460  1.0000 -0.6809113643
O   O4        1.0  0.68610  0.25000  0.69460  1.0000 -0.6809113643
O   O5        1.0  0.99240  0.25000  0.83280  1.0000 -0.6653171204
O   O6        1.0  0.50760  0.75000  0.33280  1.0000 -0.6653171204
O   O7        1.0  0.00760  0.75000  0.16720  1.0000 -0.6653171204
O   O8        1.0  0.49240  0.25000  0.66720  1.0000 -0.6653171204
O   O9        1.0  0.34280  0.25000  0.14970  1.0000 -0.4442202768
O   O10       1.0  0.15720  0.75000  0.64970  1.0000 -0.4442202768
O   O11       1.0  0.65720  0.75000  0.85030  1.0000 -0.4442202768
O   O12       1.0  0.84280  0.25000  0.35030  1.0000 -0.4442202768
O   O13       1.0  0.14760  0.25000  0.17410  1.0000 -0.4931474946
O   O14       1.0  0.35240  0.75000  0.67410  1.0000 -0.4931474946
O   O15       1.0  0.85240  0.75000  0.82590  1.0000 -0.4931474946
O   O16       1.0  0.64760  0.25000  0.32590  1.0000 -0.4931474946
O   O17       1.0  0.36420  0.85610  0.18630  1.0000 -0.6395494215
O   O18       1.0  0.13580  0.14390  0.68630  1.0000 -0.6395494215
O   O19       1.0  0.63580  0.35610  0.81370  1.0000 -0.6395494215
O   O20       1.0  0.86420  0.64390  0.31370  1.0000 -0.6395494215
O   O21       1.0  0.63580  0.14390  0.81370  1.0000 -0.6395494215
O   O22       1.0  0.86420  0.85610  0.31370  1.0000 -0.6395494215
O   O23       1.0  0.36420  0.64390  0.18630  1.0000 -0.6395494215
O   O24       1.0  0.13580  0.35610  0.68630  1.0000 -0.6395494215
O   O25       1.0  0.22280  0.84530  0.10960  1.0000 -0.6395494215
O   O26       1.0  0.27720  0.15470  0.60960  1.0000 -0.6395494215
O   O27       1.0  0.77720  0.34530  0.89040  1.0000 -0.6395494215
O   O28       1.0  0.72280  0.65470  0.39040  1.0000 -0.6395494215
O   O29       1.0  0.77720  0.15470  0.89040  1.0000 -0.6395494215
O   O30       1.0  0.72280  0.84530  0.39040  1.0000 -0.6395494215
O   O31       1.0  0.22280  0.65470  0.10960  1.0000 -0.6395494215
O   O32       1.0  0.27720  0.34530  0.60960  1.0000 -0.6395494215
