# DDEC6 charges by PACMAN v1.1 (https://github.com/mtap-research/PACMAN-charge/)
data_2015[Cu][nan]3[ASR]21
_chemical_formula_sum              "Cu6 H6 C24 O18"
_cell_length_a       15.0822
_cell_length_b       15.0822
_cell_length_c       15.0822
_cell_angle_alpha    118.116
_cell_angle_beta     118.116
_cell_angle_gamma    118.116

_symmetry_space_group_name_H-M    "P 1"
_symmetry_Int_Tables_number       1

loop_
  _symmetry_equiv_pos_as_xyz
  'x, y, z'

loop_
  _atom_site_type_symbol
  _atom_site_label
  _atom_site_symmetry_multiplicity
  _atom_site_fract_x
  _atom_site_fract_y
  _atom_site_fract_z
  _atom_site_occupancy
  _atom_site_charge
Cu  Cu1       1.0  0.67080  0.93270  0.35420  1.0000 0.9272484957
Cu  Cu2       1.0  0.93270  0.35420  0.67080  1.0000 0.9272484957
Cu  Cu3       1.0  0.35420  0.67080  0.93270  1.0000 0.9272484957
Cu  Cu4       1.0  0.32920  0.06730  0.64580  1.0000 0.9272484957
Cu  Cu5       1.0  0.06730  0.64580  0.32920  1.0000 0.9272484957
Cu  Cu6       1.0  0.64580  0.32920  0.06730  1.0000 0.9272484957
H   H1        1.0  0.10130  0.66800  0.12070  1.0000 0.1301965593
H   H2        1.0  0.66800  0.12070  0.10130  1.0000 0.1301965593
H   H3        1.0  0.12070  0.10130  0.66800  1.0000 0.1301965593
H   H4        1.0  0.89870  0.33200  0.87930  1.0000 0.1301965593
H   H5        1.0  0.33200  0.87930  0.89870  1.0000 0.1301965593
H   H6        1.0  0.87930  0.89870  0.33200  1.0000 0.1301965593
C   C1        1.0  0.27640  0.70220  0.10940  1.0000 0.621883738
C   C2        1.0  0.70220  0.10940  0.27640  1.0000 0.621883738
C   C3        1.0  0.10940  0.27640  0.70220  1.0000 0.621883738
C   C4        1.0  0.72360  0.29780  0.89060  1.0000 0.621883738
C   C5        1.0  0.29780  0.89060  0.72360  1.0000 0.621883738
C   C6        1.0  0.89060  0.72360  0.29780  1.0000 0.621883738
C   C7        1.0  0.28260  0.82100  0.29340  1.0000 -0.1538983107
C   C8        1.0  0.82100  0.29340  0.28260  1.0000 -0.1538983107
C   C9        1.0  0.29340  0.28260  0.82100  1.0000 -0.1538983107
C   C10       1.0  0.71740  0.17900  0.70660  1.0000 -0.1538983107
C   C11       1.0  0.17900  0.70660  0.71740  1.0000 -0.1538983107
C   C12       1.0  0.70660  0.71740  0.17900  1.0000 -0.1538983107
C   C13       1.0  0.40670  0.87070  0.32060  1.0000 -0.1039551232
C   C14       1.0  0.87070  0.32060  0.40670  1.0000 -0.1039551232
C   C15       1.0  0.32060  0.40670  0.87070  1.0000 -0.1039551232
C   C16       1.0  0.59330  0.12930  0.67940  1.0000 -0.1039551232
C   C17       1.0  0.12930  0.67940  0.59330  1.0000 -0.1039551232
C   C18       1.0  0.67940  0.59330  0.12930  1.0000 -0.1039551232
C   C19       1.0  0.63780  0.07140  0.53980  1.0000 0.2598853289
C   C20       1.0  0.07140  0.53980  0.63780  1.0000 0.2598853289
C   C21       1.0  0.53980  0.63780  0.07140  1.0000 0.2598853289
C   C22       1.0  0.36220  0.92860  0.46020  1.0000 0.2598853289
C   C23       1.0  0.92860  0.46020  0.36220  1.0000 0.2598853289
C   C24       1.0  0.46020  0.36220  0.92860  1.0000 0.2598853289
O   O1        1.0  0.09850  0.58140  0.93710  1.0000 -0.5006402553
O   O2        1.0  0.58140  0.93710  0.09850  1.0000 -0.5006402553
O   O3        1.0  0.93710  0.09850  0.58140  1.0000 -0.5006402553
O   O4        1.0  0.90150  0.41860  0.06290  1.0000 -0.5006402553
O   O5        1.0  0.41860  0.06290  0.90150  1.0000 -0.5006402553
O   O6        1.0  0.06290  0.90150  0.41860  1.0000 -0.5006402553
O   O7        1.0  0.38020  0.72100  0.12780  1.0000 -0.6063146016
O   O8        1.0  0.72100  0.12780  0.38020  1.0000 -0.6063146016
O   O9        1.0  0.12780  0.38020  0.72100  1.0000 -0.6063146016
O   O10       1.0  0.61980  0.27900  0.87220  1.0000 -0.6063146016
O   O11       1.0  0.27900  0.87220  0.61980  1.0000 -0.6063146016
O   O12       1.0  0.87220  0.61980  0.27900  1.0000 -0.6063146016
O   O13       1.0  0.75780  0.11580  0.56140  1.0000 -0.5744058312
O   O14       1.0  0.11580  0.56140  0.75780  1.0000 -0.5744058312
O   O15       1.0  0.56140  0.75780  0.11580  1.0000 -0.5744058312
O   O16       1.0  0.24220  0.88420  0.43860  1.0000 -0.5744058312
O   O17       1.0  0.88420  0.43860  0.24220  1.0000 -0.5744058312
O   O18       1.0  0.43860  0.24220  0.88420  1.0000 -0.5744058312
