# DDEC6 charges by PACMAN v1.1 (https://github.com/mtap-research/PACMAN-charge/)
data_2015[Co][nan]3[ASR]16
_chemical_formula_sum              "Co6 H70 C98 N8 O24"
_cell_length_a       11.5791
_cell_length_b       15.2623
_cell_length_c       19.2483
_cell_angle_alpha    70.394
_cell_angle_beta     76.587
_cell_angle_gamma    82.732

_symmetry_space_group_name_H-M    "P 1"
_symmetry_Int_Tables_number       1

loop_
  _symmetry_equiv_pos_as_xyz
  'x, y, z'

loop_
  _atom_site_type_symbol
  _atom_site_label
  _atom_site_symmetry_multiplicity
  _atom_site_fract_x
  _atom_site_fract_y
  _atom_site_fract_z
  _atom_site_occupancy
  _atom_site_charge
Co  Co1       1.0  0.50000  0.50000  0.00000  1.0000 1.0903973514
Co  Co2       1.0  0.61505  0.26997  0.08187  1.0000 0.9186308617
Co  Co3       1.0  0.38495  0.73003  0.91813  1.0000 0.9186308617
Co  Co4       1.0  0.76856  0.50808  0.42199  1.0000 0.8067880804
Co  Co5       1.0  0.23144  0.49192  0.57801  1.0000 0.8067880804
Co  Co6       1.0  0.50000  0.50000  0.50000  1.0000 1.023400181
H   H1        1.0  0.78980  0.70510  0.29620  1.0000 0.1196072671
H   H2        1.0  0.21020  0.29490  0.70380  1.0000 0.1196072671
H   H3        1.0  0.92600  0.81820  0.23400  1.0000 0.1302017993
H   H4        1.0  0.07400  0.18180  0.76600  1.0000 0.1302017993
H   H5        1.0  0.14350  0.67180  0.37220  1.0000 0.1394735361
H   H6        1.0  0.85650  0.32820  0.62780  1.0000 0.1394735361
H   H7        1.0  0.00150  0.56350  0.42950  1.0000 0.1111108176
H   H8        1.0  0.99850  0.43650  0.57050  1.0000 0.1111108176
H   H9        1.0  0.09830  0.87240  0.15300  1.0000 0.1196072671
H   H10       1.0  0.90170  0.12760  0.84700  1.0000 0.1196072671
H   H11       1.0  0.24490  0.97790  0.09260  1.0000 0.1196072671
H   H12       1.0  0.75510  0.02210  0.90740  1.0000 0.1196072671
H   H13       1.0  0.37250  0.90640  0.28180  1.0000 0.1196072671
H   H14       1.0  0.62750  0.09360  0.71820  1.0000 0.1196072671
H   H15       1.0  0.22510  0.80280  0.34270  1.0000 0.1302017993
H   H16       1.0  0.77490  0.19720  0.65730  1.0000 0.1302017993
H   H17       1.0  0.61630  0.92540  0.03630  1.0000 0.0976722324
H   H18       1.0  0.38370  0.07460  0.96370  1.0000 0.0976722324
H   H19       1.0  0.49440  0.88430  0.08340  1.0000 0.1111108176
H   H20       1.0  0.50560  0.11570  0.91660  1.0000 0.1111108176
H   H21       1.0  0.69180  0.87880  0.14650  1.0000 0.1302017993
H   H22       1.0  0.30820  0.12120  0.85350  1.0000 0.1302017993
H   H23       1.0  0.65060  0.79300  0.13290  1.0000 0.1394735361
H   H24       1.0  0.34940  0.20700  0.86710  1.0000 0.1394735361
H   H25       1.0  0.57040  0.83570  0.19250  1.0000 0.1302017993
H   H26       1.0  0.42960  0.16430  0.80750  1.0000 0.1302017993
H   H27       1.0  0.66040  0.08580  0.04210  1.0000 0.1196072671
H   H28       1.0  0.33960  0.91420  0.95790  1.0000 0.1196072671
H   H29       1.0  0.33070  0.28460  0.09070  1.0000 0.1302017993
H   H30       1.0  0.66930  0.71540  0.90930  1.0000 0.1302017993
H   H31       1.0  0.18790  0.36930  0.15010  1.0000 0.1196072671
H   H32       1.0  0.81210  0.63070  0.84990  1.0000 0.1196072671
H   H33       1.0  0.15840  0.15410  0.34220  1.0000 0.1196072671
H   H34       1.0  0.84160  0.84590  0.65780  1.0000 0.1196072671
H   H35       1.0  0.29860  0.06850  0.28330  1.0000 0.1196072671
H   H36       1.0  0.70140  0.93150  0.71670  1.0000 0.1196072671
H   H37       1.0  0.99480  0.40470  0.20450  1.0000 0.1394735361
H   H38       1.0  0.00520  0.59530  0.79550  1.0000 0.1394735361
H   H39       1.0  0.85880  0.48810  0.26980  1.0000 0.1111108176
H   H40       1.0  0.14120  0.51190  0.73020  1.0000 0.1111108176
H   H41       1.0  0.97340  0.35770  0.45470  1.0000 0.1111108176
H   H42       1.0  0.02660  0.64230  0.54530  1.0000 0.1111108176
H   H43       1.0  0.11300  0.27190  0.39450  1.0000 0.1394735361
H   H44       1.0  0.88700  0.72810  0.60550  1.0000 0.1394735361
H   H45       1.0  0.67820  0.28290  0.82100  1.0000 0.1111108176
H   H46       1.0  0.32180  0.71710  0.17900  1.0000 0.1111108176
H   H47       1.0  0.61750  0.33010  0.70740  1.0000 0.1196072671
H   H48       1.0  0.38250  0.66990  0.29260  1.0000 0.1196072671
H   H49       1.0  0.31410  0.44350  0.79990  1.0000 0.1196072671
H   H50       1.0  0.68590  0.55650  0.20010  1.0000 0.1196072671
H   H51       1.0  0.37970  0.40580  0.91090  1.0000 0.1302017993
H   H52       1.0  0.62030  0.59420  0.08910  1.0000 0.1302017993
H   H53       1.0  0.96450  0.34470  0.03140  1.0000 0.1302017993
H   H54       1.0  0.03550  0.65530  0.96860  1.0000 0.1302017993
H   H55       1.0  0.84420  0.61260  0.98670  1.0000 0.1196072671
H   H56       1.0  0.15580  0.38740  0.01330  1.0000 0.1196072671
H   H57       1.0  0.72350  0.51700  0.78310  1.0000 0.1196072671
H   H58       1.0  0.27650  0.48300  0.21690  1.0000 0.1196072671
H   H59       1.0  0.79970  0.49590  0.66770  1.0000 0.1111108176
H   H60       1.0  0.20030  0.50410  0.33230  1.0000 0.1111108176
H   H61       1.0  0.52560  0.65360  0.58610  1.0000 0.1302017993
H   H62       1.0  0.47440  0.34640  0.41390  1.0000 0.1302017993
H   H63       1.0  0.45410  0.67900  0.69970  1.0000 0.1302017993
H   H64       1.0  0.54590  0.32100  0.30030  1.0000 0.1302017993
H   H65       1.0  0.57880  0.20910  0.52960  1.0000 0.1513714974
H   H66       1.0  0.42120  0.79090  0.47040  1.0000 0.1513714974
H   H67       1.0  0.49310  0.29080  0.54660  1.0000 0.1513714974
H   H68       1.0  0.50690  0.70920  0.45340  1.0000 0.1513714974
H   H69       1.0  0.56800  0.22930  0.60560  1.0000 0.1513714974
H   H70       1.0  0.43200  0.77070  0.39440  1.0000 0.1513714974
C   C1        1.0  0.86200  0.69820  0.31130  1.0000 0.0808266857
C   C2        1.0  0.13800  0.30180  0.68870  1.0000 0.0808266857
C   C3        1.0  0.94400  0.76670  0.27330  1.0000 -0.2055406636
C   C4        1.0  0.05600  0.23330  0.72670  1.0000 -0.2055406636
C   C5        1.0  0.05270  0.75730  0.29440  1.0000 0.1111108176
C   C6        1.0  0.94730  0.24270  0.70560  1.0000 0.1111108176
C   C7        1.0  0.07290  0.67990  0.35510  1.0000 -0.1734009227
C   C8        1.0  0.92710  0.32010  0.64490  1.0000 -0.1734009227
C   C9        1.0  0.98630  0.61520  0.38960  1.0000 0.0976722324
C   C10       1.0  0.01370  0.38480  0.61040  1.0000 0.0976722324
C   C11       1.0  0.14560  0.82680  0.25480  1.0000 0.0579260001
C   C12       1.0  0.85440  0.17320  0.74520  1.0000 0.0579260001
C   C13       1.0  0.15280  0.87950  0.17910  1.0000 -0.1394578184
C   C14       1.0  0.84720  0.12050  0.82090  1.0000 -0.1394578184
C   C15       1.0  0.24120  0.94250  0.14290  1.0000 -0.155959866
C   C16       1.0  0.75880  0.05750  0.85710  1.0000 -0.155959866
C   C17       1.0  0.32430  0.95330  0.18090  1.0000 0.0579260001
C   C18       1.0  0.67570  0.04670  0.81910  1.0000 0.0579260001
C   C19       1.0  0.31720  0.90010  0.25580  1.0000 -0.1508189728
C   C20       1.0  0.68280  0.09990  0.74420  1.0000 -0.1508189728
C   C21       1.0  0.22890  0.83780  0.29240  1.0000 -0.1218374213
C   C22       1.0  0.77110  0.16220  0.70760  1.0000 -0.1218374213
C   C23       1.0  0.41660  0.02230  0.14310  1.0000 0.0100800162
C   C24       1.0  0.58340  0.97770  0.85690  1.0000 0.0100800162
C   C25       1.0  0.56260  0.91410  0.08490  1.0000 -0.07659462
C   C26       1.0  0.43740  0.08590  0.91510  1.0000 -0.07659462
C   C27       1.0  0.62440  0.84960  0.14460  1.0000 -0.3876008009
C   C28       1.0  0.37560  0.15040  0.85540  1.0000 -0.3876008009
C   C29       1.0  0.58540  0.08050  0.07320  1.0000 0.1111108176
C   C30       1.0  0.41460  0.91950  0.92680  1.0000 0.1111108176
C   C31       1.0  0.42100  0.11090  0.14310  1.0000 0.0808266857
C   C32       1.0  0.57900  0.88910  0.85690  1.0000 0.0808266857
C   C33       1.0  0.33000  0.16630  0.17990  1.0000 0.0724746669
C   C34       1.0  0.67000  0.83370  0.82010  1.0000 0.0724746669
C   C35       1.0  0.29570  0.25790  0.14110  1.0000 -0.111725669
C   C36       1.0  0.70430  0.74210  0.85890  1.0000 -0.111725669
C   C37       1.0  0.21040  0.30900  0.17710  1.0000 -0.1218374213
C   C38       1.0  0.78960  0.69100  0.82290  1.0000 -0.1218374213
C   C39       1.0  0.15720  0.27190  0.25310  1.0000 0.0579260001
C   C40       1.0  0.84280  0.72810  0.74690  1.0000 0.0579260001
C   C41       1.0  0.19260  0.18040  0.29170  1.0000 -0.1394578184
C   C42       1.0  0.80740  0.81960  0.70830  1.0000 -0.1394578184
C   C43       1.0  0.27670  0.12890  0.25630  1.0000 -0.1394578184
C   C44       1.0  0.72330  0.87110  0.74370  1.0000 -0.1394578184
C   C45       1.0  0.06930  0.32700  0.29230  1.0000 0.1196072671
C   C46       1.0  0.93070  0.67300  0.70770  1.0000 0.1111108176
C   C47       1.0  0.99200  0.39340  0.25550  1.0000 -0.1981722778
C   C48       1.0  0.00800  0.60660  0.74450  1.0000 -0.1981722778
C   C49       1.0  0.90960  0.44320  0.29550  1.0000 0.0976722324
C   C50       1.0  0.09040  0.55680  0.70450  1.0000 0.0976722324
C   C51       1.0  0.97690  0.36690  0.40400  1.0000 0.1111108176
C   C52       1.0  0.02310  0.63310  0.59600  1.0000 0.1111108176
C   C53       1.0  0.06150  0.31490  0.36790  1.0000 -0.1878025001
C   C54       1.0  0.93850  0.68510  0.63210  1.0000 -0.1878025001
C   C55       1.0  0.58010  0.31990  0.94730  1.0000 0.559075051
C   C56       1.0  0.41990  0.68010  0.05270  1.0000 0.559075051
C   C57       1.0  0.53650  0.34340  0.87670  1.0000 -0.0188692187
C   C58       1.0  0.46350  0.65660  0.12330  1.0000 -0.0188692187
C   C59       1.0  0.60690  0.31770  0.81590  1.0000 -0.111725669
C   C60       1.0  0.39310  0.68230  0.18410  1.0000 -0.111725669
C   C61       1.0  0.56930  0.34450  0.74850  1.0000 -0.111725669
C   C62       1.0  0.43070  0.65550  0.25150  1.0000 -0.111725669
C   C63       1.0  0.46040  0.39260  0.74130  1.0000 -0.0313475933
C   C64       1.0  0.53960  0.60740  0.25870  1.0000 -0.0313475933
C   C65       1.0  0.38860  0.41350  0.80360  1.0000 -0.111725669
C   C66       1.0  0.61140  0.58650  0.19640  1.0000 -0.111725669
C   C67       1.0  0.42710  0.39020  0.87020  1.0000 -0.0944452872
C   C68       1.0  0.57290  0.60980  0.12980  1.0000 -0.0944452872
C   C69       1.0  0.42160  0.42530  0.66730  1.0000 0.5711011225
C   C70       1.0  0.57840  0.57470  0.33270  1.0000 0.5711011225
C   C71       1.0  0.76010  0.44260  0.02250  1.0000 0.5908062989
C   C72       1.0  0.23990  0.55740  0.97750  1.0000 0.5908062989
C   C73       1.0  0.88440  0.47380  0.01080  1.0000 -0.0188692187
C   C74       1.0  0.11560  0.52620  0.98920  1.0000 -0.0188692187
C   C75       1.0  0.97900  0.40730  0.01870  1.0000 -0.111725669
C   C76       1.0  0.02100  0.59270  0.98130  1.0000 -0.111725669
C   C77       1.0  0.90640  0.56740  0.99200  1.0000 -0.1218374213
C   C78       1.0  0.09360  0.43260  0.00800  1.0000 -0.1218374213
C   C79       1.0  0.52950  0.61450  0.82900  1.0000 0.5908062989
C   C80       1.0  0.47050  0.38550  0.17100  1.0000 0.5908062989
C   C81       1.0  0.58090  0.60150  0.75310  1.0000 -0.014389033
C   C82       1.0  0.41910  0.39850  0.24690  1.0000 -0.014389033
C   C83       1.0  0.68470  0.54510  0.74330  1.0000 -0.111725669
C   C84       1.0  0.31530  0.45490  0.25670  1.0000 -0.111725669
C   C85       1.0  0.72910  0.53140  0.67470  1.0000 -0.1218374213
C   C86       1.0  0.27090  0.46860  0.32530  1.0000 -0.1218374213
C   C87       1.0  0.66870  0.57040  0.61574  1.0000 -0.0188692187
C   C88       1.0  0.33130  0.42960  0.38426  1.0000 -0.0188692187
C   C89       1.0  0.56550  0.62650  0.62550  1.0000 -0.1015636539
C   C90       1.0  0.43450  0.37350  0.37450  1.0000 -0.1015636539
C   C91       1.0  0.52300  0.64140  0.69350  1.0000 -0.111725669
C   C92       1.0  0.47700  0.35860  0.30650  1.0000 -0.111725669
C   C93       1.0  0.71110  0.54910  0.54310  1.0000 0.559075051
C   C94       1.0  0.28890  0.45090  0.45690  1.0000 0.559075051
C   C95       1.0  0.66760  0.32300  0.51620  1.0000 0.6998687917
C   C96       1.0  0.33240  0.67700  0.48380  1.0000 0.6998687917
C   C97       1.0  0.56780  0.25700  0.55280  1.0000 -0.5872431612
C   C98       1.0  0.43220  0.74300  0.44720  1.0000 -0.5872431612
N   N1        1.0  0.52230  0.00390  0.09780  1.0000 -0.0030237863
N   N2        1.0  0.47770  0.99610  0.90220  1.0000 -0.0030237863
N   N3        1.0  0.52750  0.14750  0.09889  1.0000 -0.3614644473
N   N4        1.0  0.47250  0.85250  0.90111  1.0000 -0.3614644473
N   N5        1.0  0.90020  0.42950  0.36899  1.0000 -0.2494096113
N   N6        1.0  0.09980  0.57050  0.63101  1.0000 -0.2494096113
N   N7        1.0  0.88240  0.62300  0.36869  1.0000 -0.2494096113
N   N8        1.0  0.11760  0.37700  0.63131  1.0000 -0.2494096113
O   O1        1.0  0.52430  0.35671  0.99829  1.0000 -0.6054378217
O   O2        1.0  0.47570  0.64329  0.00171  1.0000 -0.6054378217
O   O3        1.0  0.66667  0.26234  0.96114  1.0000 -0.5500007784
O   O4        1.0  0.33333  0.73766  0.03886  1.0000 -0.5500007784
O   O5        1.0  0.31250  0.44503  0.66791  1.0000 -0.5611338681
O   O6        1.0  0.68750  0.55497  0.33209  1.0000 -0.5611338681
O   O7        1.0  0.50180  0.42955  0.60933  1.0000 -0.5430580443
O   O8        1.0  0.49820  0.57045  0.39067  1.0000 -0.5430580443
O   O9        1.0  0.55240  0.55034  0.88613  1.0000 -0.5689906841
O   O10       1.0  0.44760  0.44966  0.11387  1.0000 -0.5689906841
O   O11       1.0  0.46870  0.69060  0.82748  1.0000 -0.5689906841
O   O12       1.0  0.53130  0.30940  0.17252  1.0000 -0.5689906841
O   O13       1.0  0.64410  0.57773  0.49367  1.0000 -0.5872431612
O   O14       1.0  0.35590  0.42227  0.50633  1.0000 -0.5872431612
O   O15       1.0  0.80730  0.50496  0.52964  1.0000 -0.5242662495
O   O16       1.0  0.19270  0.49504  0.47036  1.0000 -0.5242662495
O   O17       1.0  0.68050  0.50427  0.00227  1.0000 -0.5689906841
O   O18       1.0  0.31950  0.49573  0.99773  1.0000 -0.5689906841
O   O19       1.0  0.74880  0.35650  0.05223  1.0000 -0.5500007784
O   O20       1.0  0.25120  0.64350  0.94777  1.0000 -0.5500007784
O   O21       1.0  0.64230  0.40722  0.47553  1.0000 -0.6288207835
O   O22       1.0  0.35770  0.59278  0.52447  1.0000 -0.6288207835
O   O23       1.0  0.76940  0.29460  0.52490  1.0000 -0.5689906841
O   O24       1.0  0.23060  0.70540  0.47510  1.0000 -0.5689906841
