# DDEC6 charges by PACMAN v1.1 (https://github.com/mtap-research/PACMAN-charge/)
data_2015[Mn][nan]3[ASR]9
_chemical_formula_sum              "Mn3 H72 C120 N24"
_cell_length_a       19.4847
_cell_length_b       19.4847
_cell_length_c       19.4847
_cell_angle_alpha    117.526
_cell_angle_beta     117.526
_cell_angle_gamma    117.526

_symmetry_space_group_name_H-M    "P 1"
_symmetry_Int_Tables_number       1

loop_
  _symmetry_equiv_pos_as_xyz
  'x, y, z'

loop_
  _atom_site_type_symbol
  _atom_site_label
  _atom_site_symmetry_multiplicity
  _atom_site_fract_x
  _atom_site_fract_y
  _atom_site_fract_z
  _atom_site_occupancy
  _atom_site_charge
Mn  Mn1       1.0  0.00000  0.00000  0.50000  1.0000 0.6435454859
Mn  Mn2       1.0  0.00000  0.50000  0.00000  1.0000 0.6461308076
Mn  Mn3       1.0  0.50000  0.00000  0.00000  1.0000 0.6461308076
H   H1        1.0  0.69730  0.57890  0.34270  1.0000 0.1224131702
H   H2        1.0  0.57890  0.34270  0.69730  1.0000 0.1224131702
H   H3        1.0  0.34270  0.69730  0.57890  1.0000 0.1224131702
H   H4        1.0  0.30270  0.42110  0.65730  1.0000 0.1224131702
H   H5        1.0  0.42110  0.65730  0.30270  1.0000 0.1224131702
H   H6        1.0  0.65730  0.30270  0.42110  1.0000 0.1224131702
H   H7        1.0  0.95670  0.75320  0.55340  1.0000 0.1224131702
H   H8        1.0  0.75320  0.55340  0.95670  1.0000 0.1224131702
H   H9        1.0  0.55340  0.95670  0.75320  1.0000 0.1224131702
H   H10       1.0  0.04330  0.24680  0.44660  1.0000 0.1224131702
H   H11       1.0  0.24680  0.44660  0.04330  1.0000 0.1224131702
H   H12       1.0  0.44660  0.04330  0.24680  1.0000 0.1224131702
H   H13       1.0  0.43460  0.58280  0.07770  1.0000 0.1224131702
H   H14       1.0  0.58280  0.07770  0.43460  1.0000 0.1224131702
H   H15       1.0  0.07770  0.43460  0.58280  1.0000 0.1224131702
H   H16       1.0  0.56540  0.41720  0.92230  1.0000 0.1224131702
H   H17       1.0  0.41720  0.92230  0.56540  1.0000 0.1224131702
H   H18       1.0  0.92230  0.56540  0.41720  1.0000 0.1224131702
H   H19       1.0  0.39100  0.38170  0.97110  1.0000 0.1301016647
H   H20       1.0  0.38170  0.97110  0.39100  1.0000 0.1301016647
H   H21       1.0  0.97110  0.39100  0.38170  1.0000 0.1301016647
H   H22       1.0  0.60900  0.61830  0.02890  1.0000 0.1301016647
H   H23       1.0  0.61830  0.02890  0.60900  1.0000 0.1301016647
H   H24       1.0  0.02890  0.60900  0.61830  1.0000 0.1301016647
H   H25       1.0  0.52350  0.74670  0.10270  1.0000 0.1301016647
H   H26       1.0  0.74670  0.10270  0.52350  1.0000 0.1224131702
H   H27       1.0  0.10270  0.52350  0.74670  1.0000 0.1301016647
H   H28       1.0  0.47650  0.25330  0.89730  1.0000 0.1224131702
H   H29       1.0  0.25330  0.89730  0.47650  1.0000 0.1301016647
H   H30       1.0  0.89730  0.47650  0.25330  1.0000 0.1301016647
H   H31       1.0  0.57590  0.62060  0.34020  1.0000 0.1301016647
H   H32       1.0  0.62060  0.34020  0.57590  1.0000 0.1301016647
H   H33       1.0  0.34020  0.57590  0.62060  1.0000 0.1301016647
H   H34       1.0  0.42410  0.37940  0.65980  1.0000 0.1301016647
H   H35       1.0  0.37940  0.65980  0.42410  1.0000 0.1301016647
H   H36       1.0  0.65980  0.42410  0.37940  1.0000 0.1301016647
H   H37       1.0  0.35170  0.40400  0.19060  1.0000 0.1024479646
H   H38       1.0  0.40400  0.19060  0.35170  1.0000 0.1024479646
H   H39       1.0  0.19060  0.35170  0.40400  1.0000 0.1024479646
H   H40       1.0  0.64830  0.59600  0.80940  1.0000 0.1024479646
H   H41       1.0  0.59600  0.80940  0.64830  1.0000 0.1024479646
H   H42       1.0  0.80940  0.64830  0.59600  1.0000 0.1024479646
H   H43       1.0  0.17680  0.17260  0.83490  1.0000 0.1052133738
H   H44       1.0  0.17260  0.83490  0.17680  1.0000 0.1052133738
H   H45       1.0  0.83490  0.17680  0.17260  1.0000 0.1052133738
H   H46       1.0  0.82320  0.82740  0.16510  1.0000 0.1052133738
H   H47       1.0  0.82740  0.16510  0.82320  1.0000 0.1052133738
H   H48       1.0  0.16510  0.82320  0.82740  1.0000 0.1052133738
H   H49       1.0  0.16350  0.85100  0.58660  1.0000 0.141950416
H   H50       1.0  0.85100  0.58660  0.16350  1.0000 0.141950416
H   H51       1.0  0.58660  0.16350  0.85100  1.0000 0.141950416
H   H52       1.0  0.83650  0.14900  0.41340  1.0000 0.141950416
H   H53       1.0  0.14900  0.41340  0.83650  1.0000 0.141950416
H   H54       1.0  0.41340  0.83650  0.14900  1.0000 0.141950416
H   H55       1.0  0.34570  0.15700  0.94560  1.0000 0.141950416
H   H56       1.0  0.15700  0.94560  0.34570  1.0000 0.141950416
H   H57       1.0  0.94560  0.34570  0.15700  1.0000 0.141950416
H   H58       1.0  0.65430  0.84300  0.05440  1.0000 0.141950416
H   H59       1.0  0.84300  0.05440  0.65430  1.0000 0.141950416
H   H60       1.0  0.05440  0.65430  0.84300  1.0000 0.141950416
H   H61       1.0  0.26550  0.84000  0.69150  1.0000 0.1024479646
H   H62       1.0  0.84000  0.69150  0.26550  1.0000 0.1024479646
H   H63       1.0  0.69150  0.26550  0.84000  1.0000 0.1024479646
H   H64       1.0  0.73450  0.16000  0.30850  1.0000 0.1024479646
H   H65       1.0  0.16000  0.30850  0.73450  1.0000 0.1024479646
H   H66       1.0  0.30850  0.73450  0.16000  1.0000 0.1024479646
H   H67       1.0  0.43970  0.13320  0.03650  1.0000 0.1024479646
H   H68       1.0  0.13320  0.03650  0.43970  1.0000 0.1024479646
H   H69       1.0  0.03650  0.43970  0.13320  1.0000 0.1024479646
H   H70       1.0  0.56030  0.86680  0.96350  1.0000 0.1024479646
H   H71       1.0  0.86680  0.96350  0.56030  1.0000 0.1024479646
H   H72       1.0  0.96350  0.56030  0.86680  1.0000 0.1024479646
C   C1        1.0  0.65628  0.66659  0.26813  1.0000 -0.089733814
C   C2        1.0  0.66659  0.26813  0.65628  1.0000 -0.0959762522
C   C3        1.0  0.26813  0.65628  0.66659  1.0000 -0.0959762522
C   C4        1.0  0.34372  0.33341  0.73187  1.0000 -0.0959762522
C   C5        1.0  0.33341  0.73187  0.34372  1.0000 -0.089733814
C   C6        1.0  0.73187  0.34372  0.33341  1.0000 -0.0959762522
C   C7        1.0  0.78330  0.73369  0.38091  1.0000 0.1704750526
C   C8        1.0  0.73369  0.38091  0.78330  1.0000 0.1704750526
C   C9        1.0  0.38091  0.78330  0.73369  1.0000 0.1704750526
C   C10       1.0  0.21670  0.26631  0.61909  1.0000 0.1704750526
C   C11       1.0  0.26631  0.61909  0.21670  1.0000 0.1704750526
C   C12       1.0  0.61909  0.21670  0.26631  1.0000 0.1704750526
C   C13       1.0  0.01633  0.88935  0.56912  1.0000 0.1704750526
C   C14       1.0  0.88935  0.56912  0.01633  1.0000 0.1704750526
C   C15       1.0  0.56912  0.01633  0.88935  1.0000 0.1704750526
C   C16       1.0  0.98367  0.11065  0.43088  1.0000 0.1704750526
C   C17       1.0  0.11065  0.43088  0.98367  1.0000 0.1704750526
C   C18       1.0  0.43088  0.98367  0.11065  1.0000 0.1704750526
C   C19       1.0  0.17146  0.01141  0.68493  1.0000 -0.089733814
C   C20       1.0  0.01141  0.68493  0.17146  1.0000 -0.089733814
C   C21       1.0  0.68493  0.17146  0.01141  1.0000 -0.089733814
C   C22       1.0  0.82854  0.98859  0.31507  1.0000 -0.089733814
C   C23       1.0  0.98859  0.31507  0.82854  1.0000 -0.089733814
C   C24       1.0  0.31507  0.82854  0.98859  1.0000 -0.089733814
C   C25       1.0  0.78145  0.66951  0.39984  1.0000 -0.209145234
C   C26       1.0  0.66951  0.39984  0.78145  1.0000 -0.209145234
C   C27       1.0  0.39984  0.78145  0.66951  1.0000 -0.209145234
C   C28       1.0  0.21855  0.33049  0.60016  1.0000 -0.209145234
C   C29       1.0  0.33049  0.60016  0.21855  1.0000 -0.209145234
C   C30       1.0  0.60016  0.21855  0.33049  1.0000 -0.209145234
C   C31       1.0  0.65484  0.72096  0.23890  1.0000 0.1704750526
C   C32       1.0  0.72096  0.23890  0.65484  1.0000 0.1704750526
C   C33       1.0  0.23890  0.65484  0.72096  1.0000 0.1704750526
C   C34       1.0  0.34516  0.27904  0.76110  1.0000 0.1704750526
C   C35       1.0  0.27904  0.76110  0.34516  1.0000 0.1704750526
C   C36       1.0  0.76110  0.34516  0.27904  1.0000 0.1704750526
C   C37       1.0  0.73327  0.86781  0.26112  1.0000 0.1704750526
C   C38       1.0  0.86781  0.26112  0.73327  1.0000 0.1704750526
C   C39       1.0  0.26112  0.73327  0.86781  1.0000 0.1704750526
C   C40       1.0  0.26673  0.13219  0.73888  1.0000 0.1704750526
C   C41       1.0  0.13219  0.73888  0.26673  1.0000 0.1704750526
C   C42       1.0  0.73888  0.26673  0.13219  1.0000 0.1704750526
C   C43       1.0  0.51090  0.52754  0.17336  1.0000 0.1301016647
C   C44       1.0  0.52754  0.17336  0.51090  1.0000 0.1301016647
C   C45       1.0  0.17336  0.51090  0.52754  1.0000 0.1301016647
C   C46       1.0  0.48910  0.47246  0.82664  1.0000 0.1301016647
C   C47       1.0  0.47246  0.82664  0.48910  1.0000 0.1301016647
C   C48       1.0  0.82664  0.48910  0.47246  1.0000 0.1301016647
C   C49       1.0  0.92404  0.76505  0.51541  1.0000 -0.2011105978
C   C50       1.0  0.76505  0.51541  0.92404  1.0000 -0.2011105978
C   C51       1.0  0.51541  0.92404  0.76505  1.0000 -0.2011105978
C   C52       1.0  0.07596  0.23495  0.48459  1.0000 -0.2011105978
C   C53       1.0  0.23495  0.48459  0.07596  1.0000 -0.2011105978
C   C54       1.0  0.48459  0.07596  0.23495  1.0000 -0.2011105978
C   C55       1.0  0.52985  0.66476  0.13929  1.0000 -0.209145234
C   C56       1.0  0.66476  0.13929  0.52985  1.0000 -0.209145234
C   C57       1.0  0.13929  0.52985  0.66476  1.0000 -0.209145234
C   C58       1.0  0.47015  0.33524  0.86071  1.0000 -0.209145234
C   C59       1.0  0.33524  0.86071  0.47015  1.0000 -0.209145234
C   C60       1.0  0.86071  0.47015  0.33524  1.0000 -0.209145234
C   C61       1.0  0.38661  0.38932  0.01917  1.0000 -0.1924489154
C   C62       1.0  0.38932  0.01917  0.38661  1.0000 -0.1924489154
C   C63       1.0  0.01917  0.38661  0.38932  1.0000 -0.1924489154
C   C64       1.0  0.61339  0.61068  0.98083  1.0000 -0.1924489154
C   C65       1.0  0.61068  0.98083  0.61339  1.0000 -0.1924489154
C   C66       1.0  0.98083  0.61339  0.61068  1.0000 -0.1924489154
C   C67       1.0  0.57942  0.75572  0.15356  1.0000 -0.2011105978
C   C68       1.0  0.75572  0.15356  0.57942  1.0000 -0.2011105978
C   C69       1.0  0.15356  0.57942  0.75572  1.0000 -0.2011105978
C   C70       1.0  0.42058  0.24428  0.84644  1.0000 -0.2011105978
C   C71       1.0  0.24428  0.84644  0.42058  1.0000 -0.2011105978
C   C72       1.0  0.84644  0.42058  0.24428  1.0000 -0.2011105978
C   C73       1.0  0.49539  0.53051  0.23690  1.0000 -0.2011105978
C   C74       1.0  0.53051  0.23690  0.49539  1.0000 -0.2011105978
C   C75       1.0  0.23690  0.49539  0.53051  1.0000 -0.2011105978
C   C76       1.0  0.50461  0.46949  0.76310  1.0000 -0.2011105978
C   C77       1.0  0.46949  0.76310  0.50461  1.0000 -0.2011105978
C   C78       1.0  0.76310  0.50461  0.46949  1.0000 -0.2011105978
C   C79       1.0  0.36041  0.39952  0.14617  1.0000 0.0705682345
C   C80       1.0  0.39952  0.14617  0.36041  1.0000 0.0705682345
C   C81       1.0  0.14617  0.36041  0.39952  1.0000 0.0705682345
C   C82       1.0  0.63959  0.60048  0.85383  1.0000 0.0705682345
C   C83       1.0  0.60048  0.85383  0.63959  1.0000 0.0705682345
C   C84       1.0  0.85383  0.63959  0.60048  1.0000 0.0705682345
C   C85       1.0  0.25794  0.26462  0.93804  1.0000 0.0616737028
C   C86       1.0  0.26462  0.93804  0.25794  1.0000 0.0616737028
C   C87       1.0  0.93804  0.25794  0.26462  1.0000 0.0616737028
C   C88       1.0  0.74206  0.73538  0.06196  1.0000 0.0616737028
C   C89       1.0  0.73538  0.06196  0.74206  1.0000 0.0616737028
C   C90       1.0  0.06196  0.74206  0.73538  1.0000 0.0616737028
C   C91       1.0  0.24078  0.00409  0.75283  1.0000 0.1301016647
C   C92       1.0  0.00409  0.75283  0.24078  1.0000 0.1301016647
C   C93       1.0  0.75283  0.24078  0.00409  1.0000 0.1301016647
C   C94       1.0  0.75922  0.99591  0.24717  1.0000 0.1301016647
C   C95       1.0  0.99591  0.24717  0.75922  1.0000 0.1301016647
C   C96       1.0  0.24717  0.75922  0.99591  1.0000 0.1301016647
C   C97       1.0  0.21949  0.91016  0.67905  1.0000 -0.2011105978
C   C98       1.0  0.91016  0.67905  0.21949  1.0000 -0.2011105978
C   C99       1.0  0.67905  0.21949  0.91016  1.0000 -0.2011105978
C   C100      1.0  0.78051  0.08984  0.32095  1.0000 -0.2011105978
C   C101      1.0  0.08984  0.32095  0.78051  1.0000 -0.2011105978
C   C102      1.0  0.32095  0.78051  0.08984  1.0000 -0.2011105978
C   C103      1.0  0.32664  0.09066  0.89060  1.0000 -0.1924489154
C   C104      1.0  0.09066  0.89060  0.32664  1.0000 -0.1924489154
C   C105      1.0  0.89060  0.32664  0.09066  1.0000 -0.1924489154
C   C106      1.0  0.67336  0.90934  0.10940  1.0000 -0.1924489154
C   C107      1.0  0.90934  0.10940  0.67336  1.0000 -0.1924489154
C   C108      1.0  0.10940  0.67336  0.90934  1.0000 -0.1924489154
C   C109      1.0  0.28174  0.90458  0.74328  1.0000 0.0705682345
C   C110      1.0  0.90458  0.74328  0.28174  1.0000 0.0705682345
C   C111      1.0  0.74328  0.28174  0.90458  1.0000 0.0705682345
C   C112      1.0  0.71826  0.09542  0.25672  1.0000 0.0705682345
C   C113      1.0  0.09542  0.25672  0.71826  1.0000 0.0705682345
C   C114      1.0  0.25672  0.71826  0.09542  1.0000 0.0616737028
C   C115      1.0  0.38326  0.07573  0.94431  1.0000 0.0705682345
C   C116      1.0  0.07573  0.94431  0.38326  1.0000 0.0705682345
C   C117      1.0  0.94431  0.38326  0.07573  1.0000 0.0705682345
C   C118      1.0  0.61674  0.92427  0.05569  1.0000 0.0705682345
C   C119      1.0  0.92427  0.05569  0.61674  1.0000 0.0705682345
C   C120      1.0  0.05569  0.61674  0.92427  1.0000 0.0705682345
N   N1        1.0  0.92708  0.86689  0.48583  1.0000 -0.3710321164
N   N2        1.0  0.86689  0.48583  0.92708  1.0000 -0.3710321164
N   N3        1.0  0.48583  0.92708  0.86689  1.0000 -0.3710321164
N   N4        1.0  0.07292  0.13311  0.51417  1.0000 -0.3710321164
N   N5        1.0  0.13311  0.51417  0.07292  1.0000 -0.3710321164
N   N6        1.0  0.51417  0.07292  0.13311  1.0000 -0.3710321164
N   N7        1.0  0.77434  0.84151  0.30845  1.0000 -0.3710321164
N   N8        1.0  0.84151  0.30845  0.77434  1.0000 -0.3710321164
N   N9        1.0  0.30845  0.77434  0.84151  1.0000 -0.3710321164
N   N10       1.0  0.22566  0.15849  0.69155  1.0000 -0.3710321164
N   N11       1.0  0.15849  0.69155  0.22566  1.0000 -0.3710321164
N   N12       1.0  0.69155  0.22566  0.15849  1.0000 -0.3710321164
N   N13       1.0  0.36331  0.98619  0.87470  1.0000 -0.209145234
N   N14       1.0  0.98619  0.87470  0.36331  1.0000 -0.209145234
N   N15       1.0  0.87470  0.36331  0.98619  1.0000 -0.209145234
N   N16       1.0  0.63669  0.01381  0.12530  1.0000 -0.209145234
N   N17       1.0  0.01381  0.12530  0.63669  1.0000 -0.209145234
N   N18       1.0  0.12530  0.63669  0.01381  1.0000 -0.209145234
N   N19       1.0  0.24120  0.26645  0.99795  1.0000 -0.2456044034
N   N20       1.0  0.26645  0.99795  0.24120  1.0000 -0.2456044034
N   N21       1.0  0.99795  0.24120  0.26645  1.0000 -0.2456044034
N   N22       1.0  0.75880  0.73355  0.00205  1.0000 -0.2456044034
N   N23       1.0  0.73355  0.00205  0.75880  1.0000 -0.2456044034
N   N24       1.0  0.00205  0.75880  0.73355  1.0000 -0.2456044034
