# DDEC6 charges by PACMAN v1.1 (https://github.com/mtap-research/PACMAN-charge/)
data_2015[Cd][nan]3[ASR]28
_chemical_formula_sum              "Cd5 H24 C44 N10 O16"
_cell_length_a       10.102
_cell_length_b       10.769
_cell_length_c       14.4953
_cell_angle_alpha    98.0125
_cell_angle_beta     95.7037
_cell_angle_gamma    110.535

_symmetry_space_group_name_H-M    "P 1"
_symmetry_Int_Tables_number       1

loop_
  _symmetry_equiv_pos_as_xyz
  'x, y, z'

loop_
  _atom_site_type_symbol
  _atom_site_label
  _atom_site_symmetry_multiplicity
  _atom_site_fract_x
  _atom_site_fract_y
  _atom_site_fract_z
  _atom_site_occupancy
  _atom_site_charge
Cd  Cd1       1.0  0.00000  0.50000  0.00000  1.0000 0.980659796
Cd  Cd2       1.0  0.02308  0.27707  0.17915  1.0000 0.891440047
Cd  Cd3       1.0  0.97692  0.72293  0.82085  1.0000 0.891440047
Cd  Cd4       1.0  0.90262  0.36299  0.40275  1.0000 0.9327618313
Cd  Cd5       1.0  0.09738  0.63701  0.59725  1.0000 0.9327618313
H   H1        1.0  0.16780  0.92490  0.33580  1.0000 0.1455918086
H   H2        1.0  0.83220  0.07510  0.66420  1.0000 0.1455918086
H   H3        1.0  0.17790  0.13760  0.31360  1.0000 0.1203822582
H   H4        1.0  0.82210  0.86240  0.68640  1.0000 0.1203822582
H   H5        1.0  0.92390  0.98340  0.07240  1.0000 0.1059710738
H   H6        1.0  0.07610  0.01660  0.92760  1.0000 0.1059710738
H   H7        1.0  0.91410  0.77120  0.08350  1.0000 0.1406880301
H   H8        1.0  0.08590  0.22880  0.91650  1.0000 0.1406880301
H   H9        1.0  0.52680  0.21350  0.93260  1.0000 0.1203822582
H   H10       1.0  0.47320  0.78650  0.06740  1.0000 0.1203822582
H   H11       1.0  0.33120  0.05290  0.83110  1.0000 0.1203822582
H   H12       1.0  0.66880  0.94710  0.16890  1.0000 0.1203822582
H   H13       1.0  0.54280  0.79860  0.81280  1.0000 0.1203822582
H   H14       1.0  0.45720  0.20140  0.18720  1.0000 0.1203822582
H   H15       1.0  0.72870  0.95680  0.92680  1.0000 0.1203822582
H   H16       1.0  0.27130  0.04320  0.07320  1.0000 0.1203822582
H   H17       1.0  0.35160  0.50870  0.60970  1.0000 0.1203822582
H   H18       1.0  0.64840  0.49130  0.39030  1.0000 0.1203822582
H   H19       1.0  0.40210  0.41890  0.34050  1.0000 0.1290114951
H   H20       1.0  0.59790  0.58110  0.65950  1.0000 0.1290114951
H   H21       1.0  0.53090  0.46480  0.15150  1.0000 0.1290114951
H   H22       1.0  0.46910  0.53520  0.84850  1.0000 0.1290114951
H   H23       1.0  0.27140  0.46420  0.92640  1.0000 0.1203822582
H   H24       1.0  0.72860  0.53580  0.07360  1.0000 0.1203822582
C   C1        1.0  0.01210  0.68520  0.22960  1.0000 0.2313783151
C   C2        1.0  0.98790  0.31480  0.77040  1.0000 0.2313783151
C   C3        1.0  0.03450  0.82200  0.21410  1.0000 0.091674629
C   C4        1.0  0.96550  0.17800  0.78590  1.0000 0.091674629
C   C5        1.0  0.11690  0.93440  0.28190  1.0000 -0.1733833644
C   C6        1.0  0.88310  0.06560  0.71810  1.0000 -0.1733833644
C   C7        1.0  0.12260  0.06200  0.26840  1.0000 0.091674629
C   C8        1.0  0.87740  0.93800  0.73160  1.0000 0.091674629
C   C9        1.0  0.97370  0.97090  0.12560  1.0000 0.091674629
C   C10       1.0  0.02630  0.02910  0.87440  1.0000 0.091674629
C   C11       1.0  0.96530  0.84330  0.13250  1.0000 -0.1911284942
C   C12       1.0  0.03470  0.15670  0.86750  1.0000 -0.1911284942
C   C13       1.0  0.77820  0.20590  0.00200  1.0000 0.580654972
C   C14       1.0  0.22180  0.79410  0.99800  1.0000 0.580654972
C   C15       1.0  0.64900  0.10010  0.93510  1.0000 -0.0161481006
C   C16       1.0  0.35100  0.89990  0.06490  1.0000 -0.0161481006
C   C17       1.0  0.52910  0.12960  0.90890  1.0000 -0.0992587674
C   C18       1.0  0.47090  0.87040  0.09110  1.0000 -0.0992587674
C   C19       1.0  0.41250  0.03400  0.84740  1.0000 -0.0992587674
C   C20       1.0  0.58750  0.96600  0.15260  1.0000 -0.0992587674
C   C21       1.0  0.41770  0.91180  0.81090  1.0000 -0.0111116848
C   C22       1.0  0.58230  0.08820  0.18910  1.0000 -0.0111116848
C   C23       1.0  0.53790  0.88090  0.83790  1.0000 -0.0992587674
C   C24       1.0  0.46210  0.11910  0.16210  1.0000 -0.0992587674
C   C25       1.0  0.65130  0.97790  0.90420  1.0000 -0.1098405811
C   C26       1.0  0.34870  0.02210  0.09580  1.0000 -0.1098405811
C   C27       1.0  0.29990  0.80870  0.73910  1.0000 0.5713720055
C   C28       1.0  0.70010  0.19130  0.26090  1.0000 0.5713720055
C   C29       1.0  0.19720  0.42210  0.43870  1.0000 0.5908810329
C   C30       1.0  0.80280  0.57790  0.56130  1.0000 0.5908810329
C   C31       1.0  0.35380  0.46340  0.47100  1.0000 -0.0333303119
C   C32       1.0  0.64620  0.53660  0.52900  1.0000 -0.0333303119
C   C33       1.0  0.41170  0.50670  0.56540  1.0000 -0.0880974922
C   C34       1.0  0.58830  0.49330  0.43460  1.0000 -0.0880974922
C   C35       1.0  0.44080  0.45240  0.40390  1.0000 -0.0992587674
C   C36       1.0  0.55920  0.54760  0.59610  1.0000 -0.0992587674
C   C37       1.0  0.25670  0.40420  0.09710  1.0000 0.580654972
C   C38       1.0  0.74330  0.59580  0.90290  1.0000 0.5713720055
C   C39       1.0  0.38440  0.45870  0.04700  1.0000 -0.0161481006
C   C40       1.0  0.61560  0.54130  0.95300  1.0000 -0.0161481006
C   C41       1.0  0.51810  0.47920  0.09000  1.0000 -0.0992587674
C   C42       1.0  0.48190  0.52080  0.91000  1.0000 -0.0992587674
C   C43       1.0  0.36260  0.47850  0.95650  1.0000 -0.0992587674
C   C44       1.0  0.63740  0.52150  0.04350  1.0000 -0.0992587674
N   N1        1.0  0.00470  0.57880  0.16580  1.0000 -0.2835943568
N   N2        1.0  0.99530  0.42120  0.83420  1.0000 -0.2835943568
N   N3        1.0  0.98240  0.47730  0.21540  1.0000 -0.0831043329
N   N4        1.0  0.01760  0.52270  0.78460  1.0000 -0.0831043329
N   N5        1.0  0.97780  0.52120  0.30340  1.0000 -0.0598463061
N   N6        1.0  0.02220  0.47880  0.69660  1.0000 -0.0598463061
N   N7        1.0  0.99520  0.65140  0.31410  1.0000 -0.2511739004
N   N8        1.0  0.00480  0.34860  0.68590  1.0000 -0.2511739004
N   N9        1.0  0.04920  0.07690  0.19090  1.0000 -0.2257878649
N   N10       1.0  0.95080  0.92310  0.80910  1.0000 -0.2257878649
O   O1        1.0  0.79900  0.32670  0.99920  1.0000 -0.5598039049
O   O2        1.0  0.20100  0.67330  0.00080  1.0000 -0.5598039049
O   O3        1.0  0.85320  0.16350  0.05260  1.0000 -0.5477464664
O   O4        1.0  0.14680  0.83650  0.94740  1.0000 -0.5477464664
O   O5        1.0  0.17200  0.80870  0.73530  1.0000 -0.5924443174
O   O6        1.0  0.82800  0.19130  0.26470  1.0000 -0.5924443174
O   O7        1.0  0.32900  0.73040  0.68000  1.0000 -0.5235525834
O   O8        1.0  0.67100  0.26960  0.32000  1.0000 -0.5235525834
O   O9        1.0  0.12570  0.46360  0.49680  1.0000 -0.5826652515
O   O10       1.0  0.87430  0.53640  0.50320  1.0000 -0.5826652515
O   O11       1.0  0.13590  0.34830  0.36130  1.0000 -0.5598039049
O   O12       1.0  0.86410  0.65170  0.63870  1.0000 -0.5598039049
O   O13       1.0  0.13220  0.38620  0.05320  1.0000 -0.6049886811
O   O14       1.0  0.86780  0.61380  0.94680  1.0000 -0.6049886811
O   O15       1.0  0.27430  0.37400  0.17620  1.0000 -0.5235525834
O   O16       1.0  0.72570  0.62600  0.82380  1.0000 -0.5235525834
