# DDEC6 charges by PACMAN v1.1 (https://github.com/mtap-research/PACMAN-charge/)
data_2015[Mn][nan]3[ASR]14
_chemical_formula_sum              "Mn8 P6 H12 C16 O56"
_cell_length_a       9.57097
_cell_length_b       9.57097
_cell_length_c       22.2812
_cell_angle_alpha    80.513
_cell_angle_beta     99.487
_cell_angle_gamma    106.805

_symmetry_space_group_name_H-M    "P 1"
_symmetry_Int_Tables_number       1

loop_
  _symmetry_equiv_pos_as_xyz
  'x, y, z'

loop_
  _atom_site_type_symbol
  _atom_site_label
  _atom_site_symmetry_multiplicity
  _atom_site_fract_x
  _atom_site_fract_y
  _atom_site_fract_z
  _atom_site_occupancy
  _atom_site_charge
Mn  Mn1       1.0  0.00111  0.05103  0.57122  1.0000 1.0702510044
Mn  Mn2       1.0  0.05103  0.00111  0.92878  1.0000 1.0702510044
Mn  Mn3       1.0  0.99889  0.94897  0.42878  1.0000 1.0702510044
Mn  Mn4       1.0  0.94897  0.99889  0.07122  1.0000 1.0702510044
Mn  Mn5       1.0  0.33869  0.62907  0.62036  1.0000 1.0966864393
Mn  Mn6       1.0  0.62907  0.33869  0.87964  1.0000 1.0966864393
Mn  Mn7       1.0  0.66131  0.37093  0.37964  1.0000 1.0966864393
Mn  Mn8       1.0  0.37093  0.66131  0.12036  1.0000 1.0966864393
P   P1        1.0  0.64175  0.88041  0.57431  1.0000 1.5419175789
P   P2        1.0  0.88041  0.64175  0.92569  1.0000 1.5419175789
P   P3        1.0  0.35825  0.11959  0.42569  1.0000 1.5419175789
P   P4        1.0  0.11959  0.35825  0.07431  1.0000 1.5419175789
P   P5        1.0  0.40959  0.40959  0.75000  1.0000 1.4753711388
P   P6        1.0  0.59041  0.59041  0.25000  1.0000 1.4738216564
H   H1        1.0  0.53540  0.03460  0.54510  1.0000 0.3970413074
H   H2        1.0  0.03460  0.53540  0.95490  1.0000 0.3970413074
H   H3        1.0  0.46460  0.96540  0.45490  1.0000 0.3970413074
H   H4        1.0  0.96540  0.46460  0.04510  1.0000 0.3970413074
H   H5        1.0  0.64200  0.79800  0.49750  1.0000 0.4154425428
H   H6        1.0  0.79800  0.64200  0.00250  1.0000 0.4154425428
H   H7        1.0  0.35800  0.20200  0.50250  1.0000 0.4154425428
H   H8        1.0  0.20200  0.35800  0.99750  1.0000 0.4154425428
H   H9        1.0  0.32660  0.20540  0.72840  1.0000 0.3970413074
H   H10       1.0  0.20540  0.32660  0.77160  1.0000 0.3970413074
H   H11       1.0  0.67340  0.79460  0.27160  1.0000 0.3970413074
H   H12       1.0  0.79460  0.67340  0.22840  1.0000 0.3970413074
C   C1        1.0  0.16360  0.83340  0.55938  1.0000 0.5073604599
C   C2        1.0  0.83340  0.16360  0.94062  1.0000 0.5073604599
C   C3        1.0  0.83640  0.16660  0.44062  1.0000 0.5073604599
C   C4        1.0  0.16660  0.83640  0.05938  1.0000 0.5073604599
C   C5        1.0  0.18330  0.84870  0.62913  1.0000 0.500169681
C   C6        1.0  0.84870  0.18330  0.87087  1.0000 0.500169681
C   C7        1.0  0.81670  0.15130  0.37087  1.0000 0.500169681
C   C8        1.0  0.15130  0.81670  0.12913  1.0000 0.500169681
C   C9        1.0  0.23270  0.33950  0.57397  1.0000 0.4880586431
C   C10       1.0  0.33950  0.23270  0.92603  1.0000 0.4880586431
C   C11       1.0  0.76730  0.66050  0.42603  1.0000 0.4880586431
C   C12       1.0  0.66050  0.76730  0.07397  1.0000 0.4880586431
C   C13       1.0  0.10660  0.34740  0.60819  1.0000 0.4795061216
C   C14       1.0  0.34740  0.10660  0.89181  1.0000 0.4795061216
C   C15       1.0  0.89340  0.65260  0.39181  1.0000 0.4795061216
C   C16       1.0  0.65260  0.89340  0.10819  1.0000 0.4795061216
O   O1        1.0  0.80276  0.91264  0.59466  1.0000 -0.7314207166
O   O2        1.0  0.91264  0.80276  0.90534  1.0000 -0.7314207166
O   O3        1.0  0.19724  0.08736  0.40534  1.0000 -0.7314207166
O   O4        1.0  0.08736  0.19724  0.09466  1.0000 -0.7314207166
O   O5        1.0  0.55558  0.75602  0.61390  1.0000 -0.7314207166
O   O6        1.0  0.75602  0.55558  0.88610  1.0000 -0.7314207166
O   O7        1.0  0.44442  0.24398  0.38610  1.0000 -0.7314207166
O   O8        1.0  0.24398  0.44442  0.11390  1.0000 -0.7314207166
O   O9        1.0  0.59120  0.02080  0.57626  1.0000 -0.5670544639
O   O10       1.0  0.02080  0.59120  0.92374  1.0000 -0.5670544639
O   O11       1.0  0.40880  0.97920  0.42374  1.0000 -0.5670544639
O   O12       1.0  0.97920  0.40880  0.07626  1.0000 -0.5670544639
O   O13       1.0  0.60357  0.85883  0.50458  1.0000 -0.5889516905
O   O14       1.0  0.85883  0.60357  0.99542  1.0000 -0.5889516905
O   O15       1.0  0.39643  0.14117  0.49542  1.0000 -0.5889516905
O   O16       1.0  0.14117  0.39643  0.00458  1.0000 -0.5889516905
O   O17       1.0  0.41980  0.54620  0.70717  1.0000 -0.6994696244
O   O18       1.0  0.54620  0.41980  0.79283  1.0000 -0.6994696244
O   O19       1.0  0.58020  0.45380  0.29283  1.0000 -0.6994696244
O   O20       1.0  0.45380  0.58020  0.20717  1.0000 -0.6994696244
O   O21       1.0  0.37270  0.28150  0.70973  1.0000 -0.5466090574
O   O22       1.0  0.28150  0.37270  0.79027  1.0000 -0.5466090574
O   O23       1.0  0.62730  0.71850  0.29027  1.0000 -0.5466090574
O   O24       1.0  0.71850  0.62730  0.20973  1.0000 -0.5466090574
O   O25       1.0  0.08048  0.90372  0.52552  1.0000 -0.5070380702
O   O26       1.0  0.90372  0.08048  0.97448  1.0000 -0.5070380702
O   O27       1.0  0.91952  0.09628  0.47448  1.0000 -0.5070380702
O   O28       1.0  0.09628  0.91952  0.02552  1.0000 -0.5070380702
O   O29       1.0  0.22858  0.75482  0.54287  1.0000 -0.4436046913
O   O30       1.0  0.75482  0.22858  0.95713  1.0000 -0.4436046913
O   O31       1.0  0.77142  0.24518  0.45713  1.0000 -0.4436046913
O   O32       1.0  0.24518  0.77142  0.04287  1.0000 -0.4436046913
O   O33       1.0  0.12042  0.93358  0.64474  1.0000 -0.4746607974
O   O34       1.0  0.93358  0.12042  0.85526  1.0000 -0.4746607974
O   O35       1.0  0.87958  0.06642  0.35526  1.0000 -0.4746607974
O   O36       1.0  0.06642  0.87958  0.14474  1.0000 -0.4746607974
O   O37       1.0  0.25771  0.77509  0.66394  1.0000 -0.4495080433
O   O38       1.0  0.77509  0.25771  0.83606  1.0000 -0.4495080433
O   O39       1.0  0.74229  0.22491  0.33606  1.0000 -0.4495080433
O   O40       1.0  0.22491  0.74229  0.16394  1.0000 -0.4495080433
O   O41       1.0  0.21288  0.22172  0.55143  1.0000 -0.5070380702
O   O42       1.0  0.22172  0.21288  0.94857  1.0000 -0.5070380702
O   O43       1.0  0.78712  0.77828  0.44857  1.0000 -0.5070380702
O   O44       1.0  0.77828  0.78712  0.05143  1.0000 -0.5070380702
O   O45       1.0  0.33950  0.44970  0.57025  1.0000 -0.4495080433
O   O46       1.0  0.44970  0.33950  0.92975  1.0000 -0.4495080433
O   O47       1.0  0.66050  0.55030  0.42975  1.0000 -0.4495080433
O   O48       1.0  0.55030  0.66050  0.07025  1.0000 -0.4495080433
O   O49       1.0  0.00217  0.23263  0.61542  1.0000 -0.4583119586
O   O50       1.0  0.23263  0.00217  0.88458  1.0000 -0.4583119586
O   O51       1.0  0.99783  0.76737  0.38458  1.0000 -0.4583119586
O   O52       1.0  0.76737  0.99783  0.11542  1.0000 -0.4583119586
O   O53       1.0  0.11513  0.46667  0.62599  1.0000 -0.4761773407
O   O54       1.0  0.46667  0.11513  0.87401  1.0000 -0.4761773407
O   O55       1.0  0.88487  0.53333  0.37401  1.0000 -0.4761773407
O   O56       1.0  0.53333  0.88487  0.12599  1.0000 -0.4761773407
