# DDEC6 charges by PACMAN v1.1 (https://github.com/mtap-research/PACMAN-charge/)
data_2015[Tb][nan]3[ASR]8
_chemical_formula_sum              "Tb4 H60 C120 O36"
_cell_length_a       31.4766
_cell_length_b       26.5617
_cell_length_c       17.9241
_cell_angle_alpha    87.8324
_cell_angle_beta     57.4848
_cell_angle_gamma    34.6828

_symmetry_space_group_name_H-M    "P 1"
_symmetry_Int_Tables_number       1

loop_
  _symmetry_equiv_pos_as_xyz
  'x, y, z'

loop_
  _atom_site_type_symbol
  _atom_site_label
  _atom_site_symmetry_multiplicity
  _atom_site_fract_x
  _atom_site_fract_y
  _atom_site_fract_z
  _atom_site_occupancy
  _atom_site_charge
Tb  Tb1       1.0  0.38132  0.38132  0.11868  1.0000 2.1145021212
Tb  Tb2       1.0  0.13132  0.13132  0.86868  1.0000 2.1145021212
Tb  Tb3       1.0  0.85565  0.85565  0.64435  1.0000 2.0889866841
Tb  Tb4       1.0  0.60565  0.60565  0.39435  1.0000 2.0889866841
H   H1        1.0  0.45370  0.00130  0.04510  1.0000 0.111167356
H   H2        1.0  0.00130  0.45370  0.49990  1.0000 0.111167356
H   H3        1.0  0.75010  0.20490  0.24870  1.0000 0.111167356
H   H4        1.0  0.20490  0.75010  0.79630  1.0000 0.111167356
H   H5        1.0  0.51000  0.79820  0.03380  1.0000 0.111167356
H   H6        1.0  0.79820  0.51000  0.65800  1.0000 0.111167356
H   H7        1.0  0.59200  0.21620  0.45180  1.0000 0.111167356
H   H8        1.0  0.21620  0.59200  0.74000  1.0000 0.111167356
H   H9        1.0  0.17210  0.17370  0.18730  1.0000 0.1035541039
H   H10       1.0  0.17370  0.17210  0.46690  1.0000 0.1035541039
H   H11       1.0  0.78310  0.06270  0.07630  1.0000 0.1035541039
H   H12       1.0  0.06270  0.78310  0.07790  1.0000 0.1035541039
H   H13       1.0  0.05100  0.46920  0.32960  1.0000 0.1212828862
H   H14       1.0  0.46920  0.05100  0.15020  1.0000 0.1212828862
H   H15       1.0  0.09980  0.92040  0.78080  1.0000 0.1212828862
H   H16       1.0  0.92040  0.09980  0.19900  1.0000 0.1212828862
H   H17       1.0  0.15210  0.45630  0.25030  1.0000 0.1212828862
H   H18       1.0  0.45630  0.15210  0.14130  1.0000 0.1212828862
H   H19       1.0  0.10870  0.99970  0.79370  1.0000 0.1212828862
H   H20       1.0  0.99970  0.10870  0.09790  1.0000 0.1212828862
H   H21       1.0  0.60770  0.97450  0.79150  1.0000 0.1351838004
H   H22       1.0  0.97450  0.60770  0.62630  1.0000 0.1351838004
H   H23       1.0  0.62370  0.45850  0.27550  1.0000 0.1351838004
H   H24       1.0  0.45850  0.62370  0.64230  1.0000 0.1351838004
H   H25       1.0  0.51220  0.98280  0.87520  1.0000 0.1212828862
H   H26       1.0  0.98280  0.51220  0.62980  1.0000 0.1212828862
H   H27       1.0  0.62020  0.37480  0.26720  1.0000 0.1212828862
H   H28       1.0  0.37480  0.62020  0.73780  1.0000 0.1212828862
H   H29       1.0  0.89900  0.50780  0.81000  1.0000 0.111167356
H   H30       1.0  0.50780  0.89900  0.78320  1.0000 0.111167356
H   H31       1.0  0.46680  0.44000  0.74220  1.0000 0.111167356
H   H32       1.0  0.44000  0.46680  0.35100  1.0000 0.111167356
H   H33       1.0  0.95620  0.40720  0.86600  1.0000 0.1212828862
H   H34       1.0  0.40720  0.95620  0.77060  1.0000 0.1212828862
H   H35       1.0  0.47940  0.38400  0.84280  1.0000 0.1212828862
H   H36       1.0  0.38400  0.47940  0.29380  1.0000 0.1212828862
H   H37       1.0  0.50060  0.78580  0.27300  1.0000 0.1212828862
H   H38       1.0  0.78580  0.50060  0.44060  1.0000 0.1212828862
H   H39       1.0  0.80940  0.97700  0.46420  1.0000 0.1212828862
H   H40       1.0  0.97700  0.80940  0.74940  1.0000 0.1212828862
H   H41       1.0  0.44840  0.87920  0.21120  1.0000 0.111167356
H   H42       1.0  0.87920  0.44840  0.46120  1.0000 0.111167356
H   H43       1.0  0.78880  0.03880  0.37080  1.0000 0.111167356
H   H44       1.0  0.03880  0.78880  0.80160  1.0000 0.111167356
H   H45       1.0  0.02690  0.16310  0.35530  1.0000 0.1320295971
H   H46       1.0  0.16310  0.02690  0.45470  1.0000 0.1320295971
H   H47       1.0  0.79530  0.89470  0.08690  1.0000 0.1320295971
H   H48       1.0  0.89470  0.79530  0.22310  1.0000 0.1320295971
H   H49       1.0  0.87280  0.29600  0.38680  1.0000 0.1320295971
H   H50       1.0  0.29600  0.87280  0.44440  1.0000 0.1320295971
H   H51       1.0  0.80560  0.86320  0.95400  1.0000 0.1320295971
H   H52       1.0  0.86320  0.80560  0.37720  1.0000 0.1320295971
H   H53       1.0  0.17280  0.10160  0.00140  1.0000 0.1212828862
H   H54       1.0  0.10160  0.17280  0.72420  1.0000 0.1212828862
H   H55       1.0  0.52580  0.24860  0.14840  1.0000 0.1212828862
H   H56       1.0  0.24860  0.52580  0.07720  1.0000 0.1212828862
H   H57       1.0  0.31530  0.97890  0.97890  1.0000 0.111167356
H   H58       1.0  0.97890  0.31530  0.72690  1.0000 0.111167356
H   H59       1.0  0.52310  0.27110  0.27110  1.0000 0.111167356
H   H60       1.0  0.27110  0.52310  0.93470  1.0000 0.111167356
C   C1        1.0  0.30050  0.10670  0.11970  1.0000 -0.0301527954
C   C2        1.0  0.10670  0.30050  0.47310  1.0000 -0.0301527954
C   C3        1.0  0.77690  0.13030  0.14330  1.0000 -0.0301527954
C   C4        1.0  0.13030  0.77690  0.94950  1.0000 -0.0301527954
C   C5        1.0  0.42260  0.99820  0.06280  1.0000 -0.1081624617
C   C6        1.0  0.99820  0.42260  0.51640  1.0000 -0.1081624617
C   C7        1.0  0.73360  0.18720  0.25180  1.0000 -0.1081624617
C   C8        1.0  0.18720  0.73360  0.82740  1.0000 -0.1081624617
C   C9        1.0  0.50240  0.88080  0.03060  1.0000 0.0006981619
C   C10       1.0  0.88080  0.50240  0.58620  1.0000 0.0006981619
C   C11       1.0  0.66380  0.21940  0.36920  1.0000 0.0006981619
C   C12       1.0  0.21940  0.66380  0.74760  1.0000 0.0006981619
C   C13       1.0  0.45750  0.87530  0.05610  1.0000 -0.1286569576
C   C14       1.0  0.87530  0.45750  0.61110  1.0000 -0.1286569576
C   C15       1.0  0.63890  0.19390  0.37470  1.0000 -0.1286569576
C   C16       1.0  0.19390  0.63890  0.79250  1.0000 -0.1286569576
C   C17       1.0  0.33120  0.98680  0.11680  1.0000 0.0006981619
C   C18       1.0  0.98680  0.33120  0.56520  1.0000 0.0006981619
C   C19       1.0  0.68480  0.13320  0.26320  1.0000 0.0006981619
C   C20       1.0  0.13320  0.68480  0.91880  1.0000 0.0006981619
C   C21       1.0  0.25520  0.10040  0.14740  1.0000 -0.1378368619
C   C22       1.0  0.10040  0.25520  0.49700  1.0000 -0.1378368619
C   C23       1.0  0.75300  0.10260  0.14960  1.0000 -0.1378368619
C   C24       1.0  0.10260  0.75300  0.99480  1.0000 -0.1378368619
C   C25       1.0  0.20380  0.23860  0.16980  1.0000 0.3282704879
C   C26       1.0  0.23860  0.20380  0.38780  1.0000 0.3282704879
C   C27       1.0  0.86220  0.08020  0.01140  1.0000 0.3282704879
C   C28       1.0  0.08020  0.86220  0.04620  1.0000 0.3282704879
C   C29       1.0  0.26970  0.22950  0.11450  1.0000 -0.0012247814
C   C30       1.0  0.22950  0.26970  0.38630  1.0000 -0.0012247814
C   C31       1.0  0.86370  0.13550  0.02050  1.0000 -0.0012247814
C   C32       1.0  0.13550  0.86370  0.98030  1.0000 -0.0012247814
C   C33       1.0  0.16240  0.37000  0.22440  1.0000 -0.1081624617
C   C34       1.0  0.37000  0.16240  0.24320  1.0000 -0.1081624617
C   C35       1.0  0.00680  0.02560  0.88000  1.0000 -0.1081624617
C   C36       1.0  0.02560  0.00680  0.08760  1.0000 -0.1081624617
C   C37       1.0  0.22270  0.36290  0.17650  1.0000 -0.1006019236
C   C38       1.0  0.36290  0.22270  0.23790  1.0000 -0.1006019236
C   C39       1.0  0.01210  0.07350  0.88710  1.0000 -0.1006019236
C   C40       1.0  0.07350  0.01210  0.02730  1.0000 -0.1006019236
C   C41       1.0  0.38960  0.21280  0.01680  1.0000 -0.0218219113
C   C42       1.0  0.21280  0.38960  0.38080  1.0000 -0.0218219113
C   C43       1.0  0.86920  0.23320  0.03720  1.0000 -0.0218219113
C   C44       1.0  0.23320  0.86920  0.86040  1.0000 -0.0218219113
C   C45       1.0  0.49860  0.07080  0.90000  1.0000 -0.0927840225
C   C46       1.0  0.07080  0.49860  0.53060  1.0000 -0.0927840225
C   C47       1.0  0.71940  0.35000  0.17920  1.0000 -0.0927840225
C   C48       1.0  0.35000  0.71940  0.75140  1.0000 -0.0927840225
C   C49       1.0  0.44060  0.07700  0.94900  1.0000 -0.1286569576
C   C50       1.0  0.07700  0.44060  0.53340  1.0000 -0.1286569576
C   C51       1.0  0.71660  0.30100  0.17300  1.0000 -0.1286569576
C   C52       1.0  0.30100  0.71660  0.80940  1.0000 -0.1286569576
C   C53       1.0  0.45540  0.20320  0.96820  1.0000 0.6366944801
C   C54       1.0  0.20320  0.45540  0.37320  1.0000 0.6366944801
C   C55       1.0  0.87680  0.28180  0.04680  1.0000 0.6366944801
C   C56       1.0  0.28180  0.87680  0.79460  1.0000 0.6366944801
C   C57       1.0  0.63150  0.76990  0.96910  1.0000 0.3282704879
C   C58       1.0  0.76990  0.63150  0.62950  1.0000 0.3282704879
C   C59       1.0  0.62050  0.28090  0.48010  1.0000 0.3282704879
C   C60       1.0  0.28090  0.62050  0.61850  1.0000 0.3282704879
C   C61       1.0  0.66840  0.70200  0.00240  1.0000 0.0072657726
C   C62       1.0  0.70200  0.66840  0.62720  1.0000 0.0072657726
C   C63       1.0  0.62280  0.24760  0.54800  1.0000 0.0072657726
C   C64       1.0  0.24760  0.62280  0.58160  1.0000 0.0072657726
C   C65       1.0  0.81970  0.56210  0.90170  1.0000 -0.1191477055
C   C66       1.0  0.56210  0.81970  0.71650  1.0000 -0.1191477055
C   C67       1.0  0.53350  0.34830  0.68790  1.0000 -0.1191477055
C   C68       1.0  0.34830  0.53350  0.43030  1.0000 -0.1191477055
C   C69       1.0  0.85270  0.50370  0.93650  1.0000 -0.1081624617
C   C70       1.0  0.50370  0.85270  0.70710  1.0000 -0.1081624617
C   C71       1.0  0.54290  0.31350  0.74630  1.0000 -0.1081624617
C   C72       1.0  0.31350  0.54290  0.39730  1.0000 -0.1081624617
C   C73       1.0  0.73330  0.58710  0.07610  1.0000 -0.0218219113
C   C74       1.0  0.58710  0.73330  0.60350  1.0000 -0.0218219113
C   C75       1.0  0.64650  0.17390  0.66290  1.0000 -0.0218219113
C   C76       1.0  0.17390  0.64650  0.51670  1.0000 -0.0218219113
C   C77       1.0  0.58240  0.72800  0.17800  1.0000 -0.0927840225
C   C78       1.0  0.72800  0.58240  0.51160  1.0000 -0.0927840225
C   C79       1.0  0.73840  0.07200  0.52200  1.0000 -0.0927840225
C   C80       1.0  0.07200  0.73840  0.66760  1.0000 -0.0927840225
C   C81       1.0  0.55180  0.78320  0.14080  1.0000 -0.1191477055
C   C82       1.0  0.78320  0.55180  0.52420  1.0000 -0.1191477055
C   C83       1.0  0.72580  0.10920  0.46680  1.0000 -0.1191477055
C   C84       1.0  0.10920  0.72580  0.69820  1.0000 -0.1191477055
C   C85       1.0  0.77050  0.52330  0.11590  1.0000 0.6732352864
C   C86       1.0  0.52330  0.77050  0.59030  1.0000 0.6732352864
C   C87       1.0  0.65970  0.13410  0.72670  1.0000 0.6732352864
C   C88       1.0  0.13410  0.65970  0.47950  1.0000 0.6732352864
C   C89       1.0  0.27240  0.98920  0.15920  1.0000 0.3584116441
C   C90       1.0  0.98920  0.27240  0.57920  1.0000 0.3584116441
C   C91       1.0  0.67080  0.09080  0.26080  1.0000 0.3584116441
C   C92       1.0  0.09080  0.67080  0.97760  1.0000 0.3584116441
C   C93       1.0  0.18120  0.06520  0.16940  1.0000 0.0072657726
C   C94       1.0  0.06520  0.18120  0.58420  1.0000 0.0072657726
C   C95       1.0  0.66580  0.08060  0.18480  1.0000 0.0072657726
C   C96       1.0  0.08060  0.66580  0.06880  1.0000 0.0072657726
C   C97       1.0  0.05380  0.15400  0.28640  1.0000 -0.1006019236
C   C98       1.0  0.15400  0.05380  0.50580  1.0000 -0.1006019236
C   C99       1.0  0.74420  0.96360  0.09600  1.0000 -0.1006019236
C   C100      1.0  0.96360  0.74420  0.19620  1.0000 -0.1006019236
C   C101      1.0  0.96250  0.23230  0.30370  1.0000 -0.0927840225
C   C102      1.0  0.23230  0.96250  0.50150  1.0000 -0.0927840225
C   C103      1.0  0.74850  0.94630  0.01770  1.0000 -0.0927840225
C   C104      1.0  0.94630  0.74850  0.28750  1.0000 -0.0927840225
C   C105      1.0  0.00240  0.21740  0.19880  1.0000 -0.0012247814
C   C106      1.0  0.21740  0.00240  0.58140  1.0000 -0.0012247814
C   C107      1.0  0.66860  0.05120  0.03260  1.0000 -0.0012247814
C   C108      1.0  0.05120  0.66860  0.24760  1.0000 -0.0012247814
C   C109      1.0  0.13890  0.11830  0.07630  1.0000 -0.1006019236
C   C110      1.0  0.11830  0.13890  0.66650  1.0000 -0.1006019236
C   C111      1.0  0.58350  0.17370  0.13170  1.0000 -0.1006019236
C   C112      1.0  0.17370  0.58350  0.11110  1.0000 -0.1006019236
C   C113      1.0  0.22310  0.04590  0.06410  1.0000 -0.1286569576
C   C114      1.0  0.04590  0.22310  0.66690  1.0000 -0.1191477055
C   C115      1.0  0.58310  0.18590  0.20410  1.0000 -0.1286569576
C   C116      1.0  0.18590  0.58310  0.02690  1.0000 -0.1286569576
C   C117      1.0  0.89270  0.31810  0.22950  1.0000 0.6155204069
C   C118      1.0  0.31810  0.89270  0.55970  1.0000 0.6155204069
C   C119      1.0  0.69030  0.02050  0.93190  1.0000 0.6155204069
C   C120      1.0  0.02050  0.69030  0.35730  1.0000 0.6155204069
O   O1        1.0  0.07345  0.35665  0.25635  1.0000 -0.3398701358
O   O2        1.0  0.35665  0.07345  0.31355  1.0000 -0.3398701358
O   O3        1.0  0.93645  0.99365  0.89335  1.0000 -0.3398701358
O   O4        1.0  0.99365  0.93645  0.17655  1.0000 -0.3398701358
O   O5        1.0  0.36700  0.32200  0.05720  1.0000 -0.5646184194
O   O6        1.0  0.32200  0.36700  0.25380  1.0000 -0.5672920056
O   O7        1.0  0.99620  0.19280  0.92800  1.0000 -0.5672920056
O   O8        1.0  0.19280  0.99620  0.88300  1.0000 -0.5672920056
O   O9        1.0  0.61170  0.05550  0.82910  1.0000 -0.6952976692
O   O10       1.0  0.05550  0.61170  0.50370  1.0000 -0.6949337233
O   O11       1.0  0.74630  0.42090  0.19450  1.0000 -0.6952976692
O   O12       1.0  0.42090  0.74630  0.63830  1.0000 -0.6952976692
O   O13       1.0  0.71103  0.73403  0.88657  1.0000 -0.4076241064
O   O14       1.0  0.73403  0.71103  0.66837  1.0000 -0.4076241064
O   O15       1.0  0.58163  0.36343  0.51597  1.0000 -0.4076241064
O   O16       1.0  0.36343  0.58163  0.53897  1.0000 -0.4076241064
O   O17       1.0  0.91990  0.37270  0.99670  1.0000 -0.7198093045
O   O18       1.0  0.37270  0.91990  0.71070  1.0000 -0.7198093045
O   O19       1.0  0.53930  0.25330  0.87730  1.0000 -0.7198093045
O   O20       1.0  0.25330  0.53930  0.33010  1.0000 -0.7198093045
O   O21       1.0  0.64750  0.62890  0.26850  1.0000 -0.6743180263
O   O22       1.0  0.62890  0.64750  0.45510  1.0000 -0.6743180263
O   O23       1.0  0.79490  0.98150  0.62110  1.0000 -0.6743180263
O   O24       1.0  0.98150  0.79490  0.60250  1.0000 -0.6743180263
O   O25       1.0  0.29200  0.93860  0.19020  1.0000 -0.3534030426
O   O26       1.0  0.93860  0.29200  0.57920  1.0000 -0.3559022952
O   O27       1.0  0.67080  0.05980  0.31140  1.0000 -0.3534030426
O   O28       1.0  0.05980  0.67080  0.95800  1.0000 -0.3559022952
O   O29       1.0  0.76630  0.41070  0.34890  1.0000 -0.6123922128
O   O30       1.0  0.41070  0.76630  0.47410  1.0000 -0.6123922128
O   O31       1.0  0.77590  0.90110  0.83930  1.0000 -0.6123922128
O   O32       1.0  0.90110  0.77590  0.48370  1.0000 -0.6123922128
O   O33       1.0  0.91978  0.31882  0.14698  1.0000 -0.7332922775
O   O34       1.0  0.31882  0.91978  0.61442  1.0000 -0.7332922775
O   O35       1.0  0.63558  0.10302  0.93118  1.0000 -0.7332922775
O   O36       1.0  0.10302  0.63558  0.33022  1.0000 -0.7332922775
