# DDEC6 charges by PACMAN v1.1 (https://github.com/mtap-research/PACMAN-charge/)
data_2015[Cd][pcu]3[ASR]2
_chemical_formula_sum              "Cd4 H80 C152 N16 O32"
_cell_length_a       11.7797
_cell_length_b       29.1825
_cell_length_c       16.7061
_cell_angle_alpha    90
_cell_angle_beta     123.181
_cell_angle_gamma    90

_symmetry_space_group_name_H-M    "P 1"
_symmetry_Int_Tables_number       1

loop_
  _symmetry_equiv_pos_as_xyz
  'x, y, z'

loop_
  _atom_site_type_symbol
  _atom_site_label
  _atom_site_symmetry_multiplicity
  _atom_site_fract_x
  _atom_site_fract_y
  _atom_site_fract_z
  _atom_site_occupancy
  _atom_site_charge
Cd  Cd1       1.0  0.48622  0.04376  0.08574  1.0000 0.8518889492
Cd  Cd2       1.0  0.51378  0.54376  0.41426  1.0000 0.8518889492
Cd  Cd3       1.0  0.51378  0.95624  0.91426  1.0000 0.8518889492
Cd  Cd4       1.0  0.48622  0.45624  0.58574  1.0000 0.8518889492
H   H1        1.0  0.52880  0.20600  0.10960  1.0000 0.1207321642
H   H2        1.0  0.47120  0.70600  0.39040  1.0000 0.1207321642
H   H3        1.0  0.47120  0.79400  0.89040  1.0000 0.1207321642
H   H4        1.0  0.52880  0.29400  0.60960  1.0000 0.1207321642
H   H5        1.0  0.49680  0.15730  0.31680  1.0000 0.1207321642
H   H6        1.0  0.50320  0.65730  0.18320  1.0000 0.1207321642
H   H7        1.0  0.50320  0.84270  0.68320  1.0000 0.1207321642
H   H8        1.0  0.49680  0.34270  0.81680  1.0000 0.1207321642
H   H9        1.0  0.53250  0.27890  0.16410  1.0000 0.1098719259
H   H10       1.0  0.46750  0.77890  0.33590  1.0000 0.1098719259
H   H11       1.0  0.46750  0.72110  0.83590  1.0000 0.1098719259
H   H12       1.0  0.53250  0.22110  0.66410  1.0000 0.1098719259
H   H13       1.0  0.52220  0.22860  0.37820  1.0000 0.1098719259
H   H14       1.0  0.47780  0.72860  0.12180  1.0000 0.1098719259
H   H15       1.0  0.47780  0.77140  0.62180  1.0000 0.1098719259
H   H16       1.0  0.52220  0.27140  0.87820  1.0000 0.1098719259
H   H17       1.0  0.58520  0.34000  0.22560  1.0000 0.1098719259
H   H18       1.0  0.41480  0.84000  0.27440  1.0000 0.1098719259
H   H19       1.0  0.41480  0.66000  0.77440  1.0000 0.1098719259
H   H20       1.0  0.58520  0.16000  0.72560  1.0000 0.1098719259
H   H21       1.0  0.50310  0.29680  0.41400  1.0000 0.1098719259
H   H22       1.0  0.49690  0.79680  0.08600  1.0000 0.1098719259
H   H23       1.0  0.49690  0.70320  0.58600  1.0000 0.1098719259
H   H24       1.0  0.50310  0.20320  0.91400  1.0000 0.1098719259
H   H25       1.0  0.60190  0.41390  0.28020  1.0000 0.0992624482
H   H26       1.0  0.39810  0.91390  0.21980  1.0000 0.0992624482
H   H27       1.0  0.39810  0.58610  0.71980  1.0000 0.0992624482
H   H28       1.0  0.60190  0.08610  0.78020  1.0000 0.0992624482
H   H29       1.0  0.49980  0.37190  0.45660  1.0000 0.129760553
H   H30       1.0  0.50020  0.87190  0.04340  1.0000 0.129760553
H   H31       1.0  0.50020  0.62810  0.54340  1.0000 0.129760553
H   H32       1.0  0.49980  0.12810  0.95660  1.0000 0.129760553
H   H33       1.0  0.19720  0.04080  0.05750  1.0000 0.1207321642
H   H34       1.0  0.80280  0.54080  0.44250  1.0000 0.1207321642
H   H35       1.0  0.80280  0.95920  0.94250  1.0000 0.1207321642
H   H36       1.0  0.19720  0.45920  0.55750  1.0000 0.1207321642
H   H37       1.0  0.26930  0.06400  0.86120  1.0000 0.1098719259
H   H38       1.0  0.73070  0.56400  0.63880  1.0000 0.1098719259
H   H39       1.0  0.73070  0.93600  0.13880  1.0000 0.1098719259
H   H40       1.0  0.26930  0.43600  0.36120  1.0000 0.1098719259
H   H41       1.0  0.96690  0.04400  0.94850  1.0000 0.1499293616
H   H42       1.0  0.03310  0.54400  0.55150  1.0000 0.1499293616
H   H43       1.0  0.03310  0.95600  0.05150  1.0000 0.1499293616
H   H44       1.0  0.96690  0.45600  0.44850  1.0000 0.1499293616
H   H45       1.0  0.04290  0.06680  0.74460  1.0000 0.1499293616
H   H46       1.0  0.95710  0.56680  0.75540  1.0000 0.1499293616
H   H47       1.0  0.95710  0.93320  0.25540  1.0000 0.1499293616
H   H48       1.0  0.04290  0.43320  0.24460  1.0000 0.1499293616
H   H49       1.0  0.58630  0.94820  0.70310  1.0000 0.129760553
H   H50       1.0  0.41370  0.44820  0.79690  1.0000 0.129760553
H   H51       1.0  0.41370  0.05180  0.29690  1.0000 0.129760553
H   H52       1.0  0.58630  0.55180  0.20310  1.0000 0.129760553
H   H53       1.0  0.62440  0.15100  0.56830  1.0000 0.1354545598
H   H54       1.0  0.37560  0.65100  0.93170  1.0000 0.1354545598
H   H55       1.0  0.37560  0.84900  0.43170  1.0000 0.1354545598
H   H56       1.0  0.62440  0.34900  0.06830  1.0000 0.1354545598
H   H57       1.0  0.36050  0.94420  0.57990  1.0000 0.129760553
H   H58       1.0  0.63950  0.44420  0.92010  1.0000 0.129760553
H   H59       1.0  0.63950  0.05580  0.42010  1.0000 0.129760553
H   H60       1.0  0.36050  0.55580  0.07990  1.0000 0.129760553
H   H61       1.0  0.39200  0.14890  0.45300  1.0000 0.1354545598
H   H62       1.0  0.60800  0.64890  0.04700  1.0000 0.1354545598
H   H63       1.0  0.60800  0.85110  0.54700  1.0000 0.1354545598
H   H64       1.0  0.39200  0.35110  0.95300  1.0000 0.1354545598
H   H65       1.0  0.94850  0.01880  0.41050  1.0000 0.1499293616
H   H66       1.0  0.05150  0.51880  0.08950  1.0000 0.1499293616
H   H67       1.0  0.05150  0.98120  0.58950  1.0000 0.1499293616
H   H68       1.0  0.94850  0.48120  0.91050  1.0000 0.1499293616
H   H69       1.0  0.99970  0.06350  0.20830  1.0000 0.1499293616
H   H70       1.0  0.00030  0.56350  0.29170  1.0000 0.1499293616
H   H71       1.0  0.00030  0.93650  0.79170  1.0000 0.1499293616
H   H72       1.0  0.99970  0.43650  0.70830  1.0000 0.1499293616
H   H73       1.0  0.72120  0.01640  0.29970  1.0000 0.1098719259
H   H74       1.0  0.27880  0.51640  0.20030  1.0000 0.1098719259
H   H75       1.0  0.27880  0.98360  0.70030  1.0000 0.1098719259
H   H76       1.0  0.72120  0.48360  0.79970  1.0000 0.1098719259
H   H77       1.0  0.76920  0.06450  0.10470  1.0000 0.1098719259
H   H78       1.0  0.23080  0.56450  0.39530  1.0000 0.1098719259
H   H79       1.0  0.23080  0.93550  0.89530  1.0000 0.1098719259
H   H80       1.0  0.76920  0.43550  0.60470  1.0000 0.1098719259
C   C1        1.0  0.50170  0.12590  0.16830  1.0000 0.5421995466
C   C2        1.0  0.49830  0.62590  0.33170  1.0000 0.5421995466
C   C3        1.0  0.49830  0.87410  0.83170  1.0000 0.5421995466
C   C4        1.0  0.50170  0.37410  0.66830  1.0000 0.5421995466
C   C5        1.0  0.51340  0.17310  0.20800  1.0000 -0.0195301746
C   C6        1.0  0.48660  0.67310  0.29200  1.0000 -0.0195301746
C   C7        1.0  0.48660  0.82690  0.79200  1.0000 -0.0195301746
C   C8        1.0  0.51340  0.32690  0.70800  1.0000 -0.0195301746
C   C9        1.0  0.52500  0.21010  0.16330  1.0000 -0.1021057226
C   C10       1.0  0.47500  0.71010  0.33670  1.0000 -0.1021057226
C   C11       1.0  0.47500  0.78990  0.83670  1.0000 -0.1021057226
C   C12       1.0  0.52500  0.28990  0.66330  1.0000 -0.1021057226
C   C13       1.0  0.50920  0.18170  0.28670  1.0000 -0.1021057226
C   C14       1.0  0.49080  0.68170  0.21330  1.0000 -0.1021057226
C   C15       1.0  0.49080  0.81830  0.71330  1.0000 -0.1021057226
C   C16       1.0  0.50920  0.31830  0.78670  1.0000 -0.1021057226
C   C17       1.0  0.53130  0.25380  0.19810  1.0000 -0.1563298365
C   C18       1.0  0.46870  0.75380  0.30190  1.0000 -0.1563298365
C   C19       1.0  0.46870  0.74620  0.80190  1.0000 -0.1563298365
C   C20       1.0  0.53130  0.24620  0.69810  1.0000 -0.1563298365
C   C21       1.0  0.52240  0.22470  0.32300  1.0000 -0.1451878267
C   C22       1.0  0.47760  0.72470  0.17700  1.0000 -0.1451878267
C   C23       1.0  0.47760  0.77530  0.67700  1.0000 -0.1451878267
C   C24       1.0  0.52240  0.27530  0.82300  1.0000 -0.1451878267
C   C25       1.0  0.53560  0.26150  0.28080  1.0000 0.0721860027
C   C26       1.0  0.46440  0.76150  0.21920  1.0000 0.0721860027
C   C27       1.0  0.46440  0.73850  0.71920  1.0000 0.0721860027
C   C28       1.0  0.53560  0.23850  0.78080  1.0000 0.0721860027
C   C29       1.0  0.54580  0.30960  0.31470  1.0000 0.0892581364
C   C30       1.0  0.45420  0.80960  0.18530  1.0000 0.0892581364
C   C31       1.0  0.45420  0.69040  0.68530  1.0000 0.0892581364
C   C32       1.0  0.54580  0.19040  0.81470  1.0000 0.0892581364
C   C33       1.0  0.57140  0.34550  0.27450  1.0000 -0.1563298365
C   C34       1.0  0.42860  0.84550  0.22550  1.0000 -0.1563298365
C   C35       1.0  0.42860  0.65450  0.72550  1.0000 -0.1563298365
C   C36       1.0  0.57140  0.15450  0.77450  1.0000 -0.1563298365
C   C37       1.0  0.52020  0.32030  0.38440  1.0000 -0.1451878267
C   C38       1.0  0.47980  0.82030  0.11560  1.0000 -0.1451878267
C   C39       1.0  0.47980  0.67970  0.61560  1.0000 -0.1451878267
C   C40       1.0  0.52020  0.17970  0.88440  1.0000 -0.1451878267
C   C41       1.0  0.57710  0.39050  0.30550  1.0000 -0.1021057226
C   C42       1.0  0.42290  0.89050  0.19450  1.0000 -0.1021057226
C   C43       1.0  0.42290  0.60950  0.69450  1.0000 -0.1021057226
C   C44       1.0  0.57710  0.10950  0.80550  1.0000 -0.1021057226
C   C45       1.0  0.51970  0.36570  0.41090  1.0000 -0.1021057226
C   C46       1.0  0.48030  0.86570  0.08910  1.0000 -0.1021057226
C   C47       1.0  0.48030  0.63430  0.58910  1.0000 -0.1021057226
C   C48       1.0  0.51970  0.13430  0.91090  1.0000 -0.1021057226
C   C49       1.0  0.54770  0.40120  0.37110  1.0000 -0.0366870294
C   C50       1.0  0.45230  0.90120  0.12890  1.0000 -0.0366870294
C   C51       1.0  0.45230  0.59880  0.62890  1.0000 -0.0366870294
C   C52       1.0  0.54770  0.09880  0.87110  1.0000 -0.0366870294
C   C53       1.0  0.54160  0.45000  0.39330  1.0000 0.5454146212
C   C54       1.0  0.45840  0.95000  0.10670  1.0000 0.5454146212
C   C55       1.0  0.45840  0.55000  0.60670  1.0000 0.5454146212
C   C56       1.0  0.54160  0.05000  0.89330  1.0000 0.5454146212
C   C57       1.0  0.16460  0.04580  0.99340  1.0000 0.0992624482
C   C58       1.0  0.83540  0.54580  0.50660  1.0000 0.0992624482
C   C59       1.0  0.83540  0.95420  0.00660  1.0000 0.0992624482
C   C60       1.0  0.16460  0.45420  0.49340  1.0000 0.0992624482
C   C61       1.0  0.20690  0.05920  0.87810  1.0000 0.0892581364
C   C62       1.0  0.79310  0.55920  0.62190  1.0000 0.0892581364
C   C63       1.0  0.79310  0.94080  0.12190  1.0000 0.0892581364
C   C64       1.0  0.20690  0.44080  0.37810  1.0000 0.0892581364
C   C65       1.0  0.02650  0.04740  0.92880  1.0000 -0.2089756334
C   C66       1.0  0.97350  0.54740  0.57120  1.0000 -0.2089756334
C   C67       1.0  0.97350  0.95260  0.07120  1.0000 -0.2089756334
C   C68       1.0  0.02650  0.45260  0.42880  1.0000 -0.2089756334
C   C69       1.0  0.07210  0.06110  0.80780  1.0000 -0.1980302388
C   C70       1.0  0.92790  0.56110  0.69220  1.0000 -0.1980302388
C   C71       1.0  0.92790  0.93890  0.19220  1.0000 -0.1980302388
C   C72       1.0  0.07210  0.43890  0.30780  1.0000 -0.1980302388
C   C73       1.0  0.97980  0.05430  0.83430  1.0000 0.2270048877
C   C74       1.0  0.02020  0.55430  0.66570  1.0000 0.2270048877
C   C75       1.0  0.02020  0.94570  0.16570  1.0000 0.2270048877
C   C76       1.0  0.97980  0.44570  0.33430  1.0000 0.2270048877
C   C77       1.0  0.77930  0.09240  0.70220  1.0000 0.4368105625
C   C78       1.0  0.22070  0.59240  0.79780  1.0000 0.4368105625
C   C79       1.0  0.22070  0.90760  0.29780  1.0000 0.4368105625
C   C80       1.0  0.77930  0.40760  0.20220  1.0000 0.4368105625
C   C81       1.0  0.76630  0.01270  0.75200  1.0000 0.4340549057
C   C82       1.0  0.23370  0.51270  0.74800  1.0000 0.4340549057
C   C83       1.0  0.23370  0.98730  0.24800  1.0000 0.4340549057
C   C84       1.0  0.76630  0.48730  0.25200  1.0000 0.4340549057
C   C85       1.0  0.62090  0.01130  0.67370  1.0000 -0.0700626372
C   C86       1.0  0.37910  0.51130  0.82630  1.0000 -0.0700626372
C   C87       1.0  0.37910  0.98870  0.32630  1.0000 -0.0700626372
C   C88       1.0  0.62090  0.48870  0.17370  1.0000 -0.0700626372
C   C89       1.0  0.63410  0.08930  0.62160  1.0000 -0.0508627834
C   C90       1.0  0.36590  0.58930  0.87840  1.0000 -0.0508627834
C   C91       1.0  0.36590  0.91070  0.37840  1.0000 -0.0508627834
C   C92       1.0  0.63410  0.41070  0.12160  1.0000 -0.0508627834
C   C93       1.0  0.56120  0.04910  0.61190  1.0000 0.0290669326
C   C94       1.0  0.43880  0.54910  0.88810  1.0000 0.0290669326
C   C95       1.0  0.43880  0.95090  0.38810  1.0000 0.0290669326
C   C96       1.0  0.56120  0.45090  0.11190  1.0000 0.0290669326
C   C97       1.0  0.54590  0.97290  0.66160  1.0000 -0.060579853
C   C98       1.0  0.45410  0.47290  0.83840  1.0000 -0.060579853
C   C99       1.0  0.45410  0.02710  0.33840  1.0000 -0.060579853
C   C100      1.0  0.54590  0.52710  0.16160  1.0000 -0.060579853
C   C101      1.0  0.57390  0.12520  0.56240  1.0000 -0.0907611094
C   C102      1.0  0.42610  0.62520  0.93760  1.0000 -0.0907611094
C   C103      1.0  0.42610  0.87480  0.43760  1.0000 -0.0907611094
C   C104      1.0  0.57390  0.37480  0.06240  1.0000 -0.0907611094
C   C105      1.0  0.40990  0.97060  0.58760  1.0000 -0.0907611094
C   C106      1.0  0.59010  0.47060  0.91240  1.0000 -0.0907611094
C   C107      1.0  0.59010  0.02940  0.41240  1.0000 -0.0907611094
C   C108      1.0  0.40990  0.52940  0.08760  1.0000 -0.0907611094
C   C109      1.0  0.43400  0.12340  0.49150  1.0000 -0.0907611094
C   C110      1.0  0.56600  0.62340  0.00850  1.0000 -0.0907611094
C   C111      1.0  0.56600  0.87660  0.50850  1.0000 -0.0907611094
C   C112      1.0  0.43400  0.37660  0.99150  1.0000 -0.0907611094
C   C113      1.0  0.34740  0.00650  0.52590  1.0000 -0.0700626372
C   C114      1.0  0.65260  0.50650  0.97410  1.0000 -0.0700626372
C   C115      1.0  0.65260  0.99350  0.47410  1.0000 -0.0700626372
C   C116      1.0  0.34740  0.49350  0.02590  1.0000 -0.0700626372
C   C117      1.0  0.35930  0.08560  0.47800  1.0000 -0.060579853
C   C118      1.0  0.64070  0.58560  0.02200  1.0000 -0.060579853
C   C119      1.0  0.64070  0.91440  0.52200  1.0000 -0.060579853
C   C120      1.0  0.35930  0.41440  0.97800  1.0000 -0.060579853
C   C121      1.0  0.42290  0.04740  0.53880  1.0000 0.0290669326
C   C122      1.0  0.57710  0.54740  0.96120  1.0000 0.0290669326
C   C123      1.0  0.57710  0.95260  0.46120  1.0000 0.0290669326
C   C124      1.0  0.42290  0.45260  0.03880  1.0000 0.0290669326
C   C125      1.0  0.20410  0.00330  0.44460  1.0000 0.4207160717
C   C126      1.0  0.79590  0.50330  0.05540  1.0000 0.4207160717
C   C127      1.0  0.79590  0.99670  0.55540  1.0000 0.4207160717
C   C128      1.0  0.20410  0.49670  0.94460  1.0000 0.4207160717
C   C129      1.0  0.21240  0.08490  0.40540  1.0000 0.4368105625
C   C130      1.0  0.78760  0.58490  0.09460  1.0000 0.4368105625
C   C131      1.0  0.78760  0.91510  0.59460  1.0000 0.4368105625
C   C132      1.0  0.21240  0.41510  0.90540  1.0000 0.4368105625
C   C133      1.0  0.99940  0.04170  0.32200  1.0000 0.2100771909
C   C134      1.0  0.00060  0.54170  0.17800  1.0000 0.2100771909
C   C135      1.0  0.00060  0.95830  0.67800  1.0000 0.2100771909
C   C136      1.0  0.99940  0.45830  0.82200  1.0000 0.2100771909
C   C137      1.0  0.91440  0.02770  0.34780  1.0000 -0.2089756334
C   C138      1.0  0.08560  0.52770  0.15220  1.0000 -0.2089756334
C   C139      1.0  0.08560  0.97230  0.65220  1.0000 -0.2089756334
C   C140      1.0  0.91440  0.47230  0.84780  1.0000 -0.2089756334
C   C141      1.0  0.94420  0.05450  0.22910  1.0000 -0.1980302388
C   C142      1.0  0.05580  0.55450  0.27090  1.0000 -0.1980302388
C   C143      1.0  0.05580  0.94550  0.77090  1.0000 -0.1980302388
C   C144      1.0  0.94420  0.44550  0.72910  1.0000 -0.1980302388
C   C145      1.0  0.77780  0.02670  0.28080  1.0000 0.0892581364
C   C146      1.0  0.22220  0.52670  0.21920  1.0000 0.0892581364
C   C147      1.0  0.22220  0.97330  0.71920  1.0000 0.0892581364
C   C148      1.0  0.77780  0.47330  0.78080  1.0000 0.0892581364
C   C149      1.0  0.80590  0.05410  0.16690  1.0000 0.0830620175
C   C150      1.0  0.19410  0.55410  0.33310  1.0000 0.0830620175
C   C151      1.0  0.19410  0.94590  0.83310  1.0000 0.0830620175
C   C152      1.0  0.80590  0.44590  0.66690  1.0000 0.0830620175
N   N1        1.0  0.25380  0.05106  0.96910  1.0000 -0.2312742476
N   N2        1.0  0.74620  0.55106  0.53090  1.0000 -0.2312742476
N   N3        1.0  0.74620  0.94894  0.03090  1.0000 -0.2312742476
N   N4        1.0  0.25380  0.44894  0.46910  1.0000 -0.2312742476
N   N5        1.0  0.83620  0.05334  0.76120  1.0000 -0.2378599251
N   N6        1.0  0.16380  0.55334  0.73880  1.0000 -0.2378599251
N   N7        1.0  0.16380  0.94666  0.23880  1.0000 -0.2378599251
N   N8        1.0  0.83620  0.44666  0.26120  1.0000 -0.2378599251
N   N9        1.0  0.14310  0.04298  0.39000  1.0000 -0.2312742476
N   N10       1.0  0.85690  0.54298  0.11000  1.0000 -0.2312742476
N   N11       1.0  0.85690  0.95702  0.61000  1.0000 -0.2312742476
N   N12       1.0  0.14310  0.45702  0.89000  1.0000 -0.2312742476
N   N13       1.0  0.72150  0.03960  0.19140  1.0000 -0.2312742476
N   N14       1.0  0.27850  0.53960  0.30860  1.0000 -0.2312742476
N   N15       1.0  0.27850  0.96040  0.80860  1.0000 -0.2312742476
N   N16       1.0  0.72150  0.46040  0.69140  1.0000 -0.2312742476
O   O1        1.0  0.48460  0.09250  0.20590  1.0000 -0.5411624068
O   O2        1.0  0.51540  0.59250  0.29410  1.0000 -0.5411624068
O   O3        1.0  0.51540  0.90750  0.79410  1.0000 -0.5411624068
O   O4        1.0  0.48460  0.40750  0.70590  1.0000 -0.5411624068
O   O5        1.0  0.50940  0.12285  0.09640  1.0000 -0.5411624068
O   O6        1.0  0.49060  0.62285  0.40360  1.0000 -0.5411624068
O   O7        1.0  0.49060  0.87715  0.90360  1.0000 -0.5411624068
O   O8        1.0  0.50940  0.37715  0.59640  1.0000 -0.5411624068
O   O9        1.0  0.51940  0.45949  0.45760  1.0000 -0.5799896771
O   O10       1.0  0.48060  0.95949  0.04240  1.0000 -0.5799896771
O   O11       1.0  0.48060  0.54051  0.54240  1.0000 -0.5799896771
O   O12       1.0  0.51940  0.04051  0.95760  1.0000 -0.5799896771
O   O13       1.0  0.55820  0.48054  0.34910  1.0000 -0.5149257237
O   O14       1.0  0.44180  0.98054  0.15090  1.0000 -0.5149257237
O   O15       1.0  0.44180  0.51946  0.65090  1.0000 -0.5149257237
O   O16       1.0  0.55820  0.01946  0.84910  1.0000 -0.5149257237
O   O17       1.0  0.82230  0.98109  0.80370  1.0000 -0.4074023123
O   O18       1.0  0.17770  0.48109  0.69630  1.0000 -0.4074023123
O   O19       1.0  0.17770  0.01891  0.19630  1.0000 -0.4074023123
O   O20       1.0  0.82230  0.51891  0.30370  1.0000 -0.4074023123
O   O21       1.0  0.84630  0.12610  0.71760  1.0000 -0.3891128952
O   O22       1.0  0.15370  0.62610  0.78240  1.0000 -0.3891128952
O   O23       1.0  0.15370  0.87390  0.28240  1.0000 -0.3891128952
O   O24       1.0  0.84630  0.37390  0.21760  1.0000 -0.3891128952
O   O25       1.0  0.15180  0.11783  0.35970  1.0000 -0.3828185031
O   O26       1.0  0.84820  0.61783  0.14030  1.0000 -0.3828185031
O   O27       1.0  0.84820  0.88217  0.64030  1.0000 -0.3828185031
O   O28       1.0  0.15180  0.38217  0.85970  1.0000 -0.3828185031
O   O29       1.0  0.14140  0.96773  0.42380  1.0000 -0.421491837
O   O30       1.0  0.85860  0.46773  0.07620  1.0000 -0.421491837
O   O31       1.0  0.85860  0.03227  0.57620  1.0000 -0.421491837
O   O32       1.0  0.14140  0.53227  0.92380  1.0000 -0.421491837
