# DDEC6 charges by PACMAN v1.1 (https://github.com/mtap-research/PACMAN-charge/)
data_2015[Sm][umc]3[ASR]1
_chemical_formula_sum              "Sm4 H100 C112 N8 O32"
_cell_length_a       16.8888
_cell_length_b       16.8888
_cell_length_c       34.246
_cell_angle_alpha    64.5337
_cell_angle_beta     115.466
_cell_angle_gamma    149.639

_symmetry_space_group_name_H-M    "P 1"
_symmetry_Int_Tables_number       1

loop_
  _symmetry_equiv_pos_as_xyz
  'x, y, z'

loop_
  _atom_site_type_symbol
  _atom_site_label
  _atom_site_symmetry_multiplicity
  _atom_site_fract_x
  _atom_site_fract_y
  _atom_site_fract_z
  _atom_site_occupancy
  _atom_site_charge
Sm  Sm1       1.0  0.62853  0.61529  0.88164  1.0000 2.0366935773
Sm  Sm2       1.0  0.61529  0.62853  0.61836  1.0000 2.0366935773
Sm  Sm3       1.0  0.37147  0.38471  0.11836  1.0000 2.0366935773
Sm  Sm4       1.0  0.38471  0.37147  0.38164  1.0000 2.0366935773
H   H1        1.0  0.39690  0.99690  0.68560  1.0000 0.111292456
H   H2        1.0  0.99690  0.39690  0.81440  1.0000 0.111292456
H   H3        1.0  0.60310  0.00310  0.31440  1.0000 0.111292456
H   H4        1.0  0.00310  0.60310  0.18560  1.0000 0.111292456
H   H5        1.0  0.24050  0.92210  0.66630  1.0000 0.1032878725
H   H6        1.0  0.92210  0.24050  0.83370  1.0000 0.1032878725
H   H7        1.0  0.75950  0.07790  0.33370  1.0000 0.1032878725
H   H8        1.0  0.07790  0.75950  0.16630  1.0000 0.1032878725
H   H9        1.0  0.59560  0.70500  0.71830  1.0000 0.1397691137
H   H10       1.0  0.70500  0.59560  0.78170  1.0000 0.1397691137
H   H11       1.0  0.40440  0.29500  0.28170  1.0000 0.1397691137
H   H12       1.0  0.29500  0.40440  0.21830  1.0000 0.1397691137
H   H13       1.0  0.82560  0.04940  0.77160  1.0000 0.1294240581
H   H14       1.0  0.04940  0.82560  0.72840  1.0000 0.1294240581
H   H15       1.0  0.17440  0.95060  0.22840  1.0000 0.1294240581
H   H16       1.0  0.95060  0.17440  0.27160  1.0000 0.1294240581
H   H17       1.0  0.83650  0.22830  0.74330  1.0000 0.111292456
H   H18       1.0  0.22830  0.83650  0.75670  1.0000 0.111292456
H   H19       1.0  0.16350  0.77170  0.25670  1.0000 0.111292456
H   H20       1.0  0.77170  0.16350  0.24330  1.0000 0.111292456
H   H21       1.0  0.99370  0.30430  0.75950  1.0000 0.1032878725
H   H22       1.0  0.30430  0.99370  0.74050  1.0000 0.1032878725
H   H23       1.0  0.00630  0.69570  0.24050  1.0000 0.1032878725
H   H24       1.0  0.69570  0.00630  0.25950  1.0000 0.1032878725
H   H25       1.0  0.92530  0.29250  0.67520  1.0000 0.2589052065
H   H26       1.0  0.29250  0.92530  0.82480  1.0000 0.2589052065
H   H27       1.0  0.07470  0.70750  0.32480  1.0000 0.2589052065
H   H28       1.0  0.70750  0.07470  0.17520  1.0000 0.2589052065
H   H29       1.0  0.36310  0.03890  0.54410  1.0000 0.1294240581
H   H30       1.0  0.03890  0.36310  0.95590  1.0000 0.1294240581
H   H31       1.0  0.63690  0.96110  0.45590  1.0000 0.1294240581
H   H32       1.0  0.96110  0.63690  0.04410  1.0000 0.1294240581
H   H33       1.0  0.29810  0.89830  0.61460  1.0000 0.2589052065
H   H34       1.0  0.89830  0.29810  0.88540  1.0000 0.2589052065
H   H35       1.0  0.70190  0.10170  0.38540  1.0000 0.2589052065
H   H36       1.0  0.10170  0.70190  0.11460  1.0000 0.2589052065
H   H37       1.0  0.55560  0.43740  0.51720  1.0000 0.1397691137
H   H38       1.0  0.43740  0.55560  0.98280  1.0000 0.1397691137
H   H39       1.0  0.44440  0.56260  0.48280  1.0000 0.1397691137
H   H40       1.0  0.56260  0.44440  0.01720  1.0000 0.1397691137
H   H41       1.0  0.45030  0.19750  0.63750  1.0000 0.1294240581
H   H42       1.0  0.19750  0.45030  0.86250  1.0000 0.1294240581
H   H43       1.0  0.54970  0.80250  0.36250  1.0000 0.1294240581
H   H44       1.0  0.80250  0.54970  0.13750  1.0000 0.1294240581
H   H45       1.0  0.72720  0.23840  0.70490  1.0000 0.1185994751
H   H46       1.0  0.23840  0.72720  0.79510  1.0000 0.1185994751
H   H47       1.0  0.27280  0.76160  0.29510  1.0000 0.1185994751
H   H48       1.0  0.76160  0.27280  0.20490  1.0000 0.1185994751
H   H49       1.0  0.73420  0.34220  0.69810  1.0000 0.1397691137
H   H50       1.0  0.34220  0.73420  0.80190  1.0000 0.1397691137
H   H51       1.0  0.26580  0.65780  0.30190  1.0000 0.1397691137
H   H52       1.0  0.65780  0.26580  0.19810  1.0000 0.1397691137
H   H53       1.0  0.73390  0.31950  0.65810  1.0000 0.1294240581
H   H54       1.0  0.31950  0.73390  0.84190  1.0000 0.1294240581
H   H55       1.0  0.26610  0.68050  0.34190  1.0000 0.1294240581
H   H56       1.0  0.68050  0.26610  0.15810  1.0000 0.1294240581
H   H57       1.0  0.77740  0.08820  0.64220  1.0000 0.1294240581
H   H58       1.0  0.08820  0.77740  0.85780  1.0000 0.1294240581
H   H59       1.0  0.22260  0.91180  0.35780  1.0000 0.1294240581
H   H60       1.0  0.91180  0.22260  0.14220  1.0000 0.1294240581
H   H61       1.0  0.48270  0.85550  0.70510  1.0000 0.1294240581
H   H62       1.0  0.85550  0.48270  0.79490  1.0000 0.1294240581
H   H63       1.0  0.51730  0.14450  0.29490  1.0000 0.1294240581
H   H64       1.0  0.14450  0.51730  0.20510  1.0000 0.1294240581
H   H65       1.0  0.49330  0.96690  0.68580  1.0000 0.1185994751
H   H66       1.0  0.96690  0.49330  0.81420  1.0000 0.1185994751
H   H67       1.0  0.50670  0.03310  0.31420  1.0000 0.1185994751
H   H68       1.0  0.03310  0.50670  0.18580  1.0000 0.1185994751
H   H69       1.0  0.50180  0.91820  0.73630  1.0000 0.1397691137
H   H70       1.0  0.91820  0.50180  0.76370  1.0000 0.1397691137
H   H71       1.0  0.49820  0.08180  0.26370  1.0000 0.1397691137
H   H72       1.0  0.08180  0.49820  0.23630  1.0000 0.1397691137
H   H73       1.0  0.31380  0.59100  0.77200  1.0000 0.1483429565
H   H74       1.0  0.59100  0.31380  0.72800  1.0000 0.1483429565
H   H75       1.0  0.68620  0.40900  0.22800  1.0000 0.1483429565
H   H76       1.0  0.40900  0.68620  0.27200  1.0000 0.1483429565
H   H77       1.0  0.20250  0.46930  0.74000  1.0000 0.1294240581
H   H78       1.0  0.46930  0.20250  0.76000  1.0000 0.1294240581
H   H79       1.0  0.79750  0.53070  0.26000  1.0000 0.1294240581
H   H80       1.0  0.53070  0.79750  0.24000  1.0000 0.1294240581
H   H81       1.0  0.36390  0.64950  0.72680  1.0000 0.1294240581
H   H82       1.0  0.64950  0.36390  0.77320  1.0000 0.1294240581
H   H83       1.0  0.63610  0.35050  0.27320  1.0000 0.1294240581
H   H84       1.0  0.35050  0.63610  0.22680  1.0000 0.1294240581
H   H85       1.0  0.01530  0.73750  0.63430  1.0000 0.1294240581
H   H86       1.0  0.73750  0.01530  0.86570  1.0000 0.1294240581
H   H87       1.0  0.98470  0.26250  0.36570  1.0000 0.1294240581
H   H88       1.0  0.26250  0.98470  0.13430  1.0000 0.1294240581
H   H89       1.0  0.85290  0.55310  0.64020  1.0000 0.1397691137
H   H90       1.0  0.55310  0.85290  0.85980  1.0000 0.1397691137
H   H91       1.0  0.14710  0.44690  0.35980  1.0000 0.1397691137
H   H92       1.0  0.44690  0.14710  0.14020  1.0000 0.1397691137
H   H93       1.0  0.93350  0.65050  0.67560  1.0000 0.1483429565
H   H94       1.0  0.65050  0.93350  0.82440  1.0000 0.1483429565
H   H95       1.0  0.06650  0.34950  0.32440  1.0000 0.1483429565
H   H96       1.0  0.34950  0.06650  0.17560  1.0000 0.1483429565
H   H97       1.0  0.40400  0.15120  0.44580  1.0000 0.3630156188
H   H98       1.0  0.15120  0.40400  0.05420  1.0000 0.3630156188
H   H99       1.0  0.59600  0.84880  0.55420  1.0000 0.3630156188
H   H100      1.0  0.84880  0.59600  0.94580  1.0000 0.3630156188
C   C1        1.0  0.46257  0.24143  0.52365  1.0000 -0.0259209139
C   C2        1.0  0.24143  0.46257  0.97635  1.0000 -0.0259209139
C   C3        1.0  0.53743  0.75857  0.47635  1.0000 -0.0259209139
C   C4        1.0  0.75857  0.53743  0.02365  1.0000 -0.0259209139
C   C5        1.0  0.70170  0.86190  0.75076  1.0000 0.0004934824
C   C6        1.0  0.86190  0.70170  0.74924  1.0000 0.0004934824
C   C7        1.0  0.29830  0.13810  0.24924  1.0000 0.0004934824
C   C8        1.0  0.13810  0.29830  0.25076  1.0000 0.0004934824
C   C9        1.0  0.29710  0.92050  0.66708  1.0000 -0.1219847383
C   C10       1.0  0.92050  0.29710  0.83292  1.0000 -0.1219847383
C   C11       1.0  0.70290  0.07950  0.33292  1.0000 -0.1219847383
C   C12       1.0  0.07950  0.70290  0.16708  1.0000 -0.1219847383
C   C13       1.0  0.64890  0.80090  0.71522  1.0000 -0.1303576914
C   C14       1.0  0.80090  0.64890  0.78478  1.0000 -0.1303576914
C   C15       1.0  0.35110  0.19910  0.28478  1.0000 -0.1303576914
C   C16       1.0  0.19910  0.35110  0.21522  1.0000 -0.1303576914
C   C17       1.0  0.78694  0.00886  0.74687  1.0000 -0.2115444199
C   C18       1.0  0.00886  0.78694  0.75313  1.0000 -0.2115444199
C   C19       1.0  0.21306  0.99114  0.25313  1.0000 -0.2115444199
C   C20       1.0  0.99114  0.21306  0.24687  1.0000 -0.2115444199
C   C21       1.0  0.93310  0.29830  0.73432  1.0000 -0.1303576914
C   C22       1.0  0.29830  0.93310  0.76568  1.0000 -0.1303576914
C   C23       1.0  0.06690  0.70170  0.26568  1.0000 -0.1303576914
C   C24       1.0  0.70170  0.06690  0.23432  1.0000 -0.1303576914
C   C25       1.0  0.02690  0.45950  0.71760  1.0000 -0.0605273651
C   C26       1.0  0.45950  0.02690  0.78240  1.0000 -0.0605273651
C   C27       1.0  0.97310  0.54050  0.28240  1.0000 -0.0605273651
C   C28       1.0  0.54050  0.97310  0.21760  1.0000 -0.0605273651
C   C29       1.0  0.94760  0.47460  0.69620  1.0000 0.0495985575
C   C30       1.0  0.47460  0.94760  0.80380  1.0000 0.0495985575
C   C31       1.0  0.05240  0.52540  0.30380  1.0000 0.0495985575
C   C32       1.0  0.52540  0.05240  0.19620  1.0000 0.0495985575
C   C33       1.0  0.20070  0.75710  0.68511  1.0000 -0.0605273651
C   C34       1.0  0.75710  0.20070  0.81489  1.0000 -0.0605273651
C   C35       1.0  0.79930  0.24290  0.31489  1.0000 -0.0605273651
C   C36       1.0  0.24290  0.79930  0.18511  1.0000 -0.0605273651
C   C37       1.0  0.19530  0.59610  0.72124  1.0000 0.0556428895
C   C38       1.0  0.59610  0.19530  0.77876  1.0000 0.0556428895
C   C39       1.0  0.80470  0.40390  0.27876  1.0000 0.0556428895
C   C40       1.0  0.40390  0.80470  0.22124  1.0000 0.0556428895
C   C41       1.0  0.39250  0.09270  0.59600  1.0000 0.2141892302
C   C42       1.0  0.09270  0.39250  0.90400  1.0000 0.2141892302
C   C43       1.0  0.60750  0.90730  0.40400  1.0000 0.2141892302
C   C44       1.0  0.90730  0.60750  0.09600  1.0000 0.2141892302
C   C45       1.0  0.40040  0.11300  0.55310  1.0000 -0.2115444199
C   C46       1.0  0.11300  0.40040  0.94690  1.0000 -0.2115444199
C   C47       1.0  0.59960  0.88700  0.44690  1.0000 -0.2115444199
C   C48       1.0  0.88700  0.59960  0.05310  1.0000 -0.2115444199
C   C49       1.0  0.67820  0.88860  0.67430  1.0000 -0.0174010641
C   C50       1.0  0.88860  0.67820  0.82570  1.0000 -0.0174010641
C   C51       1.0  0.32180  0.11140  0.32570  1.0000 -0.0174010641
C   C52       1.0  0.11140  0.32180  0.17430  1.0000 -0.0174010641
C   C53       1.0  0.81330  0.09310  0.70610  1.0000 0.2141892302
C   C54       1.0  0.09310  0.81330  0.79390  1.0000 0.2141892302
C   C55       1.0  0.18670  0.90690  0.29390  1.0000 0.2141892302
C   C56       1.0  0.90690  0.18670  0.20610  1.0000 0.2141892302
C   C57       1.0  0.51720  0.35280  0.53692  1.0000 -0.111492162
C   C58       1.0  0.35280  0.51720  0.96308  1.0000 -0.111492162
C   C59       1.0  0.48280  0.64720  0.46308  1.0000 -0.111492162
C   C60       1.0  0.64720  0.48280  0.03692  1.0000 -0.111492162
C   C61       1.0  0.45190  0.20730  0.60887  1.0000 -0.2019552545
C   C62       1.0  0.20730  0.45190  0.89113  1.0000 -0.2019552545
C   C63       1.0  0.54810  0.79270  0.39113  1.0000 -0.2019552545
C   C64       1.0  0.79270  0.54810  0.10887  1.0000 -0.2019552545
C   C65       1.0  0.03880  0.62820  0.67940  1.0000 0.0495985575
C   C66       1.0  0.62820  0.03880  0.82060  1.0000 0.0495985575
C   C67       1.0  0.96120  0.37180  0.32060  1.0000 0.0495985575
C   C68       1.0  0.37180  0.96120  0.17940  1.0000 0.0495985575
C   C69       1.0  0.27810  0.74150  0.70470  1.0000 0.0495985575
C   C70       1.0  0.74150  0.27810  0.79530  1.0000 0.0495985575
C   C71       1.0  0.72190  0.25850  0.29530  1.0000 0.0495985575
C   C72       1.0  0.25850  0.72190  0.20470  1.0000 0.0495985575
C   C73       1.0  0.46880  0.26020  0.47820  1.0000 0.6057064576
C   C74       1.0  0.26020  0.46880  0.02180  1.0000 0.6057064576
C   C75       1.0  0.53120  0.73980  0.52180  1.0000 0.6057064576
C   C76       1.0  0.73980  0.53120  0.97820  1.0000 0.6057064576
C   C77       1.0  0.76960  0.33060  0.68870  1.0000 -0.47800992
C   C78       1.0  0.33060  0.76960  0.81130  1.0000 -0.47800992
C   C79       1.0  0.23040  0.66940  0.31130  1.0000 -0.47800992
C   C80       1.0  0.66940  0.23040  0.18870  1.0000 -0.47800992
C   C81       1.0  0.75890  0.03170  0.66985  1.0000 -0.2187348375
C   C82       1.0  0.03170  0.75890  0.83015  1.0000 -0.2187348375
C   C83       1.0  0.24110  0.96830  0.33015  1.0000 -0.2187348375
C   C84       1.0  0.96830  0.24110  0.16985  1.0000 -0.2187348375
C   C85       1.0  0.45500  0.88340  0.70830  1.0000 -0.4711265223
C   C86       1.0  0.88340  0.45500  0.79170  1.0000 -0.4711265223
C   C87       1.0  0.54500  0.11660  0.29170  1.0000 -0.4711265223
C   C88       1.0  0.11660  0.54500  0.20830  1.0000 -0.4711265223
C   C89       1.0  0.27630  0.57450  0.74190  1.0000 -0.4593885349
C   C90       1.0  0.57450  0.27630  0.75810  1.0000 -0.4593885349
C   C91       1.0  0.72370  0.42550  0.25810  1.0000 -0.4593885349
C   C92       1.0  0.42550  0.72370  0.24190  1.0000 -0.4593885349
C   C93       1.0  0.95200  0.64380  0.65510  1.0000 -0.4593885349
C   C94       1.0  0.64380  0.95200  0.84490  1.0000 -0.4593885349
C   C95       1.0  0.04800  0.35620  0.34490  1.0000 -0.4593885349
C   C96       1.0  0.35620  0.04800  0.15510  1.0000 -0.4593885349
C   C97       1.0  0.66996  0.77064  0.79600  1.0000 0.5775727077
C   C98       1.0  0.77064  0.66996  0.70400  1.0000 0.5775727077
C   C99       1.0  0.33004  0.22936  0.20400  1.0000 0.5775727077
C   C100      1.0  0.22936  0.33004  0.29600  1.0000 0.5775727077
C   C101      1.0  0.62930  0.83170  0.63420  1.0000 0.6303771777
C   C102      1.0  0.83170  0.62930  0.86580  1.0000 0.6303771777
C   C103      1.0  0.37070  0.16830  0.36580  1.0000 0.6303771777
C   C104      1.0  0.16830  0.37070  0.13420  1.0000 0.6303771777
C   C105      1.0  0.51310  0.33490  0.57968  1.0000 -0.0019712833
C   C106      1.0  0.33490  0.51310  0.92032  1.0000 -0.0019712833
C   C107      1.0  0.48690  0.66510  0.42032  1.0000 -0.0019712833
C   C108      1.0  0.66510  0.48690  0.07968  1.0000 -0.0019712833
C   C109      1.0  0.57070  0.45230  0.59470  1.0000 0.5551565929
C   C110      1.0  0.45230  0.57070  0.90530  1.0000 0.5551565929
C   C111      1.0  0.42930  0.54770  0.40530  1.0000 0.5551565929
C   C112      1.0  0.54770  0.42930  0.09470  1.0000 0.5551565929
N   N1        1.0  0.89486  0.23614  0.70025  1.0000 -0.26819409
N   N2        1.0  0.23614  0.89486  0.79975  1.0000 -0.26819409
N   N3        1.0  0.10514  0.76386  0.29975  1.0000 -0.26819409
N   N4        1.0  0.76386  0.10514  0.20025  1.0000 -0.26819409
N   N5        1.0  0.32504  0.96036  0.62374  1.0000 -0.3040896909
N   N6        1.0  0.96036  0.32504  0.87626  1.0000 -0.3040896909
N   N7        1.0  0.67496  0.03964  0.37626  1.0000 -0.3040896909
N   N8        1.0  0.03964  0.67496  0.12374  1.0000 -0.3040896909
O   O1        1.0  0.56287  0.62293  0.80021  1.0000 -0.6240144329
O   O2        1.0  0.62293  0.56287  0.69979  1.0000 -0.6240144329
O   O3        1.0  0.43713  0.37707  0.19979  1.0000 -0.6240144329
O   O4        1.0  0.37707  0.43713  0.30021  1.0000 -0.6240144329
O   O5        1.0  0.75114  0.84226  0.82869  1.0000 -0.6434676008
O   O6        1.0  0.84226  0.75114  0.67131  1.0000 -0.6434676008
O   O7        1.0  0.24886  0.15774  0.17131  1.0000 -0.6434676008
O   O8        1.0  0.15774  0.24886  0.32869  1.0000 -0.6434676008
O   O9        1.0  0.42957  0.15823  0.47193  1.0000 -0.47800992
O   O10       1.0  0.15823  0.42957  0.02807  1.0000 -0.47800992
O   O11       1.0  0.57043  0.84177  0.52807  1.0000 -0.47800992
O   O12       1.0  0.84177  0.57043  0.97193  1.0000 -0.47800992
O   O13       1.0  0.61616  0.88604  0.59784  1.0000 -0.5299569921
O   O14       1.0  0.88604  0.61616  0.90216  1.0000 -0.5299569921
O   O15       1.0  0.38384  0.11396  0.40216  1.0000 -0.5299569921
O   O16       1.0  0.11396  0.38384  0.09784  1.0000 -0.5299569921
O   O17       1.0  0.50194  0.35826  0.45011  1.0000 -0.6262502478
O   O18       1.0  0.35826  0.50194  0.04989  1.0000 -0.6262502478
O   O19       1.0  0.49806  0.64174  0.54989  1.0000 -0.6262502478
O   O20       1.0  0.64174  0.49806  0.95011  1.0000 -0.6262502478
O   O21       1.0  0.61997  0.56423  0.56811  1.0000 -0.6144789414
O   O22       1.0  0.56423  0.61997  0.93189  1.0000 -0.6144789414
O   O23       1.0  0.38003  0.43577  0.43189  1.0000 -0.6144789414
O   O24       1.0  0.43577  0.38003  0.06811  1.0000 -0.6144789414
O   O25       1.0  0.56885  0.43615  0.63360  1.0000 -0.6240144329
O   O26       1.0  0.43615  0.56885  0.86640  1.0000 -0.6240144329
O   O27       1.0  0.43115  0.56385  0.36640  1.0000 -0.6240144329
O   O28       1.0  0.56385  0.43115  0.13360  1.0000 -0.6240144329
O   O29       1.0  0.60999  0.73961  0.63889  1.0000 -0.6616415934
O   O30       1.0  0.73961  0.60999  0.86111  1.0000 -0.6616415934
O   O31       1.0  0.39001  0.26039  0.36111  1.0000 -0.6616415934
O   O32       1.0  0.26039  0.39001  0.13889  1.0000 -0.6616415934
