# DDEC6 charges by PACMAN v1.1 (https://github.com/mtap-research/PACMAN-charge/)
data_2015[Co][pcu]3[ASR]4
_chemical_formula_sum              "Co14 H108 C120 N36 O36"
_cell_length_a       14.443
_cell_length_b       22.1987
_cell_length_c       20.0051
_cell_angle_alpha    90
_cell_angle_beta     120.5
_cell_angle_gamma    90

_symmetry_space_group_name_H-M    "P 1"
_symmetry_Int_Tables_number       1

loop_
  _symmetry_equiv_pos_as_xyz
  'x, y, z'

loop_
  _atom_site_type_symbol
  _atom_site_label
  _atom_site_symmetry_multiplicity
  _atom_site_fract_x
  _atom_site_fract_y
  _atom_site_fract_z
  _atom_site_occupancy
  _atom_site_charge
Co  Co1       1.0  0.00000  0.00000  0.50000  1.0000 1.0917398118
Co  Co2       1.0  0.00000  0.50000  0.00000  1.0000 1.0917398118
Co  Co3       1.0  0.22469  0.05967  0.68084  1.0000 0.8793676081
Co  Co4       1.0  0.77531  0.55967  0.81916  1.0000 0.8885898573
Co  Co5       1.0  0.77531  0.94033  0.31916  1.0000 0.8885898573
Co  Co6       1.0  0.22469  0.44033  0.18084  1.0000 0.8793676081
Co  Co7       1.0  0.02657  0.13654  0.52750  1.0000 0.8885898573
Co  Co8       1.0  0.97343  0.63654  0.97250  1.0000 0.897246975
Co  Co9       1.0  0.97343  0.86346  0.47250  1.0000 0.897246975
Co  Co10      1.0  0.02657  0.36346  0.02750  1.0000 0.897246975
Co  Co11      1.0  0.80284  0.10379  0.35156  1.0000 0.8793676081
Co  Co12      1.0  0.19716  0.60379  0.14844  1.0000 0.8793676081
Co  Co13      1.0  0.19716  0.89621  0.64844  1.0000 0.8793676081
Co  Co14      1.0  0.80284  0.39621  0.85156  1.0000 0.8793676081
H   H1        1.0  0.57810  0.11040  0.36310  1.0000 0.1287590062
H   H2        1.0  0.42190  0.61040  0.13690  1.0000 0.1287590062
H   H3        1.0  0.42190  0.88960  0.63690  1.0000 0.1287590062
H   H4        1.0  0.57810  0.38960  0.86310  1.0000 0.1287590062
H   H5        1.0  0.09140  0.32830  0.37620  1.0000 0.110842842
H   H6        1.0  0.90860  0.82830  0.12380  1.0000 0.110842842
H   H7        1.0  0.90860  0.67170  0.62380  1.0000 0.110842842
H   H8        1.0  0.09140  0.17170  0.87620  1.0000 0.110842842
H   H9        1.0  0.01530  0.30320  0.45050  1.0000 0.1202063647
H   H10       1.0  0.98470  0.80320  0.04950  1.0000 0.1202063647
H   H11       1.0  0.98470  0.69680  0.54950  1.0000 0.1202063647
H   H12       1.0  0.01530  0.19680  0.95050  1.0000 0.1202063647
H   H13       1.0  0.99380  0.19930  0.19120  1.0000 0.1202063647
H   H14       1.0  0.00620  0.69930  0.30880  1.0000 0.1202063647
H   H15       1.0  0.00620  0.80070  0.80880  1.0000 0.1202063647
H   H16       1.0  0.99380  0.30070  0.69120  1.0000 0.1202063647
H   H17       1.0  0.79770  0.33650  0.18650  1.0000 0.1202063647
H   H18       1.0  0.20230  0.83650  0.31350  1.0000 0.1202063647
H   H19       1.0  0.20230  0.66350  0.81350  1.0000 0.1202063647
H   H20       1.0  0.79770  0.16350  0.68650  1.0000 0.1202063647
H   H21       1.0  0.55460  0.93490  0.33040  1.0000 0.1287590062
H   H22       1.0  0.44540  0.43490  0.16960  1.0000 0.1287590062
H   H23       1.0  0.44540  0.06510  0.66960  1.0000 0.1287590062
H   H24       1.0  0.55460  0.56510  0.83040  1.0000 0.1287590062
H   H25       1.0  0.83720  0.31250  0.45640  1.0000 0.137021844
H   H26       1.0  0.16280  0.81250  0.04360  1.0000 0.137021844
H   H27       1.0  0.16280  0.68750  0.54360  1.0000 0.137021844
H   H28       1.0  0.83720  0.18750  0.95640  1.0000 0.137021844
H   H29       1.0  0.73140  0.29320  0.38020  1.0000 0.137021844
H   H30       1.0  0.26860  0.79320  0.11980  1.0000 0.137021844
H   H31       1.0  0.26860  0.70680  0.61980  1.0000 0.137021844
H   H32       1.0  0.73140  0.20680  0.88020  1.0000 0.137021844
H   H33       1.0  0.13370  0.40080  0.30330  1.0000 0.1202063647
H   H34       1.0  0.86630  0.90080  0.19670  1.0000 0.1202063647
H   H35       1.0  0.86630  0.59920  0.69670  1.0000 0.1202063647
H   H36       1.0  0.13370  0.09920  0.80330  1.0000 0.1202063647
H   H37       1.0  0.91280  0.16600  0.25070  1.0000 0.1202063647
H   H38       1.0  0.08720  0.66600  0.24930  1.0000 0.1202063647
H   H39       1.0  0.08720  0.83400  0.74930  1.0000 0.1202063647
H   H40       1.0  0.91280  0.33400  0.75070  1.0000 0.1202063647
H   H41       1.0  0.28070  0.22150  0.14390  1.0000 0.137021844
H   H42       1.0  0.71930  0.72150  0.35610  1.0000 0.137021844
H   H43       1.0  0.71930  0.77850  0.85610  1.0000 0.137021844
H   H44       1.0  0.28070  0.27850  0.64390  1.0000 0.137021844
H   H45       1.0  0.36870  0.25440  0.21940  1.0000 0.137021844
H   H46       1.0  0.63130  0.75440  0.28060  1.0000 0.137021844
H   H47       1.0  0.63130  0.74560  0.78060  1.0000 0.137021844
H   H48       1.0  0.36870  0.24560  0.71940  1.0000 0.137021844
H   H49       1.0  0.89670  0.32100  0.12080  1.0000 0.1287590062
H   H50       1.0  0.10330  0.82100  0.37920  1.0000 0.1287590062
H   H51       1.0  0.10330  0.67900  0.87920  1.0000 0.1287590062
H   H52       1.0  0.89670  0.17900  0.62080  1.0000 0.1287590062
H   H53       1.0  0.08710  0.22440  0.12900  1.0000 0.1287590062
H   H54       1.0  0.91290  0.72440  0.37100  1.0000 0.1287590062
H   H55       1.0  0.91290  0.77560  0.87100  1.0000 0.1287590062
H   H56       1.0  0.08710  0.27560  0.62900  1.0000 0.1287590062
H   H57       1.0  0.29900  0.94390  0.40890  1.0000 0.110842842
H   H58       1.0  0.70100  0.44390  0.09110  1.0000 0.110842842
H   H59       1.0  0.70100  0.05610  0.59110  1.0000 0.110842842
H   H60       1.0  0.29900  0.55610  0.90890  1.0000 0.110842842
H   H61       1.0  0.36790  0.09550  0.28250  1.0000 0.1202063647
H   H62       1.0  0.63210  0.59550  0.21750  1.0000 0.1202063647
H   H63       1.0  0.63210  0.90450  0.71750  1.0000 0.1202063647
H   H64       1.0  0.36790  0.40450  0.78250  1.0000 0.1202063647
H   H65       1.0  0.72210  0.30780  0.26050  1.0000 0.1202063647
H   H66       1.0  0.27790  0.80780  0.23950  1.0000 0.1202063647
H   H67       1.0  0.27790  0.69220  0.73950  1.0000 0.1202063647
H   H68       1.0  0.72210  0.19220  0.76050  1.0000 0.1202063647
H   H69       1.0  0.17600  0.18190  0.45230  1.0000 0.1287590062
H   H70       1.0  0.82400  0.68190  0.04770  1.0000 0.1287590062
H   H71       1.0  0.82400  0.81810  0.54770  1.0000 0.1287590062
H   H72       1.0  0.17600  0.31810  0.95230  1.0000 0.1287590062
H   H73       1.0  0.20280  0.09050  0.27690  1.0000 0.110842842
H   H74       1.0  0.79720  0.59050  0.22310  1.0000 0.110842842
H   H75       1.0  0.79720  0.90950  0.72310  1.0000 0.110842842
H   H76       1.0  0.20280  0.40950  0.77690  1.0000 0.110842842
H   H77       1.0  0.35810  0.23710  0.33260  1.0000 0.1202063647
H   H78       1.0  0.64190  0.73710  0.16740  1.0000 0.1202063647
H   H79       1.0  0.64190  0.76290  0.66740  1.0000 0.1202063647
H   H80       1.0  0.35810  0.26290  0.83260  1.0000 0.1202063647
H   H81       1.0  0.09430  0.97390  0.31350  1.0000 0.1202063647
H   H82       1.0  0.90570  0.47390  0.18650  1.0000 0.1202063647
H   H83       1.0  0.90570  0.02610  0.68650  1.0000 0.1202063647
H   H84       1.0  0.09430  0.52610  0.81350  1.0000 0.1202063647
H   H85       1.0  0.07940  0.04360  0.30200  1.0000 0.1202063647
H   H86       1.0  0.92060  0.54360  0.19800  1.0000 0.1202063647
H   H87       1.0  0.92060  0.95640  0.69800  1.0000 0.1202063647
H   H88       1.0  0.07940  0.45640  0.80200  1.0000 0.1202063647
H   H89       1.0  0.46370  0.94700  0.41570  1.0000 0.1202063647
H   H90       1.0  0.53630  0.44700  0.08430  1.0000 0.1202063647
H   H91       1.0  0.53630  0.05300  0.58430  1.0000 0.1202063647
H   H92       1.0  0.46370  0.55300  0.91570  1.0000 0.1202063647
H   H93       1.0  0.26440  0.21190  0.39540  1.0000 0.1202063647
H   H94       1.0  0.73560  0.71190  0.10460  1.0000 0.1202063647
H   H95       1.0  0.73560  0.78810  0.60460  1.0000 0.1202063647
H   H96       1.0  0.26440  0.28810  0.89540  1.0000 0.1202063647
H   H97       1.0  0.85900  0.07400  0.47900  1.0000 0.3543717944
H   H98       1.0  0.14100  0.57400  0.02100  1.0000 0.3543717944
H   H99       1.0  0.14100  0.92600  0.52100  1.0000 0.3543717944
H   H100      1.0  0.85900  0.42600  0.97900  1.0000 0.3543717944
H   H101      1.0  0.16000  0.06200  0.54600  1.0000 0.3587832757
H   H102      1.0  0.84000  0.56200  0.95400  1.0000 0.3587832757
H   H103      1.0  0.84000  0.93800  0.45400  1.0000 0.3587832757
H   H104      1.0  0.16000  0.43800  0.04600  1.0000 0.3587832757
H   H105      1.0  0.16800  0.97400  0.73900  1.0000 0.3655248069
H   H106      1.0  0.83200  0.47400  0.76100  1.0000 0.3655248069
H   H107      1.0  0.83200  0.02600  0.26100  1.0000 0.3655248069
H   H108      1.0  0.16800  0.52600  0.23900  1.0000 0.3655248069
C   C1        1.0  0.59160  0.07100  0.35440  1.0000 0.110842842
C   C2        1.0  0.40840  0.57100  0.14560  1.0000 0.110842842
C   C3        1.0  0.40840  0.92900  0.64560  1.0000 0.110842842
C   C4        1.0  0.59160  0.42900  0.85440  1.0000 0.110842842
C   C5        1.0  0.85920  0.30436  0.36290  1.0000 0.1287590062
C   C6        1.0  0.14080  0.80436  0.13710  1.0000 0.1287590062
C   C7        1.0  0.14080  0.69564  0.63710  1.0000 0.1287590062
C   C8        1.0  0.85920  0.19564  0.86290  1.0000 0.1287590062
C   C9        1.0  0.12240  0.20136  0.29880  1.0000 0.1202063647
C   C10       1.0  0.87760  0.70136  0.20120  1.0000 0.1202063647
C   C11       1.0  0.87760  0.79864  0.70120  1.0000 0.1202063647
C   C12       1.0  0.12240  0.29864  0.79880  1.0000 0.1202063647
C   C13       1.0  0.83390  0.22150  0.43390  1.0000 0.6498898499
C   C14       1.0  0.16610  0.72150  0.06610  1.0000 0.6498898499
C   C15       1.0  0.16610  0.77850  0.56610  1.0000 0.6498898499
C   C16       1.0  0.83390  0.27850  0.93390  1.0000 0.6498898499
C   C17       1.0  0.01720  0.32535  0.35330  1.0000 -0.2170752614
C   C18       1.0  0.98280  0.82535  0.14670  1.0000 -0.2170752614
C   C19       1.0  0.98280  0.67465  0.64670  1.0000 -0.2170752614
C   C20       1.0  0.01720  0.17465  0.85330  1.0000 -0.2170752614
C   C21       1.0  0.97150  0.30990  0.39760  1.0000 -0.1295044302
C   C22       1.0  0.02850  0.80990  0.10240  1.0000 -0.1295044302
C   C23       1.0  0.02850  0.69010  0.60240  1.0000 -0.1295044302
C   C24       1.0  0.97150  0.19010  0.89760  1.0000 -0.1295044302
C   C25       1.0  0.23480  0.01720  0.34220  1.0000 0.137021844
C   C26       1.0  0.76520  0.51720  0.15780  1.0000 0.137021844
C   C27       1.0  0.76520  0.98280  0.65780  1.0000 0.137021844
C   C28       1.0  0.23480  0.48280  0.84220  1.0000 0.137021844
C   C29       1.0  0.12680  0.01770  0.41290  1.0000 0.6145843648
C   C30       1.0  0.87320  0.51770  0.08710  1.0000 0.6153810405
C   C31       1.0  0.87320  0.98230  0.58710  1.0000 0.6153810405
C   C32       1.0  0.12680  0.48230  0.91290  1.0000 0.6145843648
C   C33       1.0  0.43000  0.02210  0.34830  1.0000 0.137021844
C   C34       1.0  0.57000  0.52210  0.15170  1.0000 0.1287590062
C   C35       1.0  0.57000  0.97790  0.65170  1.0000 0.137021844
C   C36       1.0  0.43000  0.47790  0.84830  1.0000 0.137021844
C   C37       1.0  0.95080  0.33630  0.27470  1.0000 0.1287590062
C   C38       1.0  0.04920  0.83630  0.22530  1.0000 0.1287590062
C   C39       1.0  0.04920  0.66370  0.72530  1.0000 0.1287590062
C   C40       1.0  0.95080  0.16370  0.77470  1.0000 0.1287590062
C   C41       1.0  0.06750  0.20620  0.21980  1.0000 -0.1996983754
C   C42       1.0  0.93250  0.70620  0.28020  1.0000 -0.1996983754
C   C43       1.0  0.93250  0.79380  0.78020  1.0000 -0.1996983754
C   C44       1.0  0.06750  0.29380  0.71980  1.0000 -0.1996983754
C   C45       1.0  0.84130  0.32980  0.23950  1.0000 -0.2170752614
C   C46       1.0  0.15870  0.82980  0.26050  1.0000 -0.2170752614
C   C47       1.0  0.15870  0.67020  0.76050  1.0000 -0.2170752614
C   C48       1.0  0.84130  0.17020  0.73950  1.0000 -0.2170752614
C   C49       1.0  0.57850  0.97450  0.33650  1.0000 0.1287590062
C   C50       1.0  0.42150  0.47450  0.16350  1.0000 0.1287590062
C   C51       1.0  0.42150  0.02550  0.66350  1.0000 0.1287590062
C   C52       1.0  0.57850  0.52550  0.83650  1.0000 0.1202063647
C   C53       1.0  0.23280  0.23330  0.22470  1.0000 0.1287590062
C   C54       1.0  0.76720  0.73330  0.27530  1.0000 0.1287590062
C   C55       1.0  0.76720  0.76670  0.77530  1.0000 0.1287590062
C   C56       1.0  0.23280  0.26670  0.72470  1.0000 0.1287590062
C   C57       1.0  0.80860  0.28730  0.41050  1.0000 -0.3893693417
C   C58       1.0  0.19140  0.78730  0.08950  1.0000 -0.3893693417
C   C59       1.0  0.19140  0.71270  0.58950  1.0000 -0.3893693417
C   C60       1.0  0.80860  0.21270  0.91050  1.0000 -0.3893693417
C   C61       1.0  0.08900  0.38660  0.25310  1.0000 0.0835236897
C   C62       1.0  0.91100  0.88660  0.24690  1.0000 0.0835236897
C   C63       1.0  0.91100  0.61340  0.74690  1.0000 0.0835236897
C   C64       1.0  0.08900  0.11340  0.75310  1.0000 0.0835236897
C   C65       1.0  0.96190  0.16440  0.30370  1.0000 0.0904645928
C   C66       1.0  0.03810  0.66440  0.19630  1.0000 0.0904645928
C   C67       1.0  0.03810  0.83560  0.69630  1.0000 0.0904645928
C   C68       1.0  0.96190  0.33560  0.80370  1.0000 0.0904645928
C   C69       1.0  0.29230  0.25140  0.18290  1.0000 -0.3893693417
C   C70       1.0  0.70770  0.75140  0.31710  1.0000 -0.3893693417
C   C71       1.0  0.70770  0.74860  0.81710  1.0000 -0.3893693417
C   C72       1.0  0.29230  0.24860  0.68290  1.0000 -0.3893693417
C   C73       1.0  0.95900  0.34270  0.15290  1.0000 0.070021604
C   C74       1.0  0.04100  0.84270  0.34710  1.0000 0.070021604
C   C75       1.0  0.04100  0.65730  0.84710  1.0000 0.070021604
C   C76       1.0  0.95900  0.15730  0.65290  1.0000 0.070021604
C   C77       1.0  0.24740  0.31220  0.14480  1.0000 0.6498898499
C   C78       1.0  0.75260  0.81220  0.35520  1.0000 0.6498898499
C   C79       1.0  0.75260  0.68780  0.85520  1.0000 0.6498898499
C   C80       1.0  0.24740  0.18780  0.64480  1.0000 0.6498898499
C   C81       1.0  0.12360  0.22170  0.18290  1.0000 -0.1369530551
C   C82       1.0  0.87640  0.72170  0.31710  1.0000 -0.1369530551
C   C83       1.0  0.87640  0.77830  0.81710  1.0000 -0.1369530551
C   C84       1.0  0.12360  0.27830  0.68290  1.0000 -0.1369530551
C   C85       1.0  0.31300  0.97440  0.38340  1.0000 -0.1369530551
C   C86       1.0  0.68700  0.47440  0.11660  1.0000 -0.1369530551
C   C87       1.0  0.68700  0.02560  0.61660  1.0000 -0.1369530551
C   C88       1.0  0.31300  0.52560  0.88340  1.0000 -0.1369530551
C   C89       1.0  0.35430  0.06480  0.30790  1.0000 -0.1996983754
C   C90       1.0  0.64570  0.56480  0.19210  1.0000 -0.1996983754
C   C91       1.0  0.64570  0.93520  0.69210  1.0000 -0.1996983754
C   C92       1.0  0.35430  0.43520  0.80790  1.0000 -0.1996983754
C   C93       1.0  0.79610  0.31310  0.28440  1.0000 -0.1493861686
C   C94       1.0  0.20390  0.81310  0.21560  1.0000 -0.1493861686
C   C95       1.0  0.20390  0.68690  0.71560  1.0000 -0.1493861686
C   C96       1.0  0.79610  0.18690  0.78440  1.0000 -0.1493861686
C   C97       1.0  0.10580  0.17310  0.41380  1.0000 0.0972824775
C   C98       1.0  0.89420  0.67310  0.08620  1.0000 0.0972824775
C   C99       1.0  0.89420  0.82690  0.58620  1.0000 0.0972824775
C   C100      1.0  0.10580  0.32690  0.91380  1.0000 0.0972824775
C   C101      1.0  0.25520  0.06170  0.30490  1.0000 -0.1493861686
C   C102      1.0  0.74480  0.56170  0.19510  1.0000 -0.1493861686
C   C103      1.0  0.74480  0.93830  0.69510  1.0000 -0.1493861686
C   C104      1.0  0.25520  0.43830  0.80490  1.0000 -0.1493861686
C   C105      1.0  0.28460  0.22940  0.30350  1.0000 -0.1612143546
C   C106      1.0  0.71540  0.72940  0.19650  1.0000 -0.1612143546
C   C107      1.0  0.71540  0.77060  0.69650  1.0000 -0.1612143546
C   C108      1.0  0.28460  0.27060  0.80350  1.0000 -0.1612143546
C   C109      1.0  0.12590  0.01240  0.33680  1.0000 -0.3999917648
C   C110      1.0  0.87410  0.51240  0.16320  1.0000 -0.3999917648
C   C111      1.0  0.87410  0.98760  0.66320  1.0000 -0.3999917648
C   C112      1.0  0.12590  0.48760  0.83680  1.0000 -0.3999917648
C   C113      1.0  0.41140  0.97590  0.38760  1.0000 -0.2075726754
C   C114      1.0  0.58860  0.47590  0.11240  1.0000 -0.2075726754
C   C115      1.0  0.58860  0.02410  0.61240  1.0000 -0.2075726754
C   C116      1.0  0.41140  0.52410  0.88760  1.0000 -0.2075726754
C   C117      1.0  0.22880  0.21370  0.34150  1.0000 -0.1996983754
C   C118      1.0  0.77120  0.71370  0.15850  1.0000 -0.1996983754
C   C119      1.0  0.77120  0.78630  0.65850  1.0000 -0.1996983754
C   C120      1.0  0.22880  0.28630  0.84150  1.0000 -0.1996983754
N   N1        1.0  0.93980  0.14556  0.35610  1.0000 -0.17258704
N   N2        1.0  0.06020  0.64556  0.14390  1.0000 -0.17258704
N   N3        1.0  0.06020  0.85444  0.64390  1.0000 -0.17258704
N   N4        1.0  0.93980  0.35444  0.85610  1.0000 -0.17258704
N   N5        1.0  0.06490  0.18116  0.33710  1.0000 -0.0267434417
N   N6        1.0  0.93510  0.68116  0.16290  1.0000 -0.0267434417
N   N7        1.0  0.93510  0.81884  0.66290  1.0000 -0.0267434417
N   N8        1.0  0.06490  0.31884  0.83710  1.0000 -0.0267434417
N   N9        1.0  0.99800  0.35393  0.22920  1.0000 -0.0267434417
N   N10       1.0  0.00200  0.85393  0.27080  1.0000 -0.0267434417
N   N11       1.0  0.00200  0.64607  0.77080  1.0000 -0.0267434417
N   N12       1.0  0.99800  0.14607  0.72920  1.0000 -0.0267434417
N   N13       1.0  0.53030  0.02264  0.34840  1.0000 -0.0267434417
N   N14       1.0  0.46970  0.52264  0.15160  1.0000 -0.0267434417
N   N15       1.0  0.46970  0.97736  0.65160  1.0000 -0.0267434417
N   N16       1.0  0.53030  0.47736  0.84840  1.0000 -0.0267434417
N   N17       1.0  0.10430  0.39496  0.19470  1.0000 -0.17258704
N   N18       1.0  0.89570  0.89496  0.30530  1.0000 -0.17258704
N   N19       1.0  0.89570  0.60504  0.80530  1.0000 -0.17258704
N   N20       1.0  0.10430  0.10504  0.69470  1.0000 -0.17258704
N   N21       1.0  0.03180  0.15112  0.42580  1.0000 -0.1612143546
N   N22       1.0  0.96820  0.65112  0.07420  1.0000 -0.1612143546
N   N23       1.0  0.96820  0.84888  0.57420  1.0000 -0.1612143546
N   N24       1.0  0.03180  0.34888  0.92580  1.0000 -0.1612143546
N   N25       1.0  0.66320  0.99241  0.33490  1.0000 -0.1820835146
N   N26       1.0  0.33680  0.49241  0.16510  1.0000 -0.1820835146
N   N27       1.0  0.33680  0.00759  0.66510  1.0000 -0.1820835146
N   N28       1.0  0.66320  0.50759  0.83490  1.0000 -0.1820835146
N   N29       1.0  0.02170  0.36680  0.13120  1.0000 -0.1820835146
N   N30       1.0  0.97830  0.86680  0.36880  1.0000 -0.1820835146
N   N31       1.0  0.97830  0.63320  0.86880  1.0000 -0.1820835146
N   N32       1.0  0.02170  0.13320  0.63120  1.0000 -0.1820835146
N   N33       1.0  0.67140  0.05464  0.34630  1.0000 -0.1917722739
N   N34       1.0  0.32860  0.55464  0.15370  1.0000 -0.1917722739
N   N35       1.0  0.32860  0.94536  0.65370  1.0000 -0.1917722739
N   N36       1.0  0.67140  0.44536  0.84630  1.0000 -0.1917722739
O   O1        1.0  0.12118  0.05981  0.56601  1.0000 -0.8606980857
O   O2        1.0  0.87882  0.55981  0.93399  1.0000 -0.8606980857
O   O3        1.0  0.87882  0.94019  0.43399  1.0000 -0.8606980857
O   O4        1.0  0.12118  0.44019  0.06601  1.0000 -0.8606980857
O   O5        1.0  0.90150  0.07577  0.46206  1.0000 -0.845705948
O   O6        1.0  0.09850  0.57577  0.03794  1.0000 -0.845705948
O   O7        1.0  0.09850  0.92423  0.53794  1.0000 -0.845705948
O   O8        1.0  0.90150  0.42423  0.96206  1.0000 -0.845705948
O   O9        1.0  0.16127  0.30938  0.08117  1.0000 -0.5813100703
O   O10       1.0  0.83873  0.80938  0.41883  1.0000 -0.5813100703
O   O11       1.0  0.83873  0.69062  0.91883  1.0000 -0.5813100703
O   O12       1.0  0.16127  0.19062  0.58117  1.0000 -0.5813100703
O   O13       1.0  0.76505  0.18351  0.38885  1.0000 -0.6261162377
O   O14       1.0  0.23495  0.68351  0.11115  1.0000 -0.6261162377
O   O15       1.0  0.23495  0.81649  0.61115  1.0000 -0.6261162377
O   O16       1.0  0.76505  0.31649  0.88885  1.0000 -0.6261162377
O   O17       1.0  0.29610  0.35863  0.18020  1.0000 -0.6063354976
O   O18       1.0  0.70390  0.85863  0.31980  1.0000 -0.6063354976
O   O19       1.0  0.70390  0.64137  0.81980  1.0000 -0.6063354976
O   O20       1.0  0.29610  0.14137  0.68020  1.0000 -0.6063354976
O   O21       1.0  0.92160  0.20934  0.49270  1.0000 -0.58669307
O   O22       1.0  0.07840  0.70934  0.00730  1.0000 -0.58669307
O   O23       1.0  0.07840  0.79066  0.50730  1.0000 -0.58669307
O   O24       1.0  0.92160  0.29066  0.99270  1.0000 -0.58669307
O   O25       1.0  0.21160  0.03133  0.47390  1.0000 -0.5813100703
O   O26       1.0  0.78840  0.53133  0.02610  1.0000 -0.5813100703
O   O27       1.0  0.78840  0.96867  0.52610  1.0000 -0.5813100703
O   O28       1.0  0.21160  0.46867  0.97390  1.0000 -0.5813100703
O   O29       1.0  0.03899  0.00804  0.40916  1.0000 -0.5454422054
O   O30       1.0  0.96101  0.50804  0.09084  1.0000 -0.5454422054
O   O31       1.0  0.96101  0.99196  0.59084  1.0000 -0.5454422054
O   O32       1.0  0.03899  0.49196  0.90916  1.0000 -0.5445698715
O   O33       1.0  0.16007  0.97523  0.69431  1.0000 -0.8606980857
O   O34       1.0  0.83993  0.47523  0.80569  1.0000 -0.8651994682
O   O35       1.0  0.83993  0.02477  0.30569  1.0000 -0.8606980857
O   O36       1.0  0.16007  0.52477  0.19431  1.0000 -0.8651994682
