# DDEC6 charges by PACMAN v1.1 (https://github.com/mtap-research/PACMAN-charge/)
data_2015[V][bpq]3[ASR]4
_chemical_formula_sum              "V8 H40 C64 O40"
_cell_length_a       12.6011
_cell_length_b       13.7364
_cell_length_c       17.2874
_cell_angle_alpha    90
_cell_angle_beta     90
_cell_angle_gamma    90

_symmetry_space_group_name_H-M    "P 1"
_symmetry_Int_Tables_number       1

loop_
  _symmetry_equiv_pos_as_xyz
  'x, y, z'

loop_
  _atom_site_type_symbol
  _atom_site_label
  _atom_site_symmetry_multiplicity
  _atom_site_fract_x
  _atom_site_fract_y
  _atom_site_fract_z
  _atom_site_occupancy
  _atom_site_charge
V   V1        1.0  0.24976  0.12483  0.25061  1.0000 1.6484250863
V   V2        1.0  0.75024  0.62483  0.74939  1.0000 1.6484250863
V   V3        1.0  0.75024  0.37517  0.75061  1.0000 1.6484250863
V   V4        1.0  0.24976  0.87517  0.24939  1.0000 1.6484250863
V   V5        1.0  0.75024  0.87517  0.74939  1.0000 1.6484250863
V   V6        1.0  0.24976  0.37517  0.25061  1.0000 1.6484250863
V   V7        1.0  0.24976  0.62483  0.24939  1.0000 1.6484250863
V   V8        1.0  0.75024  0.12483  0.75061  1.0000 1.6484250863
H   H1        1.0  0.38600  0.25000  0.23200  1.0000 0.4180902828
H   H2        1.0  0.61400  0.75000  0.76800  1.0000 0.4180902828
H   H3        1.0  0.61400  0.25000  0.73200  1.0000 0.4180902828
H   H4        1.0  0.38600  0.75000  0.26800  1.0000 0.4180902828
H   H5        1.0  0.11160  0.00000  0.25000  1.0000 0.4180902828
H   H6        1.0  0.88840  0.50000  0.75000  1.0000 0.4180902828
H   H7        1.0  0.88840  0.00000  0.75000  1.0000 0.4180902828
H   H8        1.0  0.11160  0.50000  0.25000  1.0000 0.4180902828
H   H9        1.0  0.96810  0.10430  0.56670  1.0000 0.1269679786
H   H10       1.0  0.03190  0.60430  0.43330  1.0000 0.1269679786
H   H11       1.0  0.03190  0.39570  0.06670  1.0000 0.1269679786
H   H12       1.0  0.96810  0.89570  0.93330  1.0000 0.1269679786
H   H13       1.0  0.03190  0.89570  0.43330  1.0000 0.1269679786
H   H14       1.0  0.96810  0.39570  0.56670  1.0000 0.1269679786
H   H15       1.0  0.96810  0.60430  0.93330  1.0000 0.1269679786
H   H16       1.0  0.03190  0.10430  0.06670  1.0000 0.1269679786
H   H17       1.0  0.06850  0.10370  0.45450  1.0000 0.1269679786
H   H18       1.0  0.93150  0.60370  0.54550  1.0000 0.1269679786
H   H19       1.0  0.93150  0.39630  0.95450  1.0000 0.1269679786
H   H20       1.0  0.06850  0.89630  0.04550  1.0000 0.1269679786
H   H21       1.0  0.93150  0.89630  0.54550  1.0000 0.1269679786
H   H22       1.0  0.06850  0.39630  0.45450  1.0000 0.1269679786
H   H23       1.0  0.06850  0.60370  0.04550  1.0000 0.1269679786
H   H24       1.0  0.93150  0.10370  0.95450  1.0000 0.1269679786
H   H25       1.0  0.45240  0.85520  0.05840  1.0000 0.1269679786
H   H26       1.0  0.54760  0.35520  0.94160  1.0000 0.1269679786
H   H27       1.0  0.54760  0.64480  0.55840  1.0000 0.1269679786
H   H28       1.0  0.45240  0.14480  0.44160  1.0000 0.1269679786
H   H29       1.0  0.54760  0.14480  0.94160  1.0000 0.1269679786
H   H30       1.0  0.45240  0.64480  0.05840  1.0000 0.1269679786
H   H31       1.0  0.45240  0.35520  0.44160  1.0000 0.1269679786
H   H32       1.0  0.54760  0.85520  0.55840  1.0000 0.1269679786
H   H33       1.0  0.44690  0.14640  0.05310  1.0000 0.1269679786
H   H34       1.0  0.55310  0.64640  0.94690  1.0000 0.1269679786
H   H35       1.0  0.55310  0.35360  0.55310  1.0000 0.1269679786
H   H36       1.0  0.44690  0.85360  0.44690  1.0000 0.1269679786
H   H37       1.0  0.55310  0.85360  0.94690  1.0000 0.1269679786
H   H38       1.0  0.44690  0.35360  0.05310  1.0000 0.1269679786
H   H39       1.0  0.44690  0.64640  0.44690  1.0000 0.1269679786
H   H40       1.0  0.55310  0.14640  0.55310  1.0000 0.1269679786
C   C1        1.0  0.88630  0.25000  0.64670  1.0000 0.6214390238
C   C2        1.0  0.11370  0.75000  0.35330  1.0000 0.6214390238
C   C3        1.0  0.11370  0.25000  0.14670  1.0000 0.6214390238
C   C4        1.0  0.88630  0.75000  0.85330  1.0000 0.6214390238
C   C5        1.0  0.95740  0.25000  0.57690  1.0000 -0.0225440703
C   C6        1.0  0.04260  0.75000  0.42310  1.0000 -0.0225440703
C   C7        1.0  0.04260  0.25000  0.07690  1.0000 -0.0225440703
C   C8        1.0  0.95740  0.75000  0.92310  1.0000 -0.0225440703
C   C9        1.0  0.98780  0.16280  0.54380  1.0000 -0.1031536898
C   C10       1.0  0.01220  0.66280  0.45620  1.0000 -0.1031536898
C   C11       1.0  0.01220  0.33720  0.04380  1.0000 -0.1031536898
C   C12       1.0  0.98780  0.83720  0.95620  1.0000 -0.1031536898
C   C13       1.0  0.01220  0.83720  0.45620  1.0000 -0.1031536898
C   C14       1.0  0.98780  0.33720  0.54380  1.0000 -0.1031536898
C   C15       1.0  0.98780  0.66280  0.95620  1.0000 -0.1031536898
C   C16       1.0  0.01220  0.16280  0.04380  1.0000 -0.1031536898
C   C17       1.0  0.37470  0.00205  0.13927  1.0000 0.6214390238
C   C18       1.0  0.62530  0.50205  0.86073  1.0000 0.6214390238
C   C19       1.0  0.62530  0.49795  0.63927  1.0000 0.6214390238
C   C20       1.0  0.37470  0.99795  0.36073  1.0000 0.6214390238
C   C21       1.0  0.62530  0.99795  0.86073  1.0000 0.6214390238
C   C22       1.0  0.37470  0.49795  0.13927  1.0000 0.6214390238
C   C23       1.0  0.37470  0.50205  0.36073  1.0000 0.6214390238
C   C24       1.0  0.62530  0.00205  0.63927  1.0000 0.6214390238
C   C25       1.0  0.44050  0.00069  0.06725  1.0000 -0.0225440703
C   C26       1.0  0.55950  0.50069  0.93275  1.0000 -0.0225440703
C   C27       1.0  0.55950  0.49931  0.56725  1.0000 -0.0225440703
C   C28       1.0  0.44050  0.99931  0.43275  1.0000 -0.0225440703
C   C29       1.0  0.55950  0.99931  0.93275  1.0000 -0.0225440703
C   C30       1.0  0.44050  0.49931  0.06725  1.0000 -0.0225440703
C   C31       1.0  0.44050  0.50069  0.43275  1.0000 -0.0225440703
C   C32       1.0  0.55950  0.00069  0.56725  1.0000 -0.0225440703
C   C33       1.0  0.13650  0.25000  0.36790  1.0000 0.6214390238
C   C34       1.0  0.86350  0.75000  0.63210  1.0000 0.6214390238
C   C35       1.0  0.86350  0.25000  0.86790  1.0000 0.6214390238
C   C36       1.0  0.13650  0.75000  0.13210  1.0000 0.6214390238
C   C37       1.0  0.07600  0.25000  0.44220  1.0000 -0.0275955969
C   C38       1.0  0.92400  0.75000  0.55780  1.0000 -0.0275955969
C   C39       1.0  0.92400  0.25000  0.94220  1.0000 -0.0275955969
C   C40       1.0  0.07600  0.75000  0.05780  1.0000 -0.0275955969
C   C41       1.0  0.04750  0.16240  0.47657  1.0000 -0.1071506162
C   C42       1.0  0.95250  0.66240  0.52343  1.0000 -0.1071506162
C   C43       1.0  0.95250  0.33760  0.97657  1.0000 -0.1071506162
C   C44       1.0  0.04750  0.83760  0.02343  1.0000 -0.1071506162
C   C45       1.0  0.95250  0.83760  0.52343  1.0000 -0.1071506162
C   C46       1.0  0.04750  0.33760  0.47657  1.0000 -0.1071506162
C   C47       1.0  0.04750  0.66240  0.02343  1.0000 -0.1071506162
C   C48       1.0  0.95250  0.16240  0.97657  1.0000 -0.1071506162
C   C49       1.0  0.47170  0.91350  0.03500  1.0000 -0.1031536898
C   C50       1.0  0.52830  0.41350  0.96500  1.0000 -0.1031536898
C   C51       1.0  0.52830  0.58650  0.53500  1.0000 -0.1031536898
C   C52       1.0  0.47170  0.08650  0.46500  1.0000 -0.1031536898
C   C53       1.0  0.52830  0.08650  0.96500  1.0000 -0.1031536898
C   C54       1.0  0.47170  0.58650  0.03500  1.0000 -0.1031536898
C   C55       1.0  0.47170  0.41350  0.46500  1.0000 -0.1031536898
C   C56       1.0  0.52830  0.91350  0.53500  1.0000 -0.1031536898
C   C57       1.0  0.46850  0.08750  0.03184  1.0000 -0.1071506162
C   C58       1.0  0.53150  0.58750  0.96816  1.0000 -0.1071506162
C   C59       1.0  0.53150  0.41250  0.53184  1.0000 -0.1071506162
C   C60       1.0  0.46850  0.91250  0.46816  1.0000 -0.1071506162
C   C61       1.0  0.53150  0.91250  0.96816  1.0000 -0.1071506162
C   C62       1.0  0.46850  0.41250  0.03184  1.0000 -0.1071506162
C   C63       1.0  0.46850  0.58750  0.46816  1.0000 -0.1071506162
C   C64       1.0  0.53150  0.08750  0.53184  1.0000 -0.1071506162
O   O1        1.0  0.32090  0.25000  0.24658  1.0000 -0.9491611034
O   O2        1.0  0.67910  0.75000  0.75342  1.0000 -0.9491611034
O   O3        1.0  0.67910  0.25000  0.74658  1.0000 -0.9491611034
O   O4        1.0  0.32090  0.75000  0.25342  1.0000 -0.9491611034
O   O5        1.0  0.17810  0.00000  0.25000  1.0000 -0.9491611034
O   O6        1.0  0.82190  0.50000  0.75000  1.0000 -0.9444465647
O   O7        1.0  0.82190  0.00000  0.75000  1.0000 -0.9491611034
O   O8        1.0  0.17810  0.50000  0.25000  1.0000 -0.9444465647
O   O9        1.0  0.15957  0.16879  0.33933  1.0000 -0.6002650867
O   O10       1.0  0.84043  0.66879  0.66067  1.0000 -0.6002650867
O   O11       1.0  0.84043  0.33121  0.83933  1.0000 -0.6002650867
O   O12       1.0  0.15957  0.83121  0.16067  1.0000 -0.6002650867
O   O13       1.0  0.84043  0.83121  0.66067  1.0000 -0.6002650867
O   O14       1.0  0.15957  0.33121  0.33933  1.0000 -0.6002650867
O   O15       1.0  0.15957  0.66879  0.16067  1.0000 -0.6002650867
O   O16       1.0  0.84043  0.16879  0.83933  1.0000 -0.6002650867
O   O17       1.0  0.34339  0.08341  0.16266  1.0000 -0.6002650867
O   O18       1.0  0.65661  0.58341  0.83734  1.0000 -0.6002650867
O   O19       1.0  0.65661  0.41659  0.66266  1.0000 -0.6002650867
O   O20       1.0  0.34339  0.91659  0.33734  1.0000 -0.6002650867
O   O21       1.0  0.65661  0.91659  0.83734  1.0000 -0.6002650867
O   O22       1.0  0.34339  0.41659  0.16266  1.0000 -0.6002650867
O   O23       1.0  0.34339  0.58341  0.33734  1.0000 -0.6002650867
O   O24       1.0  0.65661  0.08341  0.66266  1.0000 -0.6002650867
O   O25       1.0  0.85921  0.16876  0.67311  1.0000 -0.6002650867
O   O26       1.0  0.14079  0.66876  0.32689  1.0000 -0.6002650867
O   O27       1.0  0.14079  0.33124  0.17311  1.0000 -0.6002650867
O   O28       1.0  0.85921  0.83124  0.82689  1.0000 -0.6002650867
O   O29       1.0  0.14079  0.83124  0.32689  1.0000 -0.6002650867
O   O30       1.0  0.85921  0.33124  0.67311  1.0000 -0.6002650867
O   O31       1.0  0.85921  0.66876  0.82689  1.0000 -0.6002650867
O   O32       1.0  0.14079  0.16876  0.17311  1.0000 -0.6002650867
O   O33       1.0  0.35626  0.92178  0.17137  1.0000 -0.6002650867
O   O34       1.0  0.64374  0.42178  0.82863  1.0000 -0.6002650867
O   O35       1.0  0.64374  0.57822  0.67137  1.0000 -0.6002650867
O   O36       1.0  0.35626  0.07822  0.32863  1.0000 -0.6002650867
O   O37       1.0  0.64374  0.07822  0.82863  1.0000 -0.6002650867
O   O38       1.0  0.35626  0.57822  0.17137  1.0000 -0.6002650867
O   O39       1.0  0.35626  0.42178  0.32863  1.0000 -0.6002650867
O   O40       1.0  0.64374  0.92178  0.67137  1.0000 -0.6002650867
