# DDEC6 charges by PACMAN v1.1 (https://github.com/mtap-research/PACMAN-charge/)
data_2015[La][nan]3[ASR]8
_chemical_formula_sum              "La3 H36 C63 N3 O18"
_cell_length_a       14.709
_cell_length_b       14.709
_cell_length_c       14.709
_cell_angle_alpha    111.475
_cell_angle_beta     111.475
_cell_angle_gamma    111.475

_symmetry_space_group_name_H-M    "P 1"
_symmetry_Int_Tables_number       1

loop_
  _symmetry_equiv_pos_as_xyz
  'x, y, z'

loop_
  _atom_site_type_symbol
  _atom_site_label
  _atom_site_symmetry_multiplicity
  _atom_site_fract_x
  _atom_site_fract_y
  _atom_site_fract_z
  _atom_site_occupancy
  _atom_site_charge
La  La1       1.0  0.50000  0.82032  0.17968  1.0000 1.9058245806
La  La2       1.0  0.82033  0.17968  0.50000  1.0000 1.9058245806
La  La3       1.0  0.17968  0.50000  0.82032  1.0000 1.9058245806
H   H1        1.0  0.34010  0.83050  0.65750  1.0000 0.1283356933
H   H2        1.0  0.83050  0.65750  0.34010  1.0000 0.1283356933
H   H3        1.0  0.65750  0.34010  0.83050  1.0000 0.1283356933
H   H4        1.0  0.65990  0.34250  0.16950  1.0000 0.1283356933
H   H5        1.0  0.16950  0.65990  0.34250  1.0000 0.1283356933
H   H6        1.0  0.34250  0.16950  0.65990  1.0000 0.1283356933
H   H7        1.0  0.35400  0.74930  0.76650  1.0000 0.1283356933
H   H8        1.0  0.74930  0.76650  0.35400  1.0000 0.1283356933
H   H9        1.0  0.76650  0.35400  0.74930  1.0000 0.1283356933
H   H10       1.0  0.64600  0.23350  0.25070  1.0000 0.1283356933
H   H11       1.0  0.25070  0.64600  0.23350  1.0000 0.1283356933
H   H12       1.0  0.23350  0.25070  0.64600  1.0000 0.1283356933
H   H13       1.0  0.32950  0.98330  0.98810  1.0000 0.1283356933
H   H14       1.0  0.98330  0.98810  0.32950  1.0000 0.1283356933
H   H15       1.0  0.98810  0.32950  0.98330  1.0000 0.1283356933
H   H16       1.0  0.67050  0.01190  0.01670  1.0000 0.1283356933
H   H17       1.0  0.01670  0.67050  0.01190  1.0000 0.1283356933
H   H18       1.0  0.01190  0.01670  0.67050  1.0000 0.1283356933
H   H19       1.0  0.31560  0.06440  0.87890  1.0000 0.1179046222
H   H20       1.0  0.06440  0.87890  0.31560  1.0000 0.1179046222
H   H21       1.0  0.87890  0.31560  0.06440  1.0000 0.1179046222
H   H22       1.0  0.68440  0.12110  0.93560  1.0000 0.1179046222
H   H23       1.0  0.93560  0.68440  0.12110  1.0000 0.1179046222
H   H24       1.0  0.12110  0.93560  0.68440  1.0000 0.1179046222
H   H25       1.0  0.53180  0.08230  0.77200  1.0000 0.1179046222
H   H26       1.0  0.08230  0.77200  0.53180  1.0000 0.1179046222
H   H27       1.0  0.77200  0.53180  0.08230  1.0000 0.1179046222
H   H28       1.0  0.46820  0.22800  0.91770  1.0000 0.1179046222
H   H29       1.0  0.91770  0.46820  0.22800  1.0000 0.1179046222
H   H30       1.0  0.22800  0.91770  0.46820  1.0000 0.1179046222
H   H31       1.0  0.62810  0.08480  0.68040  1.0000 0.1179046222
H   H32       1.0  0.08480  0.68040  0.62810  1.0000 0.1179046222
H   H33       1.0  0.68040  0.62810  0.08480  1.0000 0.1179046222
H   H34       1.0  0.37190  0.31960  0.91520  1.0000 0.1179046222
H   H35       1.0  0.91520  0.37190  0.31960  1.0000 0.1179046222
H   H36       1.0  0.31960  0.91520  0.37190  1.0000 0.1179046222
C   C1        1.0  0.32650  0.95560  0.75750  1.0000 0.1688774862
C   C2        1.0  0.95560  0.75750  0.32650  1.0000 0.1688774862
C   C3        1.0  0.75750  0.32650  0.95560  1.0000 0.1688774862
C   C4        1.0  0.67350  0.24250  0.04440  1.0000 0.1688774862
C   C5        1.0  0.04440  0.67350  0.24250  1.0000 0.1688774862
C   C6        1.0  0.24250  0.04440  0.67350  1.0000 0.1688774862
C   C7        1.0  0.33800  0.86110  0.72380  1.0000 -0.1953084977
C   C8        1.0  0.86110  0.72380  0.33800  1.0000 -0.1953084977
C   C9        1.0  0.72380  0.33800  0.86110  1.0000 -0.1953084977
C   C10       1.0  0.66200  0.27620  0.13890  1.0000 -0.1953084977
C   C11       1.0  0.13890  0.66200  0.27620  1.0000 -0.1953084977
C   C12       1.0  0.27620  0.13890  0.66200  1.0000 -0.1953084977
C   C13       1.0  0.34630  0.81240  0.78910  1.0000 -0.068295172
C   C14       1.0  0.81240  0.78910  0.34630  1.0000 -0.068295172
C   C15       1.0  0.78910  0.34630  0.81240  1.0000 -0.068295172
C   C16       1.0  0.65370  0.21090  0.18760  1.0000 -0.068295172
C   C17       1.0  0.18760  0.65370  0.21090  1.0000 -0.068295172
C   C18       1.0  0.21090  0.18760  0.65370  1.0000 -0.068295172
C   C19       1.0  0.34310  0.85820  0.88810  1.0000 -0.0442404622
C   C20       1.0  0.85820  0.88810  0.34310  1.0000 -0.0442404622
C   C21       1.0  0.88810  0.34310  0.85820  1.0000 -0.0442404622
C   C22       1.0  0.65690  0.11190  0.14180  1.0000 -0.0442404622
C   C23       1.0  0.14180  0.65690  0.11190  1.0000 -0.0442404622
C   C24       1.0  0.11190  0.14180  0.65690  1.0000 -0.0442404622
C   C25       1.0  0.33160  0.95270  0.92180  1.0000 -0.0781835894
C   C26       1.0  0.95270  0.92180  0.33160  1.0000 -0.0781835894
C   C27       1.0  0.92180  0.33160  0.95270  1.0000 -0.0781835894
C   C28       1.0  0.66840  0.07820  0.04730  1.0000 -0.0781835894
C   C29       1.0  0.04730  0.66840  0.07820  1.0000 -0.0781835894
C   C30       1.0  0.07820  0.04730  0.66840  1.0000 -0.0781835894
C   C31       1.0  0.32340  0.00130  0.85650  1.0000 -0.2074969845
C   C32       1.0  0.00130  0.85650  0.32340  1.0000 -0.2074969845
C   C33       1.0  0.85650  0.32340  0.00130  1.0000 -0.2074969845
C   C34       1.0  0.67660  0.14350  0.99870  1.0000 -0.2074969845
C   C35       1.0  0.99870  0.67660  0.14350  1.0000 -0.2074969845
C   C36       1.0  0.14350  0.99870  0.67660  1.0000 -0.2074969845
C   C37       1.0  0.35450  0.81640  0.96680  1.0000 0.5793124426
C   C38       1.0  0.81640  0.96680  0.35450  1.0000 0.5793124426
C   C39       1.0  0.96680  0.35450  0.81640  1.0000 0.5793124426
C   C40       1.0  0.64550  0.03320  0.18360  1.0000 0.5793124426
C   C41       1.0  0.18360  0.64550  0.03320  1.0000 0.5793124426
C   C42       1.0  0.03320  0.18360  0.64550  1.0000 0.5793124426
C   C43       1.0  0.36930  0.00000  0.63070  1.0000 0.1688774862
C   C44       1.0  1.00000  0.63070  0.36930  1.0000 0.1688774862
C   C45       1.0  0.63070  0.36930  0.00000  1.0000 0.1688774862
C   C46       1.0  0.48770  0.04840  0.69040  1.0000 -0.191900175
C   C47       1.0  0.04840  0.69040  0.48770  1.0000 -0.191900175
C   C48       1.0  0.69040  0.48770  0.04840  1.0000 -0.191900175
C   C49       1.0  0.51230  0.30960  0.95160  1.0000 -0.191900175
C   C50       1.0  0.95160  0.51230  0.30960  1.0000 -0.191900175
C   C51       1.0  0.30960  0.95160  0.51230  1.0000 -0.191900175
C   C52       1.0  0.54640  0.04960  0.63440  1.0000 -0.0781835894
C   C53       1.0  0.04960  0.63440  0.54640  1.0000 -0.0781835894
C   C54       1.0  0.63440  0.54640  0.04960  1.0000 -0.0781835894
C   C55       1.0  0.45360  0.36560  0.95040  1.0000 -0.0781835894
C   C56       1.0  0.95040  0.45360  0.36560  1.0000 -0.0781835894
C   C57       1.0  0.36560  0.95040  0.45360  1.0000 -0.0781835894
C   C58       1.0  0.48780  1.00000  0.51220  1.0000 -0.0347231657
C   C59       1.0  0.00000  0.51220  0.48780  1.0000 -0.0347231657
C   C60       1.0  0.51220  0.48780  0.00000  1.0000 -0.0347231657
C   C61       1.0  0.55060  0.00000  0.44940  1.0000 0.6154783753
C   C62       1.0  0.00000  0.44940  0.55060  1.0000 0.6154783753
C   C63       1.0  0.44940  0.55060  0.00000  1.0000 0.6154783753
N   N1        1.0  0.31360  1.00000  0.68640  1.0000 -0.1450464936
N   N2        1.0  1.00000  0.68640  0.31360  1.0000 -0.1450464936
N   N3        1.0  0.68640  0.31360  0.00000  1.0000 -0.1450464936
O   O1        1.0  0.37620  0.87270  0.06700  1.0000 -0.5476263376
O   O2        1.0  0.87270  0.06700  0.37620  1.0000 -0.5476263376
O   O3        1.0  0.06700  0.37620  0.87270  1.0000 -0.5476263376
O   O4        1.0  0.62380  0.93300  0.12730  1.0000 -0.5476263376
O   O5        1.0  0.12730  0.62380  0.93300  1.0000 -0.5476263376
O   O6        1.0  0.93300  0.12730  0.62380  1.0000 -0.5476263376
O   O7        1.0  0.35060  0.71660  0.92500  1.0000 -0.720454237
O   O8        1.0  0.71660  0.92500  0.35060  1.0000 -0.720454237
O   O9        1.0  0.92500  0.35060  0.71660  1.0000 -0.720454237
O   O10       1.0  0.64940  0.07500  0.28340  1.0000 -0.720454237
O   O11       1.0  0.28340  0.64940  0.07500  1.0000 -0.720454237
O   O12       1.0  0.07500  0.28340  0.64940  1.0000 -0.720454237
O   O13       1.0  0.65730  0.08420  0.51350  1.0000 -0.6104272218
O   O14       1.0  0.08420  0.51350  0.65730  1.0000 -0.6104272218
O   O15       1.0  0.51350  0.65730  0.08420  1.0000 -0.6104272218
O   O16       1.0  0.34270  0.48650  0.91580  1.0000 -0.6104272218
O   O17       1.0  0.91580  0.34270  0.48650  1.0000 -0.6104272218
O   O18       1.0  0.48650  0.91580  0.34270  1.0000 -0.6104272218
