# DDEC6 charges by PACMAN v1.1 (https://github.com/mtap-research/PACMAN-charge/)
data_2015[Zn][dia]3[ASR]7
_chemical_formula_sum              "Zn4 H28 C32 N20 O8"
_cell_length_a       12.0099
_cell_length_b       12.0099
_cell_length_c       9.7103
_cell_angle_alpha    70.3218
_cell_angle_beta     109.678
_cell_angle_gamma    89.1094

_symmetry_space_group_name_H-M    "P 1"
_symmetry_Int_Tables_number       1

loop_
  _symmetry_equiv_pos_as_xyz
  'x, y, z'

loop_
  _atom_site_type_symbol
  _atom_site_label
  _atom_site_symmetry_multiplicity
  _atom_site_fract_x
  _atom_site_fract_y
  _atom_site_fract_z
  _atom_site_occupancy
  _atom_site_charge
Zn  Zn1       1.0  0.34105  0.87473  0.65579  1.0000 0.6812437424
Zn  Zn2       1.0  0.12527  0.65895  0.15579  1.0000 0.6812437424
Zn  Zn3       1.0  0.87473  0.34105  0.84421  1.0000 0.6812437424
Zn  Zn4       1.0  0.65895  0.12527  0.34421  1.0000 0.6812437424
H   H1        1.0  0.53470  0.66667  0.87860  1.0000 0.1116359323
H   H2        1.0  0.33333  0.46530  0.37860  1.0000 0.1116359323
H   H3        1.0  0.55000  0.00260  0.67270  1.0000 0.1116359323
H   H4        1.0  0.99740  0.45000  0.17270  1.0000 0.1116359323
H   H5        1.0  0.75470  0.97190  0.80180  1.0000 0.1428373125
H   H6        1.0  0.02810  0.24530  0.30180  1.0000 0.1428373125
H   H7        1.0  0.13330  0.96970  0.81510  1.0000 0.1724279174
H   H8        1.0  0.03030  0.86670  0.31510  1.0000 0.1724279174
H   H9        1.0  0.17820  0.91200  0.99860  1.0000 0.1596579426
H   H10       1.0  0.08800  0.82180  0.49860  1.0000 0.1596579426
H   H11       1.0  0.26890  0.95870  0.91560  1.0000 0.1596579426
H   H12       1.0  0.04130  0.73110  0.41560  1.0000 0.1596579426
H   H13       1.0  0.73860  0.62560  0.01010  1.0000 0.1428373125
H   H14       1.0  0.37440  0.26140  0.51010  1.0000 0.1428373125
H   H15       1.0  0.66667  0.53470  0.62140  1.0000 0.1116359323
H   H16       1.0  0.46530  0.33333  0.12140  1.0000 0.1116359323
H   H17       1.0  0.00260  0.55000  0.82730  1.0000 0.1116359323
H   H18       1.0  0.45000  0.99740  0.32730  1.0000 0.1116359323
H   H19       1.0  0.97190  0.75470  0.69820  1.0000 0.1428373125
H   H20       1.0  0.24530  0.02810  0.19820  1.0000 0.1428373125
H   H21       1.0  0.96970  0.13330  0.68490  1.0000 0.1724279174
H   H22       1.0  0.86670  0.03030  0.18490  1.0000 0.1724279174
H   H23       1.0  0.91200  0.17820  0.50140  1.0000 0.1596579426
H   H24       1.0  0.82180  0.08800  0.00140  1.0000 0.1596579426
H   H25       1.0  0.95870  0.26890  0.58440  1.0000 0.1596579426
H   H26       1.0  0.73110  0.04130  0.08440  1.0000 0.1596579426
H   H27       1.0  0.62560  0.73860  0.48990  1.0000 0.1428373125
H   H28       1.0  0.26140  0.37440  0.98990  1.0000 0.1428373125
C   C1        1.0  0.90290  0.77690  0.00280  1.0000 0.5341560789
C   C2        1.0  0.22310  0.09710  0.50280  1.0000 0.5341560789
C   C3        1.0  0.57970  0.72890  0.86300  1.0000 0.0881301933
C   C4        1.0  0.27110  0.42030  0.36300  1.0000 0.0881301933
C   C5        1.0  0.58830  0.92650  0.74220  1.0000 0.079783673
C   C6        1.0  0.07350  0.41170  0.24220  1.0000 0.079783673
C   C7        1.0  0.71150  0.90830  0.81900  1.0000 -0.1370795905
C   C8        1.0  0.09170  0.28850  0.31900  1.0000 -0.1370795905
C   C9        1.0  0.22030  0.80210  0.90060  1.0000 0.3658072599
C   C10       1.0  0.19790  0.77970  0.40060  1.0000 0.3658072599
C   C11       1.0  0.76930  0.79630  0.92010  1.0000 0.0344965481
C   C12       1.0  0.20370  0.23070  0.42010  1.0000 0.0344965481
C   C13       1.0  0.19830  0.92110  0.90810  1.0000 -0.5232622972
C   C14       1.0  0.07890  0.80170  0.40810  1.0000 -0.5232622972
C   C15       1.0  0.70230  0.70290  0.94320  1.0000 -0.1517924606
C   C16       1.0  0.29710  0.29770  0.44320  1.0000 -0.1517924606
C   C17       1.0  0.77690  0.90290  0.49720  1.0000 0.5341560789
C   C18       1.0  0.09710  0.22310  0.99720  1.0000 0.5341560789
C   C19       1.0  0.72890  0.57970  0.63700  1.0000 0.0881301933
C   C20       1.0  0.42030  0.27110  0.13700  1.0000 0.0881301933
C   C21       1.0  0.92650  0.58830  0.75780  1.0000 0.079783673
C   C22       1.0  0.41170  0.07350  0.25780  1.0000 0.079783673
C   C23       1.0  0.90830  0.71150  0.68100  1.0000 -0.1370795905
C   C24       1.0  0.28850  0.09170  0.18100  1.0000 -0.1370795905
C   C25       1.0  0.80210  0.22030  0.59940  1.0000 0.3658072599
C   C26       1.0  0.77970  0.19790  0.09940  1.0000 0.3658072599
C   C27       1.0  0.79630  0.76930  0.57990  1.0000 0.0344965481
C   C28       1.0  0.23070  0.20370  0.07990  1.0000 0.0344965481
C   C29       1.0  0.92110  0.19830  0.59190  1.0000 -0.5232622972
C   C30       1.0  0.80170  0.07890  0.09190  1.0000 -0.5232622972
C   C31       1.0  0.70290  0.70230  0.55680  1.0000 -0.1517924606
C   C32       1.0  0.29770  0.29710  0.05680  1.0000 -0.1517924606
N   N1        1.0  0.27010  0.77950  0.80960  1.0000 -0.2754012397
N   N2        1.0  0.22050  0.72990  0.30960  1.0000 -0.2754012397
N   N3        1.0  0.52300  0.83660  0.76580  1.0000 -0.2187984414
N   N4        1.0  0.16340  0.47700  0.26580  1.0000 -0.2187984414
N   N5        1.0  0.19310  0.70050  0.98550  1.0000 -0.2692112676
N   N6        1.0  0.29950  0.80690  0.48550  1.0000 -0.2692112676
N   N7        1.0  0.27410  0.66030  0.83830  1.0000 -0.095823919
N   N8        1.0  0.33970  0.72590  0.33830  1.0000 -0.095823919
N   N9        1.0  0.22760  0.61360  0.94380  1.0000 -0.0907131969
N   N10       1.0  0.38640  0.77240  0.44380  1.0000 -0.0907131969
N   N11       1.0  0.77950  0.27010  0.69040  1.0000 -0.2754012397
N   N12       1.0  0.72990  0.22050  0.19040  1.0000 -0.2754012397
N   N13       1.0  0.83660  0.52300  0.73420  1.0000 -0.2187984414
N   N14       1.0  0.47700  0.16340  0.23420  1.0000 -0.2187984414
N   N15       1.0  0.70050  0.19310  0.51450  1.0000 -0.2692112676
N   N16       1.0  0.80690  0.29950  0.01450  1.0000 -0.2692112676
N   N17       1.0  0.66030  0.27410  0.66170  1.0000 -0.095823919
N   N18       1.0  0.72590  0.33970  0.16170  1.0000 -0.095823919
N   N19       1.0  0.61360  0.22760  0.55620  1.0000 -0.0907131969
N   N20       1.0  0.77240  0.38640  0.05620  1.0000 -0.0907131969
O   O1        1.0  0.95130  0.67050  0.09360  1.0000 -0.5353395096
O   O2        1.0  0.32950  0.04870  0.59360  1.0000 -0.5353395096
O   O3        1.0  0.95830  0.86170  0.97740  1.0000 -0.4871473214
O   O4        1.0  0.13830  0.04170  0.47740  1.0000 -0.4871473214
O   O5        1.0  0.67050  0.95130  0.40640  1.0000 -0.534816598
O   O6        1.0  0.04870  0.32950  0.90640  1.0000 -0.534816598
O   O7        1.0  0.86170  0.95830  0.52260  1.0000 -0.4871473214
O   O8        1.0  0.04170  0.13830  0.02260  1.0000 -0.4871473214
