# DDEC6 charges by PACMAN v1.1 (https://github.com/mtap-research/PACMAN-charge/)
data_2015[Zn][nan]3[ASR]12
_chemical_formula_sum              "Zn4 H44 C48 N12 O8"
_cell_length_a       20.2236
_cell_length_b       20.2236
_cell_length_c       9.842
_cell_angle_alpha    78.4606
_cell_angle_beta     101.539
_cell_angle_gamma    153.321

_symmetry_space_group_name_H-M    "P 1"
_symmetry_Int_Tables_number       1

loop_
  _symmetry_equiv_pos_as_xyz
  'x, y, z'

loop_
  _atom_site_type_symbol
  _atom_site_label
  _atom_site_symmetry_multiplicity
  _atom_site_fract_x
  _atom_site_fract_y
  _atom_site_fract_z
  _atom_site_occupancy
  _atom_site_charge
Zn  Zn1       1.0  0.47492  0.90330  0.91439  1.0000 0.7194068516
Zn  Zn2       1.0  0.90330  0.47492  0.58561  1.0000 0.7194068516
Zn  Zn3       1.0  0.52508  0.09670  0.08561  1.0000 0.7194068516
Zn  Zn4       1.0  0.09670  0.52508  0.41439  1.0000 0.7194068516
H   H1        1.0  0.60280  0.82020  0.85830  1.0000 0.1264699558
H   H2        1.0  0.82020  0.60280  0.64170  1.0000 0.1264699558
H   H3        1.0  0.39720  0.17980  0.14170  1.0000 0.1264699558
H   H4        1.0  0.17980  0.39720  0.35830  1.0000 0.1264699558
H   H5        1.0  0.92370  0.14550  0.10850  1.0000 0.1204421438
H   H6        1.0  0.14550  0.92370  0.39150  1.0000 0.1204421438
H   H7        1.0  0.07630  0.85450  0.89150  1.0000 0.1204421438
H   H8        1.0  0.85450  0.07630  0.60850  1.0000 0.1204421438
H   H9        1.0  0.02840  0.13420  0.10620  1.0000 0.1108078146
H   H10       1.0  0.13420  0.02840  0.39380  1.0000 0.1108078146
H   H11       1.0  0.97160  0.86580  0.89380  1.0000 0.1204421438
H   H12       1.0  0.86580  0.97160  0.60620  1.0000 0.1108078146
H   H13       1.0  0.71840  0.82460  0.84550  1.0000 0.1204421438
H   H14       1.0  0.82460  0.71840  0.65450  1.0000 0.1204421438
H   H15       1.0  0.28160  0.17540  0.15450  1.0000 0.1204421438
H   H16       1.0  0.17540  0.28160  0.34550  1.0000 0.1204421438
H   H17       1.0  0.88820  0.88900  0.91860  1.0000 0.1204421438
H   H18       1.0  0.88900  0.88820  0.58140  1.0000 0.1204421438
H   H19       1.0  0.11180  0.11100  0.08140  1.0000 0.1204421438
H   H20       1.0  0.11100  0.11180  0.41860  1.0000 0.1204421438
H   H21       1.0  0.82860  0.46260  0.91670  1.0000 0.160424971
H   H22       1.0  0.46260  0.82860  0.58330  1.0000 0.160424971
H   H23       1.0  0.17140  0.53740  0.08330  1.0000 0.160424971
H   H24       1.0  0.53740  0.17140  0.41670  1.0000 0.160424971
H   H25       1.0  0.74680  0.42460  0.77690  1.0000 0.1535412604
H   H26       1.0  0.42460  0.74680  0.72310  1.0000 0.1535412604
H   H27       1.0  0.25320  0.57540  0.22310  1.0000 0.1535412604
H   H28       1.0  0.57540  0.25320  0.27690  1.0000 0.1535412604
H   H29       1.0  0.66030  0.33010  0.91350  1.0000 0.160424971
H   H30       1.0  0.33010  0.66030  0.58650  1.0000 0.160424971
H   H31       1.0  0.33970  0.66990  0.08650  1.0000 0.160424971
H   H32       1.0  0.66990  0.33970  0.41350  1.0000 0.160424971
H   H33       1.0  0.65780  0.12680  0.56270  1.0000 0.1535412604
H   H34       1.0  0.12680  0.65780  0.93730  1.0000 0.1535412604
H   H35       1.0  0.34220  0.87320  0.43730  1.0000 0.1535412604
H   H36       1.0  0.87320  0.34220  0.06270  1.0000 0.1535412604
H   H37       1.0  0.80760  0.23620  0.64260  1.0000 0.160424971
H   H38       1.0  0.23620  0.80760  0.85740  1.0000 0.160424971
H   H39       1.0  0.19240  0.76380  0.35740  1.0000 0.160424971
H   H40       1.0  0.76380  0.19240  0.14260  1.0000 0.160424971
H   H41       1.0  0.66000  0.06940  0.69240  1.0000 0.1535412604
H   H42       1.0  0.06940  0.66000  0.80760  1.0000 0.1535412604
H   H43       1.0  0.34000  0.93060  0.30760  1.0000 0.1535412604
H   H44       1.0  0.93060  0.34000  0.19240  1.0000 0.1535412604
C   C1        1.0  0.67690  0.98170  0.98980  1.0000 0.5227031196
C   C2        1.0  0.98170  0.67690  0.51020  1.0000 0.5227031196
C   C3        1.0  0.32310  0.01830  0.01020  1.0000 0.5227031196
C   C4        1.0  0.01830  0.32310  0.48980  1.0000 0.5227031196
C   C5        1.0  0.74907  0.98013  0.98600  1.0000 -0.0133738946
C   C6        1.0  0.98013  0.74907  0.51400  1.0000 -0.0133738946
C   C7        1.0  0.25093  0.01987  0.01400  1.0000 -0.0133738946
C   C8        1.0  0.01987  0.25093  0.48600  1.0000 -0.0133738946
C   C9        1.0  0.69081  0.88699  0.90950  1.0000 -0.0971355569
C   C10       1.0  0.88699  0.69081  0.59050  1.0000 -0.0971355569
C   C11       1.0  0.30919  0.11301  0.09050  1.0000 -0.0971355569
C   C12       1.0  0.11301  0.30919  0.40950  1.0000 -0.0971355569
C   C13       1.0  0.87700  0.07520  0.05710  1.0000 -0.0971355569
C   C14       1.0  0.07520  0.87700  0.44290  1.0000 -0.0971355569
C   C15       1.0  0.12300  0.92480  0.94290  1.0000 -0.0971355569
C   C16       1.0  0.92480  0.12300  0.55710  1.0000 -0.0971355569
C   C17       1.0  0.94120  0.06920  0.05430  1.0000 -0.1803034311
C   C18       1.0  0.06920  0.94120  0.44570  1.0000 -0.1803034311
C   C19       1.0  0.05880  0.93080  0.94570  1.0000 -0.1803034311
C   C20       1.0  0.93080  0.05880  0.55430  1.0000 -0.1803034311
C   C21       1.0  0.75980  0.88780  0.90480  1.0000 -0.1706876522
C   C22       1.0  0.88780  0.75980  0.59520  1.0000 -0.1706876522
C   C23       1.0  0.24020  0.11220  0.09520  1.0000 -0.1706876522
C   C24       1.0  0.11220  0.24020  0.40480  1.0000 -0.1706876522
C   C25       1.0  0.87991  0.97249  0.97890  1.0000 0.1108078146
C   C26       1.0  0.97249  0.87991  0.52110  1.0000 0.1108078146
C   C27       1.0  0.12009  0.02751  0.02110  1.0000 0.1108078146
C   C28       1.0  0.02751  0.12009  0.47890  1.0000 0.1108078146
C   C29       1.0  0.94315  0.96285  0.97260  1.0000 -0.1151902964
C   C30       1.0  0.96285  0.94315  0.52740  1.0000 -0.1151902964
C   C31       1.0  0.05685  0.03715  0.02740  1.0000 -0.1151902964
C   C32       1.0  0.03715  0.05685  0.47260  1.0000 -0.114516071
C   C33       1.0  0.69975  0.28345  0.83200  1.0000 0.3961014384
C   C34       1.0  0.28345  0.69975  0.66800  1.0000 0.3961014384
C   C35       1.0  0.30025  0.71655  0.16800  1.0000 0.3961014384
C   C36       1.0  0.71655  0.30025  0.33200  1.0000 0.3961014384
C   C37       1.0  0.73716  0.38404  0.86250  1.0000 -0.5457358574
C   C38       1.0  0.38404  0.73716  0.63750  1.0000 -0.5457358574
C   C39       1.0  0.26284  0.61596  0.13750  1.0000 -0.5457358574
C   C40       1.0  0.61596  0.26284  0.36250  1.0000 -0.5457358574
C   C41       1.0  0.68558  0.18342  0.74400  1.0000 0.3961014384
C   C42       1.0  0.18342  0.68558  0.75600  1.0000 0.3961014384
C   C43       1.0  0.31442  0.81658  0.25600  1.0000 0.3961014384
C   C44       1.0  0.81658  0.31442  0.24400  1.0000 0.3961014384
C   C45       1.0  0.70439  0.15101  0.65230  1.0000 -0.5644048667
C   C46       1.0  0.15101  0.70439  0.84770  1.0000 -0.5644048667
C   C47       1.0  0.29561  0.84899  0.34770  1.0000 -0.5644048667
C   C48       1.0  0.84899  0.29561  0.15230  1.0000 -0.5644048667
N   N1        1.0  0.59928  0.09592  0.84860  1.0000 -0.2707729554
N   N2        1.0  0.09592  0.59928  0.65140  1.0000 -0.2707729554
N   N3        1.0  0.40072  0.90408  0.15140  1.0000 -0.2707729554
N   N4        1.0  0.90408  0.40072  0.34860  1.0000 -0.2707729554
N   N5        1.0  0.60853  0.16047  0.90620  1.0000 -0.2707729554
N   N6        1.0  0.16047  0.60853  0.59380  1.0000 -0.2707729554
N   N7        1.0  0.39147  0.83953  0.09380  1.0000 -0.2707729554
N   N8        1.0  0.83953  0.39147  0.40620  1.0000 -0.2707729554
N   N9        1.0  0.75119  0.30261  0.72840  1.0000 -0.4332765779
N   N10       1.0  0.30261  0.75119  0.77160  1.0000 -0.4332765779
N   N11       1.0  0.24881  0.69739  0.27160  1.0000 -0.4332765779
N   N12       1.0  0.69739  0.24881  0.22840  1.0000 -0.4332765779
O   O1        1.0  0.56300  0.89500  0.91770  1.0000 -0.486943013
O   O2        1.0  0.89500  0.56300  0.58230  1.0000 -0.486943013
O   O3        1.0  0.43700  0.10500  0.08230  1.0000 -0.486943013
O   O4        1.0  0.10500  0.43700  0.41770  1.0000 -0.486943013
O   O5        1.0  0.73374  0.07106  0.04920  1.0000 -0.4424680835
O   O6        1.0  0.07106  0.73374  0.45080  1.0000 -0.4424680835
O   O7        1.0  0.26626  0.92894  0.95080  1.0000 -0.4424680835
O   O8        1.0  0.92894  0.26626  0.54920  1.0000 -0.4424680835
