# DDEC6 charges by PACMAN v1.1 (https://github.com/mtap-research/PACMAN-charge/)
data_2015[Zn][tfw]3[ASR]1
_chemical_formula_sum              "Zn8 H56 C80 N24 O16"
_cell_length_a       38.03
_cell_length_b       9.647
_cell_length_c       9.871
_cell_angle_alpha    90
_cell_angle_beta     97.49
_cell_angle_gamma    90

_symmetry_space_group_name_H-M    "P 1"
_symmetry_Int_Tables_number       1

loop_
  _symmetry_equiv_pos_as_xyz
  'x, y, z'

loop_
  _atom_site_type_symbol
  _atom_site_label
  _atom_site_symmetry_multiplicity
  _atom_site_fract_x
  _atom_site_fract_y
  _atom_site_fract_z
  _atom_site_occupancy
  _atom_site_charge
Zn  Zn1       1.0  0.28412  0.17313  0.40121  1.0000 0.6752654488
Zn  Zn2       1.0  0.71588  0.82687  0.59879  1.0000 0.6752654488
Zn  Zn3       1.0  0.71588  0.17313  0.09879  1.0000 0.6752654488
Zn  Zn4       1.0  0.28412  0.82687  0.90121  1.0000 0.6752654488
Zn  Zn5       1.0  0.78412  0.67313  0.40121  1.0000 0.6752654488
Zn  Zn6       1.0  0.21588  0.32687  0.59879  1.0000 0.6752654488
Zn  Zn7       1.0  0.21588  0.67313  0.09879  1.0000 0.6752654488
Zn  Zn8       1.0  0.78412  0.32687  0.90121  1.0000 0.6752654488
H   H1        1.0  0.39836  0.03158  0.53934  1.0000 0.1095770629
H   H2        1.0  0.60164  0.96842  0.46066  1.0000 0.1095770629
H   H3        1.0  0.60164  0.03158  0.96066  1.0000 0.1095770629
H   H4        1.0  0.39836  0.96842  0.03934  1.0000 0.1095770629
H   H5        1.0  0.89836  0.53158  0.53934  1.0000 0.1095770629
H   H6        1.0  0.10164  0.46842  0.46066  1.0000 0.1095770629
H   H7        1.0  0.10164  0.53158  0.96066  1.0000 0.1095770629
H   H8        1.0  0.89836  0.46842  0.03934  1.0000 0.1095770629
H   H9        1.0  0.46378  0.03839  0.51797  1.0000 0.0925548754
H   H10       1.0  0.53622  0.96161  0.48203  1.0000 0.0925548754
H   H11       1.0  0.53622  0.03839  0.98203  1.0000 0.0925548754
H   H12       1.0  0.46378  0.96161  0.01797  1.0000 0.0925548754
H   H13       1.0  0.96378  0.53839  0.51797  1.0000 0.0925548754
H   H14       1.0  0.03622  0.46161  0.48203  1.0000 0.0925548754
H   H15       1.0  0.03622  0.53839  0.98203  1.0000 0.0925548754
H   H16       1.0  0.96378  0.46161  0.01797  1.0000 0.0925548754
H   H17       1.0  0.44063  0.26247  0.13584  1.0000 0.1046640749
H   H18       1.0  0.55937  0.73753  0.86416  1.0000 0.1046640749
H   H19       1.0  0.55937  0.26247  0.36416  1.0000 0.1046640749
H   H20       1.0  0.44063  0.73753  0.63584  1.0000 0.1046640749
H   H21       1.0  0.94063  0.76247  0.13584  1.0000 0.1046640749
H   H22       1.0  0.05937  0.23753  0.86416  1.0000 0.1046640749
H   H23       1.0  0.05937  0.76247  0.36416  1.0000 0.1046640749
H   H24       1.0  0.94063  0.23753  0.63584  1.0000 0.1046640749
H   H25       1.0  0.37532  0.26082  0.16441  1.0000 0.1095770629
H   H26       1.0  0.62468  0.73918  0.83559  1.0000 0.1095770629
H   H27       1.0  0.62468  0.26082  0.33559  1.0000 0.1095770629
H   H28       1.0  0.37532  0.73918  0.66441  1.0000 0.1095770629
H   H29       1.0  0.87532  0.76082  0.16441  1.0000 0.1095770629
H   H30       1.0  0.12468  0.23918  0.83559  1.0000 0.1095770629
H   H31       1.0  0.12468  0.76082  0.33559  1.0000 0.1095770629
H   H32       1.0  0.87532  0.23918  0.66441  1.0000 0.1095770629
H   H33       1.0  0.51185  0.14490  0.40665  1.0000 0.0925548754
H   H34       1.0  0.48815  0.85510  0.59335  1.0000 0.0925548754
H   H35       1.0  0.48815  0.14490  0.09335  1.0000 0.0925548754
H   H36       1.0  0.51185  0.85510  0.90665  1.0000 0.0925548754
H   H37       1.0  0.01185  0.64490  0.40665  1.0000 0.0925548754
H   H38       1.0  0.98815  0.35510  0.59335  1.0000 0.0925548754
H   H39       1.0  0.98815  0.64490  0.09335  1.0000 0.0925548754
H   H40       1.0  0.01185  0.35510  0.90665  1.0000 0.0925548754
H   H41       1.0  0.22497  0.08939  0.83220  1.0000 0.1201468219
H   H42       1.0  0.77503  0.91061  0.16780  1.0000 0.1201468219
H   H43       1.0  0.77503  0.08939  0.66780  1.0000 0.1201468219
H   H44       1.0  0.22497  0.91061  0.33220  1.0000 0.1201468219
H   H45       1.0  0.72497  0.58939  0.83220  1.0000 0.1201468219
H   H46       1.0  0.27503  0.41061  0.16780  1.0000 0.1201468219
H   H47       1.0  0.27503  0.58939  0.66780  1.0000 0.1201468219
H   H48       1.0  0.72497  0.41061  0.33220  1.0000 0.1201468219
H   H49       1.0  0.30433  0.92832  0.61306  1.0000 0.1201468219
H   H50       1.0  0.69567  0.07168  0.38694  1.0000 0.1201468219
H   H51       1.0  0.69567  0.92832  0.88694  1.0000 0.1201468219
H   H52       1.0  0.30433  0.07168  0.11306  1.0000 0.1201468219
H   H53       1.0  0.80433  0.42832  0.61306  1.0000 0.1201468219
H   H54       1.0  0.19567  0.57168  0.38694  1.0000 0.1201468219
H   H55       1.0  0.19567  0.42832  0.88694  1.0000 0.1201468219
H   H56       1.0  0.80433  0.57168  0.11306  1.0000 0.1201468219
C   C1        1.0  0.34693  0.16197  0.37835  1.0000 0.5470079432
C   C2        1.0  0.65307  0.83803  0.62165  1.0000 0.5470079432
C   C3        1.0  0.65307  0.16197  0.12165  1.0000 0.5470079432
C   C4        1.0  0.34693  0.83803  0.87835  1.0000 0.5470079432
C   C5        1.0  0.84693  0.66197  0.37835  1.0000 0.5470079432
C   C6        1.0  0.15307  0.33803  0.62165  1.0000 0.5470079432
C   C7        1.0  0.15307  0.66197  0.12165  1.0000 0.5470079432
C   C8        1.0  0.84693  0.33803  0.87835  1.0000 0.5470079432
C   C9        1.0  0.38429  0.15027  0.35551  1.0000 -0.0382710782
C   C10       1.0  0.61571  0.84973  0.64449  1.0000 -0.0382710782
C   C11       1.0  0.61571  0.15027  0.14449  1.0000 -0.0382710782
C   C12       1.0  0.38429  0.84973  0.85551  1.0000 -0.0382710782
C   C13       1.0  0.88429  0.65027  0.35551  1.0000 -0.0382710782
C   C14       1.0  0.11571  0.34973  0.64449  1.0000 -0.0382710782
C   C15       1.0  0.11571  0.65027  0.14449  1.0000 -0.0382710782
C   C16       1.0  0.88429  0.34973  0.85551  1.0000 -0.0382710782
C   C17       1.0  0.40846  0.08318  0.45312  1.0000 -0.082794796
C   C18       1.0  0.59154  0.91682  0.54688  1.0000 -0.082794796
C   C19       1.0  0.59154  0.08318  0.04688  1.0000 -0.082794796
C   C20       1.0  0.40846  0.91682  0.95312  1.0000 -0.082794796
C   C21       1.0  0.90846  0.58318  0.45312  1.0000 -0.082794796
C   C22       1.0  0.09154  0.41682  0.54688  1.0000 -0.082794796
C   C23       1.0  0.09154  0.58318  0.04688  1.0000 -0.082794796
C   C24       1.0  0.90846  0.41682  0.95312  1.0000 -0.082794796
C   C25       1.0  0.44432  0.08597  0.43926  1.0000 -0.1288073386
C   C26       1.0  0.55568  0.91403  0.56074  1.0000 -0.1288073386
C   C27       1.0  0.55568  0.08597  0.06074  1.0000 -0.1288073386
C   C28       1.0  0.44432  0.91403  0.93926  1.0000 -0.1288073386
C   C29       1.0  0.94432  0.58597  0.43926  1.0000 -0.1288073386
C   C30       1.0  0.05568  0.41403  0.56074  1.0000 -0.1288073386
C   C31       1.0  0.05568  0.58597  0.06074  1.0000 -0.1288073386
C   C32       1.0  0.94432  0.41403  0.93926  1.0000 -0.1288073386
C   C33       1.0  0.45610  0.14899  0.32457  1.0000 0.1095770629
C   C34       1.0  0.54390  0.85101  0.67543  1.0000 0.1095770629
C   C35       1.0  0.54390  0.14899  0.17543  1.0000 0.1095770629
C   C36       1.0  0.45610  0.85101  0.82457  1.0000 0.1095770629
C   C37       1.0  0.95610  0.64899  0.32457  1.0000 0.1095770629
C   C38       1.0  0.04390  0.35101  0.67543  1.0000 0.1095770629
C   C39       1.0  0.04390  0.64899  0.17543  1.0000 0.1095770629
C   C40       1.0  0.95610  0.35101  0.82457  1.0000 0.1095770629
C   C41       1.0  0.43121  0.21077  0.22345  1.0000 -0.1288073386
C   C42       1.0  0.56879  0.78923  0.77655  1.0000 -0.1288073386
C   C43       1.0  0.56879  0.21077  0.27655  1.0000 -0.1288073386
C   C44       1.0  0.43121  0.78923  0.72345  1.0000 -0.1288073386
C   C45       1.0  0.93121  0.71077  0.22345  1.0000 -0.1288073386
C   C46       1.0  0.06879  0.28923  0.77655  1.0000 -0.1288073386
C   C47       1.0  0.06879  0.71077  0.27655  1.0000 -0.1288073386
C   C48       1.0  0.93121  0.28923  0.72345  1.0000 -0.1288073386
C   C49       1.0  0.39539  0.21187  0.23909  1.0000 -0.0871868406
C   C50       1.0  0.60461  0.78813  0.76091  1.0000 -0.0871868406
C   C51       1.0  0.60461  0.21187  0.26091  1.0000 -0.0871868406
C   C52       1.0  0.39539  0.78813  0.73909  1.0000 -0.0871868406
C   C53       1.0  0.89539  0.71187  0.23909  1.0000 -0.0871868406
C   C54       1.0  0.10461  0.28813  0.76091  1.0000 -0.0871868406
C   C55       1.0  0.10461  0.71187  0.26091  1.0000 -0.0871868406
C   C56       1.0  0.89539  0.28813  0.73909  1.0000 -0.0871868406
C   C57       1.0  0.49360  0.14842  0.31055  1.0000 -0.1288073386
C   C58       1.0  0.50640  0.85158  0.68945  1.0000 -0.1288073386
C   C59       1.0  0.50640  0.14842  0.18945  1.0000 -0.1288073386
C   C60       1.0  0.49360  0.85158  0.81055  1.0000 -0.1288073386
C   C61       1.0  0.99360  0.64842  0.31055  1.0000 -0.1288073386
C   C62       1.0  0.00640  0.35158  0.68945  1.0000 -0.1288073386
C   C63       1.0  0.00640  0.64842  0.18945  1.0000 -0.1288073386
C   C64       1.0  0.99360  0.35158  0.81055  1.0000 -0.1288073386
C   C65       1.0  0.24252  0.07155  0.75498  1.0000 0.159679758
C   C66       1.0  0.75748  0.92845  0.24502  1.0000 0.159679758
C   C67       1.0  0.75748  0.07155  0.74502  1.0000 0.159679758
C   C68       1.0  0.24252  0.92845  0.25498  1.0000 0.159679758
C   C69       1.0  0.74252  0.57155  0.75498  1.0000 0.159679758
C   C70       1.0  0.25748  0.42845  0.24502  1.0000 0.159679758
C   C71       1.0  0.25748  0.57155  0.74502  1.0000 0.159679758
C   C72       1.0  0.74252  0.42845  0.25498  1.0000 0.159679758
C   C73       1.0  0.28261  0.99007  0.64343  1.0000 0.159679758
C   C74       1.0  0.71739  0.00993  0.35657  1.0000 0.159679758
C   C75       1.0  0.71739  0.99007  0.85657  1.0000 0.159679758
C   C76       1.0  0.28261  0.00993  0.14343  1.0000 0.159679758
C   C77       1.0  0.78261  0.49007  0.64343  1.0000 0.159679758
C   C78       1.0  0.21739  0.50993  0.35657  1.0000 0.159679758
C   C79       1.0  0.21739  0.49007  0.85657  1.0000 0.159679758
C   C80       1.0  0.78261  0.50993  0.14343  1.0000 0.159679758
N   N1        1.0  0.26703  0.96857  0.75840  1.0000 -0.3261428152
N   N2        1.0  0.73297  0.03143  0.24160  1.0000 -0.3261428152
N   N3        1.0  0.73297  0.96857  0.74160  1.0000 -0.3261428152
N   N4        1.0  0.26703  0.03143  0.25840  1.0000 -0.3261428152
N   N5        1.0  0.76703  0.46857  0.75840  1.0000 -0.3261428152
N   N6        1.0  0.23297  0.53143  0.24160  1.0000 -0.3261428152
N   N7        1.0  0.23297  0.46857  0.74160  1.0000 -0.3261428152
N   N8        1.0  0.76703  0.53143  0.25840  1.0000 -0.3261428152
N   N9        1.0  0.24246  0.15136  0.64399  1.0000 -0.1979912569
N   N10       1.0  0.75754  0.84864  0.35601  1.0000 -0.1979912569
N   N11       1.0  0.75754  0.15136  0.85601  1.0000 -0.1979912569
N   N12       1.0  0.24246  0.84864  0.14399  1.0000 -0.1979912569
N   N13       1.0  0.74246  0.65136  0.64399  1.0000 -0.1979912569
N   N14       1.0  0.25754  0.34864  0.35601  1.0000 -0.1979912569
N   N15       1.0  0.25754  0.65136  0.85601  1.0000 -0.1979912569
N   N16       1.0  0.74246  0.34864  0.14399  1.0000 -0.1979912569
N   N17       1.0  0.26848  0.09915  0.57271  1.0000 -0.1930058015
N   N18       1.0  0.73152  0.90085  0.42729  1.0000 -0.1930058015
N   N19       1.0  0.73152  0.09915  0.92729  1.0000 -0.1930058015
N   N20       1.0  0.26848  0.90085  0.07271  1.0000 -0.1930058015
N   N21       1.0  0.76848  0.59915  0.57271  1.0000 -0.1930058015
N   N22       1.0  0.23152  0.40085  0.42729  1.0000 -0.1930058015
N   N23       1.0  0.23152  0.59915  0.92729  1.0000 -0.1930058015
N   N24       1.0  0.76848  0.40085  0.07271  1.0000 -0.1930058015
O   O1        1.0  0.32632  0.24277  0.29964  1.0000 -0.5559567784
O   O2        1.0  0.67368  0.75723  0.70036  1.0000 -0.5559567784
O   O3        1.0  0.67368  0.24277  0.20036  1.0000 -0.5559567784
O   O4        1.0  0.32632  0.75723  0.79964  1.0000 -0.5559567784
O   O5        1.0  0.82632  0.74277  0.29964  1.0000 -0.5559567784
O   O6        1.0  0.17368  0.25723  0.70036  1.0000 -0.5559567784
O   O7        1.0  0.17368  0.74277  0.20036  1.0000 -0.5559567784
O   O8        1.0  0.82632  0.25723  0.79964  1.0000 -0.5559567784
O   O9        1.0  0.33518  0.09379  0.47494  1.0000 -0.5326601838
O   O10       1.0  0.66482  0.90621  0.52506  1.0000 -0.5326601838
O   O11       1.0  0.66482  0.09379  0.02506  1.0000 -0.5326601838
O   O12       1.0  0.33518  0.90621  0.97494  1.0000 -0.5326601838
O   O13       1.0  0.83518  0.59379  0.47494  1.0000 -0.5326601838
O   O14       1.0  0.16482  0.40621  0.52506  1.0000 -0.5326601838
O   O15       1.0  0.16482  0.59379  0.02506  1.0000 -0.5326601838
O   O16       1.0  0.83518  0.40621  0.97494  1.0000 -0.5326601838
