# DDEC6 charges by PACMAN v1.1 (https://github.com/mtap-research/PACMAN-charge/)
data_2015[Cu][nan]3[ASR]2
_chemical_formula_sum              "Cu6 H60 C76 N8 O28"
_cell_length_a       12.1272
_cell_length_b       12.1272
_cell_length_c       19.5025
_cell_angle_alpha    83.7215
_cell_angle_beta     96.2785
_cell_angle_gamma    118.026

_symmetry_space_group_name_H-M    "P 1"
_symmetry_Int_Tables_number       1

loop_
  _symmetry_equiv_pos_as_xyz
  'x, y, z'

loop_
  _atom_site_type_symbol
  _atom_site_label
  _atom_site_symmetry_multiplicity
  _atom_site_fract_x
  _atom_site_fract_y
  _atom_site_fract_z
  _atom_site_occupancy
  _atom_site_charge
Cu  Cu1       1.0  0.46019  0.06575  0.81207  1.0000 0.8142319419
Cu  Cu2       1.0  0.06575  0.46019  0.18793  1.0000 0.8142319419
Cu  Cu3       1.0  0.23695  0.01833  0.85003  1.0000 0.7550858058
Cu  Cu4       1.0  0.01833  0.23695  0.14997  1.0000 0.7550858058
Cu  Cu5       1.0  0.64443  0.68435  0.56293  1.0000 0.7650287546
Cu  Cu6       1.0  0.68435  0.64443  0.43707  1.0000 0.7650287546
H   H1        1.0  0.35600  0.87260  0.62370  1.0000 0.1211242604
H   H2        1.0  0.87260  0.35600  0.37630  1.0000 0.1211242604
H   H3        1.0  0.24590  0.38190  0.97330  1.0000 0.1211242604
H   H4        1.0  0.38190  0.24590  0.02670  1.0000 0.1211242604
H   H5        1.0  0.49880  0.44460  0.75790  1.0000 0.1009049345
H   H6        1.0  0.44460  0.49880  0.24210  1.0000 0.1009049345
H   H7        1.0  0.05520  0.69040  0.49770  1.0000 0.1211242604
H   H8        1.0  0.69040  0.05520  0.50230  1.0000 0.1211242604
H   H9        1.0  0.02460  0.84760  0.66010  1.0000 0.1357234963
H   H10       1.0  0.84760  0.02460  0.33990  1.0000 0.1357234963
H   H11       1.0  0.38180  0.67780  0.83760  1.0000 0.1108427826
H   H12       1.0  0.67780  0.38180  0.16240  1.0000 0.1108427826
H   H13       1.0  0.18570  0.67430  0.99170  1.0000 0.1317424126
H   H14       1.0  0.67430  0.18570  0.00830  1.0000 0.1317424126
H   H15       1.0  0.32490  0.66630  0.39650  1.0000 0.1211242604
H   H16       1.0  0.66630  0.32490  0.60350  1.0000 0.1211242604
H   H17       1.0  0.52780  0.82240  0.62090  1.0000 0.1108427826
H   H18       1.0  0.82240  0.52780  0.37910  1.0000 0.1108427826
H   H19       1.0  0.23580  0.52160  0.76150  1.0000 0.1009049345
H   H20       1.0  0.52160  0.23580  0.23850  1.0000 0.1009049345
H   H21       1.0  0.16240  0.37400  0.76130  1.0000 0.1108427826
H   H22       1.0  0.37400  0.16240  0.23870  1.0000 0.1108427826
H   H23       1.0  0.13320  0.51400  0.55990  1.0000 0.1009049345
H   H24       1.0  0.51400  0.13320  0.44010  1.0000 0.1009049345
H   H25       1.0  0.06140  0.51660  0.48750  1.0000 0.1108427826
H   H26       1.0  0.51660  0.06140  0.51250  1.0000 0.1108427826
H   H27       1.0  0.59680  0.83160  0.82600  1.0000 0.1211242604
H   H28       1.0  0.83160  0.59680  0.17400  1.0000 0.1211242604
H   H29       1.0  0.70530  0.64790  0.71540  1.0000 0.1108427826
H   H30       1.0  0.64790  0.70530  0.28460  1.0000 0.1108427826
H   H31       1.0  0.29830  0.30470  0.66870  1.0000 0.1211242604
H   H32       1.0  0.30470  0.29830  0.33130  1.0000 0.1211242604
H   H33       1.0  0.41560  0.43280  0.65010  1.0000 0.1211242604
H   H34       1.0  0.43280  0.41560  0.34990  1.0000 0.1211242604
H   H35       1.0  0.16540  0.47620  0.38290  1.0000 0.1211242604
H   H36       1.0  0.47620  0.16540  0.61710  1.0000 0.1211242604
H   H37       1.0  0.26990  0.43510  0.40770  1.0000 0.1108427826
H   H38       1.0  0.43510  0.26990  0.59230  1.0000 0.1108427826
H   H39       1.0  0.51300  0.89040  0.72490  1.0000 0.1317424126
H   H40       1.0  0.89040  0.51300  0.27510  1.0000 0.1317424126
H   H41       1.0  0.15140  0.18340  0.90040  1.0000 0.1009049345
H   H42       1.0  0.18340  0.15140  0.09960  1.0000 0.1009049345
H   H43       1.0  0.21370  0.39750  0.52280  1.0000 0.1108427826
H   H44       1.0  0.39750  0.21370  0.47720  1.0000 0.1108427826
H   H45       1.0  0.08180  0.34180  0.48070  1.0000 0.1108427826
H   H46       1.0  0.34180  0.08180  0.51930  1.0000 0.1108427826
H   H47       1.0  0.98550  0.19410  0.94290  1.0000 0.1357234963
H   H48       1.0  0.19410  0.98550  0.05710  1.0000 0.1357234963
H   H49       1.0  0.68640  0.70140  0.82180  1.0000 0.1211242604
H   H50       1.0  0.70140  0.68640  0.17820  1.0000 0.1211242604
H   H51       1.0  0.95160  0.82740  0.87520  1.0000 0.1009049345
H   H52       1.0  0.82740  0.95160  0.12480  1.0000 0.1009049345
H   H53       1.0  0.78630  0.82570  0.93030  1.0000 0.1211242604
H   H54       1.0  0.82570  0.78630  0.06970  1.0000 0.1211242604
H   H55       1.0  0.32300  0.54140  0.66550  1.0000 0.1108427826
H   H56       1.0  0.54140  0.32300  0.33450  1.0000 0.1108427826
H   H57       1.0  0.20050  0.41590  0.65160  1.0000 0.1108427826
H   H58       1.0  0.41590  0.20050  0.34840  1.0000 0.1108427826
H   H59       1.0  0.79150  0.01230  0.94620  1.0000 0.1211242604
H   H60       1.0  0.01230  0.79150  0.05380  1.0000 0.1211242604
C   C1        1.0  0.38380  0.25740  0.78400  1.0000 0.5702915587
C   C2        1.0  0.25740  0.38380  0.21600  1.0000 0.5702915587
C   C3        1.0  0.20840  0.52160  0.99230  1.0000 -0.0034074429
C   C4        1.0  0.52160  0.20840  0.00770  1.0000 -0.0034074429
C   C5        1.0  0.88790  0.72970  0.54940  1.0000 0.5764358439
C   C6        1.0  0.72970  0.88790  0.45060  1.0000 0.5764358439
C   C7        1.0  0.27060  0.84260  0.61260  1.0000 -0.1297750525
C   C8        1.0  0.84260  0.27060  0.38740  1.0000 -0.1297750525
C   C9        1.0  0.31870  0.51990  0.89700  1.0000 -0.0136198239
C   C10       1.0  0.51990  0.31870  0.10300  1.0000 -0.0136198239
C   C11       1.0  0.44260  0.62080  0.46550  1.0000 0.5702915587
C   C12       1.0  0.62080  0.44260  0.53450  1.0000 0.5702915587
C   C13       1.0  0.25580  0.46080  0.95710  1.0000 -0.1078120634
C   C14       1.0  0.46080  0.25580  0.04290  1.0000 -0.1078120634
C   C15       1.0  0.37770  0.45970  0.86160  1.0000 0.3911027111
C   C16       1.0  0.45970  0.37770  0.13840  1.0000 0.3911027111
C   C17       1.0  0.14250  0.45530  0.05670  1.0000 0.5764358439
C   C18       1.0  0.45530  0.14250  0.94330  1.0000 0.5764358439
C   C19       1.0  0.40850  0.38870  0.75660  1.0000 -0.026889266
C   C20       1.0  0.38870  0.40850  0.24340  1.0000 -0.026889266
C   C21       1.0  0.21560  0.77200  0.55510  1.0000 -0.0136198239
C   C22       1.0  0.77200  0.21560  0.44490  1.0000 -0.0136198239
C   C23       1.0  0.09230  0.73650  0.53640  1.0000 -0.1297750525
C   C24       1.0  0.73650  0.09230  0.46360  1.0000 -0.1297750525
C   C25       1.0  0.07300  0.83060  0.63330  1.0000 -0.102667841
C   C26       1.0  0.83060  0.07300  0.36670  1.0000 -0.102667841
C   C27       1.0  0.25900  0.94360  0.71740  1.0000 0.5529393353
C   C28       1.0  0.94360  0.25900  0.28260  1.0000 0.5529393353
C   C29       1.0  0.28650  0.69850  0.90940  1.0000 -0.0034074429
C   C30       1.0  0.69850  0.28650  0.09060  1.0000 -0.0034074429
C   C31       1.0  0.19950  0.86930  0.65390  1.0000 -0.0136198239
C   C32       1.0  0.86930  0.19950  0.34610  1.0000 -0.0136198239
C   C33       1.0  0.33570  0.63690  0.87590  1.0000 -0.1492937929
C   C34       1.0  0.63690  0.33570  0.12410  1.0000 -0.1492937929
C   C35       1.0  0.29600  0.74960  0.50960  1.0000 0.4119787015
C   C36       1.0  0.74960  0.29600  0.49040  1.0000 0.4119787015
C   C37       1.0  0.30670  0.82690  0.88200  1.0000 0.562018434
C   C38       1.0  0.82690  0.30670  0.11800  1.0000 0.562018434
C   C39       1.0  0.22080  0.63660  0.96860  1.0000 -0.1078120634
C   C40       1.0  0.63660  0.22080  0.03140  1.0000 -0.1078120634
C   C41       1.0  0.31470  0.60970  0.43790  1.0000 -0.026889266
C   C42       1.0  0.60970  0.31470  0.56210  1.0000 -0.026889266
C   C43       1.0  0.01960  0.76800  0.57450  1.0000 -0.0210556589
C   C44       1.0  0.76800  0.01960  0.42550  1.0000 -0.0210556589
C   C45       1.0  0.56130  0.79910  0.66170  1.0000 0.1009049345
C   C46       1.0  0.79910  0.56130  0.33830  1.0000 0.1009049345
C   C47       1.0  0.24150  0.44730  0.75270  1.0000 -0.102667841
C   C48       1.0  0.44730  0.24150  0.24730  1.0000 -0.102667841
C   C49       1.0  0.13790  0.51950  0.51020  1.0000 -0.102667841
C   C50       1.0  0.51950  0.13790  0.48980  1.0000 -0.102667841
C   C51       1.0  0.60090  0.80450  0.78400  1.0000 -0.0462248973
C   C52       1.0  0.80450  0.60090  0.21600  1.0000 -0.0462248973
C   C53       1.0  0.66420  0.69560  0.71760  1.0000 0.0810351767
C   C54       1.0  0.69560  0.66420  0.28240  1.0000 0.0810351767
C   C55       1.0  0.35040  0.38960  0.68230  1.0000 -0.2006586544
C   C56       1.0  0.38960  0.35040  0.31770  1.0000 -0.2006586544
C   C57       1.0  0.22540  0.47780  0.42050  1.0000 -0.2006586544
C   C58       1.0  0.47780  0.22540  0.57950  1.0000 -0.2006586544
C   C59       1.0  0.55170  0.84010  0.72410  1.0000 -0.1397742495
C   C60       1.0  0.84010  0.55170  0.27590  1.0000 -0.1397742495
C   C61       1.0  0.07560  0.11080  0.90380  1.0000 0.0886390809
C   C62       1.0  0.11080  0.07560  0.09620  1.0000 0.0886390809
C   C63       1.0  0.15990  0.41710  0.48870  1.0000 -0.1624861076
C   C64       1.0  0.41710  0.15990  0.51130  1.0000 -0.1624861076
C   C65       1.0  0.97590  0.11870  0.92940  1.0000 -0.1397742495
C   C66       1.0  0.11870  0.97590  0.07060  1.0000 -0.1397742495
C   C67       1.0  0.65570  0.72930  0.78150  1.0000 -0.1492937929
C   C68       1.0  0.72930  0.65570  0.21850  1.0000 -0.1492937929
C   C69       1.0  0.96040  0.90140  0.89030  1.0000 0.0886390809
C   C70       1.0  0.90140  0.96040  0.10970  1.0000 0.0886390809
C   C71       1.0  0.85670  0.90090  0.92040  1.0000 -0.1624861076
C   C72       1.0  0.90090  0.85670  0.07960  1.0000 -0.1624861076
C   C73       1.0  0.27540  0.45460  0.68200  1.0000 -0.1709991894
C   C74       1.0  0.45460  0.27540  0.31800  1.0000 -0.1709991894
C   C75       1.0  0.86220  0.00980  0.93400  1.0000 -0.0462248973
C   C76       1.0  0.00980  0.86220  0.06600  1.0000 -0.0462248973
N   N1        1.0  0.61610  0.72830  0.65900  1.0000 -0.2193044327
N   N2        1.0  0.72830  0.61610  0.34100  1.0000 -0.2193044327
N   N3        1.0  0.24790  0.63330  0.48760  1.0000 -0.1173328846
N   N4        1.0  0.63330  0.24790  0.51240  1.0000 -0.1173328846
N   N5        1.0  0.34720  0.43840  0.79600  1.0000 -0.1173328846
N   N6        1.0  0.43840  0.34720  0.20400  1.0000 -0.1173328846
N   N7        1.0  0.06800  0.00500  0.88390  1.0000 -0.2398903571
N   N8        1.0  0.00500  0.06800  0.11610  1.0000 -0.2398903571
O   O1        1.0  0.82120  0.74340  0.59050  1.0000 -0.5115692071
O   O2        1.0  0.74340  0.82120  0.40950  1.0000 -0.5115692071
O   O3        1.0  0.51010  0.62350  0.42080  1.0000 -0.529861965
O   O4        1.0  0.62350  0.51010  0.57920  1.0000 -0.529861965
O   O5        1.0  0.27810  0.18430  0.80450  1.0000 -0.5029061637
O   O6        1.0  0.18430  0.27810  0.19550  1.0000 -0.5029061637
O   O7        1.0  0.18680  0.94080  0.75920  1.0000 -0.5115692071
O   O8        1.0  0.94080  0.18680  0.24080  1.0000 -0.5115692071
O   O9        1.0  0.37600  0.99400  0.72520  1.0000 -0.5202256642
O   O10       1.0  0.99400  0.37600  0.27480  1.0000 -0.5202256642
O   O11       1.0  0.47040  0.62620  0.53050  1.0000 -0.529861965
O   O12       1.0  0.62620  0.47040  0.46950  1.0000 -0.529861965
O   O13       1.0  0.84932  0.68768  0.48980  1.0000 -0.529861965
O   O14       1.0  0.68768  0.84932  0.51020  1.0000 -0.529861965
O   O15       1.0  0.10369  0.34011  0.06770  1.0000 -0.5202256642
O   O16       1.0  0.34011  0.10369  0.93230  1.0000 -0.5202256642
O   O17       1.0  0.22350  0.85890  0.89200  1.0000 -0.5115692071
O   O18       1.0  0.85890  0.22350  0.10800  1.0000 -0.5115692071
O   O19       1.0  0.47100  0.23020  0.77840  1.0000 -0.5115692071
O   O20       1.0  0.23020  0.47100  0.22160  1.0000 -0.5115692071
O   O21       1.0  0.40550  0.89310  0.85120  1.0000 -0.529861965
O   O22       1.0  0.89310  0.40550  0.14880  1.0000 -0.529861965
O   O23       1.0  0.12790  0.52530  0.09700  1.0000 -0.529861965
O   O24       1.0  0.52530  0.12790  0.90300  1.0000 -0.529861965
O   O25       1.0  0.39680  0.83560  0.49360  1.0000 -0.476038178
O   O26       1.0  0.83560  0.39680  0.50640  1.0000 -0.476038178
O   O27       1.0  0.45840  0.43260  0.89430  1.0000 -0.5029061637
O   O28       1.0  0.43260  0.45840  0.10570  1.0000 -0.5029061637
