# DDEC6 charges by PACMAN v1.1 (https://github.com/mtap-research/PACMAN-charge/)
data_2015[Sm][umc]3[ASR]2
_chemical_formula_sum              "Sm4 H100 C112 N8 O32"
_cell_length_a       17.0252
_cell_length_b       17.0252
_cell_length_c       34.21
_cell_angle_alpha    65.4064
_cell_angle_beta     114.594
_cell_angle_gamma    149.355

_symmetry_space_group_name_H-M    "P 1"
_symmetry_Int_Tables_number       1

loop_
  _symmetry_equiv_pos_as_xyz
  'x, y, z'

loop_
  _atom_site_type_symbol
  _atom_site_label
  _atom_site_symmetry_multiplicity
  _atom_site_fract_x
  _atom_site_fract_y
  _atom_site_fract_z
  _atom_site_occupancy
  _atom_site_charge
Sm  Sm1       1.0  0.13864  0.14626  0.11897  1.0000 2.0442578546
Sm  Sm2       1.0  0.14626  0.13864  0.38103  1.0000 2.0442578546
Sm  Sm3       1.0  0.86136  0.85374  0.88103  1.0000 2.0442578546
Sm  Sm4       1.0  0.85374  0.86136  0.61897  1.0000 2.0442578546
H   H1        1.0  0.89010  0.63710  0.92010  1.0000 0.3663188569
H   H2        1.0  0.63710  0.89010  0.57990  1.0000 0.3663188569
H   H3        1.0  0.10990  0.36290  0.07990  1.0000 0.3663188569
H   H4        1.0  0.36290  0.10990  0.42010  1.0000 0.3663188569
H   H5        1.0  0.56060  0.19580  0.82520  1.0000 0.2575186952
H   H6        1.0  0.19580  0.56060  0.67480  1.0000 0.2575186952
H   H7        1.0  0.43940  0.80420  0.17480  1.0000 0.2575186952
H   H8        1.0  0.80420  0.43940  0.32520  1.0000 0.2575186952
H   H9        1.0  0.18610  0.58590  0.88510  1.0000 0.2575186952
H   H10       1.0  0.58590  0.18610  0.61490  1.0000 0.2575186952
H   H11       1.0  0.81390  0.41410  0.11490  1.0000 0.2575186952
H   H12       1.0  0.41410  0.81390  0.38510  1.0000 0.2575186952
H   H13       1.0  0.88240  0.77240  0.78180  1.0000 0.1391502224
H   H14       1.0  0.77240  0.88240  0.71820  1.0000 0.1391502224
H   H15       1.0  0.11760  0.22760  0.21820  1.0000 0.1391502224
H   H16       1.0  0.22760  0.11760  0.28180  1.0000 0.1391502224
H   H17       1.0  0.66580  0.43940  0.72840  1.0000 0.1286974911
H   H18       1.0  0.43940  0.66580  0.77160  1.0000 0.1286974911
H   H19       1.0  0.33420  0.56060  0.27160  1.0000 0.1286974911
H   H20       1.0  0.56060  0.33420  0.22840  1.0000 0.1286974911
H   H21       1.0  0.71260  0.40280  0.85750  1.0000 0.1286974911
H   H22       1.0  0.40280  0.71260  0.64250  1.0000 0.1286974911
H   H23       1.0  0.28740  0.59720  0.14250  1.0000 0.1286974911
H   H24       1.0  0.59720  0.28740  0.35750  1.0000 0.1286974911
H   H25       1.0  0.48290  0.17250  0.74190  1.0000 0.101026254
H   H26       1.0  0.17250  0.48290  0.75810  1.0000 0.101026254
H   H27       1.0  0.51710  0.82750  0.25810  1.0000 0.101026254
H   H28       1.0  0.82750  0.51710  0.24190  1.0000 0.101026254
H   H29       1.0  0.63790  0.24810  0.75660  1.0000 0.101026254
H   H30       1.0  0.24810  0.63790  0.74340  1.0000 0.101026254
H   H31       1.0  0.36210  0.75190  0.24340  1.0000 0.101026254
H   H32       1.0  0.75190  0.36210  0.25660  1.0000 0.101026254
H   H33       1.0  0.74250  0.16730  0.84050  1.0000 0.1391502224
H   H34       1.0  0.16730  0.74250  0.65950  1.0000 0.1391502224
H   H35       1.0  0.25750  0.83270  0.15950  1.0000 0.1391502224
H   H36       1.0  0.83270  0.25750  0.34050  1.0000 0.1391502224
H   H37       1.0  0.73590  0.12510  0.80520  1.0000 0.1391502224
H   H38       1.0  0.12510  0.73590  0.69480  1.0000 0.1286974911
H   H39       1.0  0.26410  0.87490  0.19480  1.0000 0.1391502224
H   H40       1.0  0.87490  0.26410  0.30520  1.0000 0.1391502224
H   H41       1.0  0.74520  0.23280  0.79170  1.0000 0.1174783795
H   H42       1.0  0.23280  0.74520  0.70830  1.0000 0.1174783795
H   H43       1.0  0.25480  0.76720  0.20830  1.0000 0.1174783795
H   H44       1.0  0.76720  0.25480  0.29170  1.0000 0.1174783795
H   H45       1.0  0.51970  0.80990  0.82130  1.0000 0.1391502224
H   H46       1.0  0.80990  0.51970  0.67870  1.0000 0.1391502224
H   H47       1.0  0.48030  0.19010  0.17870  1.0000 0.1391502224
H   H48       1.0  0.19010  0.48030  0.32130  1.0000 0.1391502224
H   H49       1.0  0.62190  0.92710  0.85320  1.0000 0.1391502224
H   H50       1.0  0.92710  0.62190  0.64680  1.0000 0.1391502224
H   H51       1.0  0.37810  0.07290  0.14680  1.0000 0.1391502224
H   H52       1.0  0.07290  0.37810  0.35320  1.0000 0.1391502224
H   H53       1.0  0.46290  0.74890  0.86520  1.0000 0.1286974911
H   H54       1.0  0.74890  0.46290  0.63480  1.0000 0.1286974911
H   H55       1.0  0.53710  0.25110  0.13480  1.0000 0.1286974911
H   H56       1.0  0.25110  0.53710  0.36520  1.0000 0.1286974911
H   H57       1.0  0.27980  0.01580  0.75470  1.0000 0.1286974911
H   H58       1.0  0.01580  0.27980  0.74530  1.0000 0.1286974911
H   H59       1.0  0.72020  0.98420  0.24530  1.0000 0.1286974911
H   H60       1.0  0.98420  0.72020  0.25470  1.0000 0.1286974911
H   H61       1.0  0.14570  0.86690  0.73180  1.0000 0.1451590411
H   H62       1.0  0.86690  0.14570  0.76820  1.0000 0.1451590411
H   H63       1.0  0.85430  0.13310  0.26820  1.0000 0.1451590411
H   H64       1.0  0.13310  0.85430  0.23180  1.0000 0.1451590411
H   H65       1.0  0.13540  0.85200  0.77840  1.0000 0.1286974911
H   H66       1.0  0.85200  0.13540  0.72160  1.0000 0.1286974911
H   H67       1.0  0.86460  0.14800  0.22160  1.0000 0.1286974911
H   H68       1.0  0.14800  0.86460  0.27840  1.0000 0.1286974911
H   H69       1.0  0.23130  0.55690  0.83030  1.0000 0.101026254
H   H70       1.0  0.55690  0.23130  0.66970  1.0000 0.101026254
H   H71       1.0  0.76870  0.44310  0.16970  1.0000 0.101026254
H   H72       1.0  0.44310  0.76870  0.33030  1.0000 0.101026254
H   H73       1.0  0.07850  0.48570  0.81370  1.0000 0.109864661
H   H74       1.0  0.48570  0.07850  0.68630  1.0000 0.109864661
H   H75       1.0  0.92150  0.51430  0.18630  1.0000 0.109864661
H   H76       1.0  0.51430  0.92150  0.31370  1.0000 0.109864661
H   H77       1.0  0.13370  0.45710  0.95550  1.0000 0.1286974911
H   H78       1.0  0.45710  0.13370  0.54450  1.0000 0.1286974911
H   H79       1.0  0.86630  0.54290  0.04450  1.0000 0.1286974911
H   H80       1.0  0.54290  0.86630  0.45550  1.0000 0.1286974911
H   H81       1.0  0.94600  0.06460  0.98270  1.0000 0.1391502224
H   H82       1.0  0.06460  0.94600  0.51730  1.0000 0.1391502224
H   H83       1.0  0.05400  0.93540  0.01730  1.0000 0.1391502224
H   H84       1.0  0.93540  0.05400  0.48270  1.0000 0.1391502224
H   H85       1.0  0.02170  0.28210  0.86090  1.0000 0.1286974911
H   H86       1.0  0.28210  0.02170  0.63910  1.0000 0.1286974911
H   H87       1.0  0.97830  0.71790  0.13910  1.0000 0.1286974911
H   H88       1.0  0.71790  0.97830  0.36090  1.0000 0.1286974911
H   H89       1.0  0.98310  0.51210  0.80760  1.0000 0.1174783795
H   H90       1.0  0.51210  0.98310  0.69240  1.0000 0.1174783795
H   H91       1.0  0.01690  0.48790  0.19240  1.0000 0.1174783795
H   H92       1.0  0.48790  0.01690  0.30760  1.0000 0.1174783795
H   H93       1.0  0.99980  0.62240  0.80170  1.0000 0.1286974911
H   H94       1.0  0.62240  0.99980  0.69830  1.0000 0.1286974911
H   H95       1.0  0.00020  0.37760  0.19830  1.0000 0.1286974911
H   H96       1.0  0.37760  0.00020  0.30170  1.0000 0.1286974911
H   H97       1.0  0.98240  0.58600  0.76110  1.0000 0.1286974911
H   H98       1.0  0.58600  0.98240  0.73890  1.0000 0.1286974911
H   H99       1.0  0.01760  0.41400  0.23890  1.0000 0.1286974911
H   H100      1.0  0.41400  0.01760  0.26110  1.0000 0.1286974911
C   C1        1.0  0.84530  0.65090  0.86440  1.0000 0.6178260125
C   C2        1.0  0.65090  0.84530  0.63560  1.0000 0.6178260125
C   C3        1.0  0.15470  0.34910  0.13560  1.0000 0.6178260125
C   C4        1.0  0.34910  0.15470  0.36440  1.0000 0.6178260125
C   C5        1.0  0.79470  0.58930  0.82450  1.0000 -0.0099409949
C   C6        1.0  0.58930  0.79470  0.67550  1.0000 -0.0099409949
C   C7        1.0  0.20530  0.41070  0.17550  1.0000 -0.0099409949
C   C8        1.0  0.41070  0.20530  0.32450  1.0000 -0.0099409949
C   C9        1.0  0.82760  0.67660  0.78460  1.0000 -0.1262933169
C   C10       1.0  0.67660  0.82760  0.71540  1.0000 -0.1262933169
C   C11       1.0  0.17240  0.32340  0.21540  1.0000 -0.1262933169
C   C12       1.0  0.32340  0.17240  0.28460  1.0000 -0.1262933169
C   C13       1.0  0.77590  0.61630  0.74890  1.0000 0.0013896256
C   C14       1.0  0.61630  0.77590  0.75110  1.0000 0.0013896256
C   C15       1.0  0.22410  0.38370  0.25110  1.0000 0.0013896256
C   C16       1.0  0.38370  0.22410  0.24890  1.0000 0.0013896256
C   C17       1.0  0.69790  0.47650  0.75290  1.0000 -0.1970543027
C   C18       1.0  0.47650  0.69790  0.74710  1.0000 -0.1970543027
C   C19       1.0  0.30210  0.52350  0.24710  1.0000 -0.1970543027
C   C20       1.0  0.52350  0.30210  0.25290  1.0000 -0.1970543027
C   C21       1.0  0.66600  0.38840  0.79430  1.0000 0.2197663314
C   C22       1.0  0.38840  0.66600  0.70570  1.0000 0.2197663314
C   C23       1.0  0.33400  0.61160  0.20570  1.0000 0.2197663314
C   C24       1.0  0.61160  0.33400  0.29430  1.0000 0.2197663314
C   C25       1.0  0.72300  0.45260  0.82980  1.0000 -0.219061932
C   C26       1.0  0.45260  0.72300  0.67020  1.0000 -0.219061932
C   C27       1.0  0.27700  0.54740  0.17020  1.0000 -0.219061932
C   C28       1.0  0.54740  0.27700  0.32980  1.0000 -0.219061932
C   C29       1.0  0.80930  0.70850  0.70400  1.0000 0.5710016243
C   C30       1.0  0.70850  0.80930  0.79600  1.0000 0.5710016243
C   C31       1.0  0.19070  0.29150  0.29600  1.0000 0.5710016243
C   C32       1.0  0.29150  0.19070  0.20400  1.0000 0.5710016243
C   C33       1.0  0.54450  0.18050  0.76650  1.0000 -0.1262933169
C   C34       1.0  0.18050  0.54450  0.73350  1.0000 -0.1262933169
C   C35       1.0  0.45550  0.81950  0.23350  1.0000 -0.1262933169
C   C36       1.0  0.81950  0.45550  0.26650  1.0000 -0.1262933169
C   C37       1.0  0.45260  0.02100  0.78320  1.0000 -0.0629262616
C   C38       1.0  0.02100  0.45260  0.71680  1.0000 -0.0629262616
C   C39       1.0  0.54740  0.97900  0.21680  1.0000 -0.0629262616
C   C40       1.0  0.97900  0.54740  0.28320  1.0000 -0.0629262616
C   C41       1.0  0.52950  0.00490  0.80490  1.0000 0.0578166578
C   C42       1.0  0.00490  0.52950  0.69510  1.0000 0.0578166578
C   C43       1.0  0.47050  0.99510  0.19510  1.0000 0.0578166578
C   C44       1.0  0.99510  0.47050  0.30490  1.0000 0.0578166578
C   C45       1.0  0.43530  0.85130  0.81980  1.0000 0.0498103178
C   C46       1.0  0.85130  0.43530  0.68020  1.0000 0.0498103178
C   C47       1.0  0.56470  0.14870  0.18020  1.0000 0.0498103178
C   C48       1.0  0.14870  0.56470  0.31980  1.0000 0.0498103178
C   C49       1.0  0.27570  0.72410  0.81410  1.0000 -0.0629262616
C   C50       1.0  0.72410  0.27570  0.68590  1.0000 -0.0629262616
C   C51       1.0  0.72430  0.27590  0.18590  1.0000 -0.0629262616
C   C52       1.0  0.27590  0.72430  0.31410  1.0000 -0.0629262616
C   C53       1.0  0.19980  0.74080  0.79480  1.0000 0.0498103178
C   C54       1.0  0.74080  0.19980  0.70520  1.0000 0.0498103178
C   C55       1.0  0.80020  0.25920  0.20520  1.0000 0.0498103178
C   C56       1.0  0.25920  0.80020  0.29480  1.0000 0.0498103178
C   C57       1.0  0.28780  0.88880  0.77900  1.0000 0.0578166578
C   C58       1.0  0.88880  0.28780  0.72100  1.0000 0.0578166578
C   C59       1.0  0.71220  0.11120  0.22100  1.0000 0.0578166578
C   C60       1.0  0.11120  0.71220  0.27900  1.0000 0.0578166578
C   C61       1.0  0.70400  0.14520  0.81110  1.0000 -0.4795280718
C   C62       1.0  0.14520  0.70400  0.68890  1.0000 -0.4795280718
C   C63       1.0  0.29600  0.85480  0.18890  1.0000 -0.4795280718
C   C64       1.0  0.85480  0.29600  0.31110  1.0000 -0.4795280718
C   C65       1.0  0.51750  0.83250  0.84190  1.0000 -0.4588054963
C   C66       1.0  0.83250  0.51750  0.65810  1.0000 -0.4588054963
C   C67       1.0  0.48250  0.16750  0.15810  1.0000 -0.4588054963
C   C68       1.0  0.16750  0.48250  0.34190  1.0000 -0.4588054963
C   C69       1.0  0.20430  0.90770  0.75910  1.0000 -0.4588054963
C   C70       1.0  0.90770  0.20430  0.74090  1.0000 -0.4588054963
C   C71       1.0  0.79570  0.09230  0.24090  1.0000 -0.4588054963
C   C72       1.0  0.09230  0.79570  0.25910  1.0000 -0.4588054963
C   C73       1.0  0.17840  0.56060  0.83150  1.0000 -0.1221371204
C   C74       1.0  0.56060  0.17840  0.66850  1.0000 -0.1221371204
C   C75       1.0  0.82160  0.43940  0.16850  1.0000 -0.1221371204
C   C76       1.0  0.43940  0.82160  0.33150  1.0000 -0.1221371204
C   C77       1.0  0.09320  0.39600  0.90280  1.0000 0.2197663314
C   C78       1.0  0.39600  0.09320  0.59720  1.0000 0.2197663314
C   C79       1.0  0.90680  0.60400  0.09720  1.0000 0.2197663314
C   C80       1.0  0.60400  0.90680  0.40280  1.0000 0.2197663314
C   C81       1.0  0.09630  0.38350  0.94620  1.0000 -0.219061932
C   C82       1.0  0.38350  0.09630  0.55380  1.0000 -0.219061932
C   C83       1.0  0.90370  0.61650  0.05380  1.0000 -0.219061932
C   C84       1.0  0.61650  0.90370  0.44620  1.0000 -0.219061932
C   C85       1.0  0.04390  0.26150  0.97590  1.0000 -0.0003766412
C   C86       1.0  0.26150  0.04390  0.52410  1.0000 0.0013896256
C   C87       1.0  0.95610  0.73850  0.02410  1.0000 0.0013896256
C   C88       1.0  0.73850  0.95610  0.47590  1.0000 -0.0003766412
C   C89       1.0  0.98230  0.14650  0.96290  1.0000 -0.112660157
C   C90       1.0  0.14650  0.98230  0.53710  1.0000 -0.112660157
C   C91       1.0  0.01770  0.85350  0.03710  1.0000 -0.112660157
C   C92       1.0  0.85350  0.01770  0.46290  1.0000 -0.112660157
C   C93       1.0  0.97680  0.15800  0.91950  1.0000 0.0013896256
C   C94       1.0  0.15800  0.97680  0.58050  1.0000 0.0013896256
C   C95       1.0  0.02320  0.84200  0.08050  1.0000 0.0013896256
C   C96       1.0  0.84200  0.02320  0.41950  1.0000 0.0013896256
C   C97       1.0  0.02910  0.27870  0.88990  1.0000 -0.2060873308
C   C98       1.0  0.27870  0.02910  0.61010  1.0000 -0.2060873308
C   C99       1.0  0.97090  0.72130  0.11010  1.0000 -0.2060873308
C   C100      1.0  0.72130  0.97090  0.38990  1.0000 -0.2060873308
C   C101      1.0  0.05450  0.25690  0.02330  1.0000 0.6178260125
C   C102      1.0  0.25690  0.05450  0.47670  1.0000 0.6178260125
C   C103      1.0  0.94550  0.74310  0.97670  1.0000 0.6178260125
C   C104      1.0  0.74310  0.94550  0.52330  1.0000 0.6178260125
C   C105      1.0  0.90680  0.03320  0.90400  1.0000 0.5555491797
C   C106      1.0  0.03320  0.90680  0.59600  1.0000 0.5555491797
C   C107      1.0  0.09320  0.96680  0.09600  1.0000 0.5555491797
C   C108      1.0  0.96680  0.09320  0.40400  1.0000 0.5555491797
C   C109      1.0  0.02530  0.60270  0.79090  1.0000 -0.4795280718
C   C110      1.0  0.60270  0.02530  0.70910  1.0000 -0.4795280718
C   C111      1.0  0.97470  0.39730  0.20910  1.0000 -0.4795280718
C   C112      1.0  0.39730  0.97470  0.29090  1.0000 -0.4795280718
N   N1        1.0  0.58740  0.24860  0.80000  1.0000 -0.2736421325
N   N2        1.0  0.24860  0.58740  0.70000  1.0000 -0.2736421325
N   N3        1.0  0.41260  0.75140  0.20000  1.0000 -0.2736421325
N   N4        1.0  0.75140  0.41260  0.30000  1.0000 -0.2736421325
N   N5        1.0  0.15680  0.52340  0.87530  1.0000 -0.2812550761
N   N6        1.0  0.52340  0.15680  0.62470  1.0000 -0.2812550761
N   N7        1.0  0.84320  0.47660  0.12470  1.0000 -0.2812550761
N   N8        1.0  0.47660  0.84320  0.37530  1.0000 -0.2812550761
O   O1        1.0  0.01800  0.15500  0.05094  1.0000 -0.6739555099
O   O2        1.0  0.15500  0.01800  0.44906  1.0000 -0.6739555099
O   O3        1.0  0.98200  0.84500  0.94906  1.0000 -0.6739555099
O   O4        1.0  0.84500  0.98200  0.55094  1.0000 -0.6739555099
O   O5        1.0  0.09800  0.35980  0.03050  1.0000 -0.5676836767
O   O6        1.0  0.35980  0.09800  0.46950  1.0000 -0.5676836767
O   O7        1.0  0.90200  0.64020  0.96950  1.0000 -0.5676836767
O   O8        1.0  0.64020  0.90200  0.53050  1.0000 -0.5676836767
O   O9        1.0  0.87160  0.93120  0.93161  1.0000 -0.623986686
O   O10       1.0  0.93120  0.87160  0.56839  1.0000 -0.623986686
O   O11       1.0  0.12840  0.06880  0.06839  1.0000 -0.623986686
O   O12       1.0  0.06880  0.12840  0.43161  1.0000 -0.623986686
O   O13       1.0  0.90050  0.04150  0.86556  1.0000 -0.6112142452
O   O14       1.0  0.04150  0.90050  0.63444  1.0000 -0.6112142452
O   O15       1.0  0.09950  0.95850  0.13444  1.0000 -0.6112142452
O   O16       1.0  0.95850  0.09950  0.36556  1.0000 -0.6112142452
O   O17       1.0  0.72920  0.63560  0.67214  1.0000 -0.6370940753
O   O18       1.0  0.63560  0.72920  0.82786  1.0000 -0.6370940753
O   O19       1.0  0.27080  0.36440  0.32786  1.0000 -0.6370940753
O   O20       1.0  0.36440  0.27080  0.17214  1.0000 -0.6370940753
O   O21       1.0  0.91400  0.85180  0.69966  1.0000 -0.6112142452
O   O22       1.0  0.85180  0.91400  0.80034  1.0000 -0.6112142452
O   O23       1.0  0.08600  0.14820  0.30034  1.0000 -0.6112142452
O   O24       1.0  0.14820  0.08600  0.19966  1.0000 -0.6112142452
O   O25       1.0  0.85650  0.73410  0.86060  1.0000 -0.6370940753
O   O26       1.0  0.73410  0.85650  0.63940  1.0000 -0.6370940753
O   O27       1.0  0.14350  0.26590  0.13940  1.0000 -0.6370940753
O   O28       1.0  0.26590  0.14350  0.36060  1.0000 -0.6370940753
O   O29       1.0  0.86120  0.59800  0.90040  1.0000 -0.4712642976
O   O30       1.0  0.59800  0.86120  0.59960  1.0000 -0.4712642976
O   O31       1.0  0.13880  0.40200  0.09960  1.0000 -0.4712642976
O   O32       1.0  0.40200  0.13880  0.40040  1.0000 -0.4712642976
