# DDEC6 charges by PACMAN v1.1 (https://github.com/mtap-research/PACMAN-charge/)
data_2015[Zn][nan]3[ASR]25
_chemical_formula_sum              "Zn6 H112 C176 N8 O24"
_cell_length_a       17.898
_cell_length_b       20.275
_cell_length_c       21.796
_cell_angle_alpha    116.625
_cell_angle_beta     103.356
_cell_angle_gamma    84.876

_symmetry_space_group_name_H-M    "P 1"
_symmetry_Int_Tables_number       1

loop_
  _symmetry_equiv_pos_as_xyz
  'x, y, z'

loop_
  _atom_site_type_symbol
  _atom_site_label
  _atom_site_symmetry_multiplicity
  _atom_site_fract_x
  _atom_site_fract_y
  _atom_site_fract_z
  _atom_site_occupancy
  _atom_site_charge
Zn  Zn1       1.0  0.53496  0.10612  0.95041  1.0000 0.8296580341
Zn  Zn2       1.0  0.72771  0.11702  0.91937  1.0000 0.951617929
Zn  Zn3       1.0  0.91141  0.04580  0.91103  1.0000 0.8210755911
Zn  Zn4       1.0  0.46504  0.89388  0.04959  1.0000 0.8296580341
Zn  Zn5       1.0  0.27229  0.88298  0.08063  1.0000 0.951617929
Zn  Zn6       1.0  0.08859  0.95420  0.08897  1.0000 0.8210755911
H   H1        1.0  0.01900  0.03190  0.82210  1.0000 0.119210329
H   H2        1.0  0.25260  0.12980  0.88020  1.0000 0.119210329
H   H3        1.0  0.14570  0.04360  0.82780  1.0000 0.1363344442
H   H4        1.0  0.37980  0.14250  0.88710  1.0000 0.119210329
H   H5        1.0  0.30770  0.00790  0.98540  1.0000 0.1496534467
H   H6        1.0  0.06050  0.06340  0.01750  1.0000 0.1109233402
H   H7        1.0  0.71020  0.89670  0.77580  1.0000 0.119210329
H   H8        1.0  0.88640  0.81240  0.84740  1.0000 0.119210329
H   H9        1.0  0.19020  0.07280  0.02830  1.0000 0.1496534467
H   H10       1.0  0.59870  0.13410  0.17290  1.0000 0.119210329
H   H11       1.0  0.67670  0.24770  0.40210  1.0000 0.1109233402
H   H12       1.0  0.71470  0.77090  0.71370  1.0000 0.1109233402
H   H13       1.0  0.53430  0.64310  0.72120  1.0000 0.1109233402
H   H14       1.0  0.53400  0.51620  0.65790  1.0000 0.1286381115
H   H15       1.0  0.68620  0.30080  0.52140  1.0000 0.119210329
H   H16       1.0  0.56110  0.74870  0.81120  1.0000 0.1109233402
H   H17       1.0  0.43380  0.02500  0.99100  1.0000 0.1109233402
H   H18       1.0  0.96710  0.13800  0.13130  1.0000 0.119210329
H   H19       1.0  0.55980  0.24180  0.62480  1.0000 0.119210329
H   H20       1.0  0.59240  0.48510  0.51350  1.0000 0.1286381115
H   H21       1.0  0.67980  0.26760  0.90690  1.0000 0.119210329
H   H22       1.0  0.68450  0.46760  0.73510  1.0000 0.1286381115
H   H23       1.0  0.74600  0.52880  0.63310  1.0000 0.119210329
H   H24       1.0  0.61700  0.19120  0.29310  1.0000 0.119210329
H   H25       1.0  0.58930  0.43260  0.39500  1.0000 0.1109233402
H   H26       1.0  0.58900  0.33260  0.17180  1.0000 0.119210329
H   H27       1.0  0.75490  0.19640  0.23000  1.0000 0.1109233402
H   H28       1.0  0.55280  0.87420  0.86820  1.0000 0.1109233402
H   H29       1.0  0.50490  0.22420  0.69990  1.0000 0.1109233402
H   H30       1.0  0.57370  0.30120  0.56010  1.0000 0.1286381115
H   H31       1.0  0.80650  0.39000  0.62320  1.0000 0.119210329
H   H32       1.0  0.86520  0.70620  0.60730  1.0000 0.119210329
H   H33       1.0  0.73950  0.13560  0.10960  1.0000 0.119210329
H   H34       1.0  0.74360  0.65460  0.69310  1.0000 0.1004555537
H   H35       1.0  0.66840  0.40880  0.79960  1.0000 0.1109233402
H   H36       1.0  0.74360  0.21220  0.67530  1.0000 0.1109233402
H   H37       1.0  0.48900  0.16560  0.76630  1.0000 0.1286381115
H   H38       1.0  0.80490  0.19140  0.34410  1.0000 0.1109233402
H   H39       1.0  0.90050  0.68870  0.78780  1.0000 0.119210329
H   H40       1.0  0.62040  0.38870  0.29260  1.0000 0.1109233402
H   H41       1.0  0.72630  0.16000  0.74640  1.0000 0.119210329
H   H42       1.0  0.69450  0.32560  0.83920  1.0000 0.119210329
H   H43       1.0  0.98210  0.20300  0.25150  1.0000 0.1109233402
H   H44       1.0  0.85610  0.83190  0.66820  1.0000 0.1286381115
H   H45       1.0  0.97600  0.38870  0.46420  1.0000 0.1286381115
H   H46       1.0  0.82200  0.25720  0.46440  1.0000 0.119210329
H   H47       1.0  0.95950  0.58620  0.73400  1.0000 0.119210329
H   H48       1.0  0.97070  0.46260  0.67710  1.0000 0.1286381115
H   H49       1.0  0.78410  0.32390  0.68020  1.0000 0.1109233402
H   H50       1.0  0.95910  0.32290  0.34410  1.0000 0.1109233402
H   H51       1.0  0.95420  0.15480  0.81130  1.0000 0.119210329
H   H52       1.0  0.97220  0.20670  0.74040  1.0000 0.119210329
H   H53       1.0  0.83620  0.58760  0.55720  1.0000 0.119210329
H   H54       1.0  0.84530  0.46200  0.50080  1.0000 0.1286381115
H   H55       1.0  0.98400  0.25990  0.56490  1.0000 0.1286381115
H   H56       1.0  0.96360  0.19800  0.62520  1.0000 0.1109233402
H   H57       1.0  0.98100  0.96810  0.17790  1.0000 0.119210329
H   H58       1.0  0.74740  0.87020  0.11980  1.0000 0.119210329
H   H59       1.0  0.85430  0.95640  0.17220  1.0000 0.1363344442
H   H60       1.0  0.62020  0.85750  0.11290  1.0000 0.119210329
H   H61       1.0  0.69230  0.99210  0.01460  1.0000 0.1496534467
H   H62       1.0  0.93950  0.93660  0.98250  1.0000 0.1109233402
H   H63       1.0  0.28980  0.10330  0.22420  1.0000 0.119210329
H   H64       1.0  0.11360  0.18760  0.15260  1.0000 0.119210329
H   H65       1.0  0.80980  0.92720  0.97170  1.0000 0.1496534467
H   H66       1.0  0.40130  0.86590  0.82710  1.0000 0.119210329
H   H67       1.0  0.32330  0.75230  0.59790  1.0000 0.1109233402
H   H68       1.0  0.28530  0.22910  0.28630  1.0000 0.1109233402
H   H69       1.0  0.46570  0.35690  0.27880  1.0000 0.1109233402
H   H70       1.0  0.46600  0.48380  0.34210  1.0000 0.1286381115
H   H71       1.0  0.31380  0.69920  0.47860  1.0000 0.119210329
H   H72       1.0  0.43890  0.25130  0.18880  1.0000 0.1109233402
H   H73       1.0  0.56620  0.97500  0.00900  1.0000 0.1109233402
H   H74       1.0  0.03290  0.86200  0.86870  1.0000 0.119210329
H   H75       1.0  0.44020  0.75820  0.37520  1.0000 0.119210329
H   H76       1.0  0.40760  0.51490  0.48650  1.0000 0.1286381115
H   H77       1.0  0.32020  0.73240  0.09310  1.0000 0.119210329
H   H78       1.0  0.31550  0.53240  0.26490  1.0000 0.1286381115
H   H79       1.0  0.25400  0.47120  0.36690  1.0000 0.119210329
H   H80       1.0  0.38300  0.80880  0.70690  1.0000 0.119210329
H   H81       1.0  0.41070  0.56740  0.60500  1.0000 0.1109233402
H   H82       1.0  0.41100  0.66740  0.82820  1.0000 0.119210329
H   H83       1.0  0.24510  0.80360  0.77000  1.0000 0.1109233402
H   H84       1.0  0.44720  0.12580  0.13180  1.0000 0.1109233402
H   H85       1.0  0.49510  0.77580  0.30010  1.0000 0.1109233402
H   H86       1.0  0.42630  0.69880  0.43990  1.0000 0.1286381115
H   H87       1.0  0.19350  0.61000  0.37680  1.0000 0.119210329
H   H88       1.0  0.13480  0.29380  0.39270  1.0000 0.1109233402
H   H89       1.0  0.26050  0.86440  0.89040  1.0000 0.119210329
H   H90       1.0  0.25640  0.34540  0.30690  1.0000 0.1004555537
H   H91       1.0  0.33160  0.59120  0.20040  1.0000 0.1109233402
H   H92       1.0  0.25640  0.78780  0.32470  1.0000 0.1109233402
H   H93       1.0  0.51100  0.83440  0.23370  1.0000 0.1286381115
H   H94       1.0  0.19510  0.80860  0.65590  1.0000 0.1109233402
H   H95       1.0  0.09950  0.31130  0.21220  1.0000 0.119210329
H   H96       1.0  0.37960  0.61130  0.70740  1.0000 0.1109233402
H   H97       1.0  0.27370  0.84000  0.25360  1.0000 0.119210329
H   H98       1.0  0.30550  0.67440  0.16080  1.0000 0.119210329
H   H99       1.0  0.01790  0.79700  0.74850  1.0000 0.1109233402
H   H100      1.0  0.14390  0.16810  0.33180  1.0000 0.1286381115
H   H101      1.0  0.02400  0.61130  0.53580  1.0000 0.1286381115
H   H102      1.0  0.17800  0.74280  0.53560  1.0000 0.119210329
H   H103      1.0  0.04050  0.41380  0.26600  1.0000 0.119210329
H   H104      1.0  0.02930  0.53740  0.32290  1.0000 0.1286381115
H   H105      1.0  0.21590  0.67610  0.31980  1.0000 0.1109233402
H   H106      1.0  0.04090  0.67710  0.65590  1.0000 0.1109233402
H   H107      1.0  0.04580  0.84520  0.18870  1.0000 0.119210329
H   H108      1.0  0.02780  0.79330  0.25960  1.0000 0.119210329
H   H109      1.0  0.16380  0.41240  0.44280  1.0000 0.119210329
H   H110      1.0  0.15470  0.53800  0.49920  1.0000 0.1286381115
H   H111      1.0  0.01600  0.74010  0.43510  1.0000 0.1286381115
H   H112      1.0  0.03640  0.80200  0.37480  1.0000 0.1109233402
C   C1        1.0  0.05389  0.04147  0.86412  1.0000 0.078117979
C   C2        1.0  0.28900  0.10830  0.90337  1.0000 -0.1881687813
C   C3        1.0  0.12948  0.04770  0.86698  1.0000 -0.1881687813
C   C4        1.0  0.36518  0.11572  0.90772  1.0000 0.078117979
C   C5        1.0  0.64044  0.51039  0.64020  1.0000 0.1496534467
C   C6        1.0  0.63842  0.66392  0.71430  1.0000 0.0601886366
C   C7        1.0  0.18319  0.06023  0.92937  1.0000 0.119210329
C   C8        1.0  0.62591  0.98126  0.86704  1.0000 0.5885351327
C   C9        1.0  0.63704  0.74498  0.75424  1.0000 0.078117979
C   C10       1.0  0.56752  0.19048  0.08117  1.0000 0.5430750575
C   C11       1.0  0.63843  0.39777  0.53006  1.0000 0.1779853728
C   C12       1.0  0.32099  0.03625  0.96571  1.0000 -0.1604400372
C   C13       1.0  0.07842  0.05959  0.97929  1.0000 0.0947321493
C   C14       1.0  0.60050  0.28084  0.76223  1.0000 0.0601886366
C   C15       1.0  0.58248  0.21066  0.84299  1.0000 -0.04762653
C   C16       1.0  0.87774  0.91781  0.80518  1.0000 0.5340520468
C   C17       1.0  0.67923  0.86694  0.78226  1.0000 -0.0900349852
C   C18       1.0  0.61949  0.29651  0.30717  1.0000 0.0601886366
C   C19       1.0  0.88056  0.24966  0.33106  1.0000 0.0601886366
C   C20       1.0  0.57373  0.17334  0.88620  1.0000 0.5885351327
C   C21       1.0  0.26569  0.06799  0.93385  1.0000 0.1004555537
C   C22       1.0  0.88441  0.79145  0.79937  1.0000 -0.1002664229
C   C23       1.0  0.63099  0.39095  0.63993  1.0000 0.1733845499
C   C24       1.0  0.63120  0.89939  0.82882  1.0000 -0.0320950745
C   C25       1.0  0.15627  0.06547  0.98630  1.0000 -0.1795280996
C   C26       1.0  0.61092  0.31856  0.71977  1.0000 0.0490215975
C   C27       1.0  0.82779  0.12840  0.83888  1.0000 0.5988270369
C   C28       1.0  0.60036  0.18531  0.19690  1.0000 -0.1081105258
C   C29       1.0  0.84382  0.09979  0.03051  1.0000 0.5775062468
C   C30       1.0  0.65974  0.29559  0.42440  1.0000 -0.1315728766
C   C31       1.0  0.68226  0.79131  0.74514  1.0000 -0.139256826
C   C32       1.0  0.57703  0.62052  0.70307  1.0000 -0.1315728766
C   C33       1.0  0.59020  0.22786  0.15980  1.0000 -0.0320950745
C   C34       1.0  0.57674  0.54413  0.66564  1.0000 -0.1725357361
C   C35       1.0  0.66495  0.32701  0.49599  1.0000 -0.1881687813
C   C36       1.0  0.59018  0.77810  0.80261  1.0000 -0.139256826
C   C37       1.0  0.87412  0.83624  0.76525  1.0000 -0.0416286916
C   C38       1.0  0.39671  0.04658  0.96846  1.0000 0.1004555537
C   C39       1.0  0.92404  0.15126  0.15109  1.0000 -0.1002664229
C   C40       1.0  0.89552  0.60288  0.65317  1.0000 0.0408440855
C   C41       1.0  0.58438  0.28770  0.64753  1.0000 -0.139256826
C   C42       1.0  0.88616  0.68240  0.69095  1.0000 0.0601886366
C   C43       1.0  0.83870  0.15548  0.78848  1.0000 -0.0416286916
C   C44       1.0  0.60968  0.43732  0.49131  1.0000 -0.1881687813
C   C45       1.0  0.90041  0.32897  0.47641  1.0000 0.1627574254
C   C46       1.0  0.86013  0.21641  0.70147  1.0000 0.078117979
C   C47       1.0  0.64443  0.25873  0.86523  1.0000 -0.0900349852
C   C48       1.0  0.65891  0.42221  0.71259  1.0000 -0.1881687813
C   C49       1.0  0.70301  0.55166  0.65050  1.0000 -0.1725357361
C   C50       1.0  0.61284  0.21976  0.26899  1.0000 -0.1604400372
C   C51       1.0  0.85264  0.13298  0.10850  1.0000 -0.0320950745
C   C52       1.0  0.60701  0.40511  0.41982  1.0000 -0.139256826
C   C53       1.0  0.59631  0.30411  0.19630  1.0000 -0.1002664229
C   C54       1.0  0.62969  0.33358  0.38420  1.0000 0.0490215975
C   C55       1.0  0.79790  0.18579  0.21015  1.0000 -0.139256826
C   C56       1.0  0.58628  0.85353  0.83778  1.0000 -0.1002664229
C   C57       1.0  0.54031  0.23326  0.74159  1.0000 -0.1504895586
C   C58       1.0  0.59329  0.32313  0.60839  1.0000 -0.1881687813
C   C59       1.0  0.83807  0.35094  0.62315  1.0000 -0.1725357361
C   C60       1.0  0.87131  0.72764  0.65584  1.0000 -0.1604400372
C   C61       1.0  0.78837  0.14922  0.13811  1.0000 -0.1002664229
C   C62       1.0  0.70125  0.62704  0.68670  1.0000 -0.139256826
C   C63       1.0  0.86955  0.20696  0.25342  1.0000 0.078117979
C   C64       1.0  0.64912  0.38679  0.75133  1.0000 -0.1315728766
C   C65       1.0  0.78600  0.20145  0.70302  1.0000 -0.1604400372
C   C66       1.0  0.53050  0.19775  0.78141  1.0000 -0.0841469962
C   C67       1.0  0.83957  0.23097  0.36809  1.0000 -0.1315728766
C   C68       1.0  0.89164  0.71713  0.76329  1.0000 -0.1604400372
C   C69       1.0  0.61311  0.33780  0.26866  1.0000 -0.1604400372
C   C70       1.0  0.77560  0.17058  0.74602  1.0000 -0.0900349852
C   C71       1.0  0.65306  0.29353  0.82446  1.0000 -0.1504895586
C   C72       1.0  0.89810  0.33197  0.58836  1.0000 0.1496534467
C   C73       1.0  0.93318  0.18925  0.22322  1.0000 -0.139256826
C   C74       1.0  0.86564  0.80299  0.69225  1.0000 -0.1002664229
C   C75       1.0  0.94170  0.34884  0.43997  1.0000 -0.1795280996
C   C76       1.0  0.87175  0.25490  0.66020  1.0000 0.0490215975
C   C77       1.0  0.84974  0.27046  0.44030  1.0000 -0.1795280996
C   C78       1.0  0.93600  0.56180  0.68667  1.0000 -0.139256826
C   C79       1.0  0.94210  0.48746  0.65274  1.0000 -0.1795280996
C   C80       1.0  0.82525  0.31154  0.65792  1.0000 -0.139256826
C   C81       1.0  0.90688  0.44749  0.58258  1.0000 0.1627574254
C   C82       1.0  0.93148  0.30939  0.36816  1.0000 -0.1315728766
C   C83       1.0  0.91197  0.16739  0.78493  1.0000 -0.0900349852
C   C84       1.0  0.92269  0.19820  0.74203  1.0000 -0.1604400372
C   C85       1.0  0.86270  0.56271  0.58232  1.0000 -0.139256826
C   C86       1.0  0.86830  0.48689  0.54821  1.0000 -0.1881687813
C   C87       1.0  0.94420  0.27380  0.58890  1.0000 -0.1725357361
C   C88       1.0  0.93160  0.23650  0.62463  1.0000 -0.1315728766
C   C89       1.0  0.94611  0.95853  0.13588  1.0000 0.078117979
C   C90       1.0  0.71100  0.89170  0.09663  1.0000 -0.1881687813
C   C91       1.0  0.87052  0.95230  0.13302  1.0000 -0.1881687813
C   C92       1.0  0.63482  0.88428  0.09228  1.0000 0.078117979
C   C93       1.0  0.35956  0.48961  0.35980  1.0000 0.1496534467
C   C94       1.0  0.36158  0.33608  0.28570  1.0000 0.0601886366
C   C95       1.0  0.81681  0.93977  0.07063  1.0000 0.119210329
C   C96       1.0  0.37409  0.01874  0.13296  1.0000 0.5885351327
C   C97       1.0  0.36296  0.25502  0.24576  1.0000 0.078117979
C   C98       1.0  0.43248  0.80952  0.91883  1.0000 0.5430750575
C   C99       1.0  0.36157  0.60223  0.46994  1.0000 0.1779853728
C   C100      1.0  0.67901  0.96375  0.03429  1.0000 -0.1604400372
C   C101      1.0  0.92158  0.94041  0.02071  1.0000 0.0947321493
C   C102      1.0  0.39950  0.71916  0.23777  1.0000 0.0601886366
C   C103      1.0  0.41752  0.78934  0.15701  1.0000 -0.04762653
C   C104      1.0  0.12226  0.08219  0.19482  1.0000 0.5340520468
C   C105      1.0  0.32077  0.13306  0.21774  1.0000 -0.0900349852
C   C106      1.0  0.38051  0.70349  0.69283  1.0000 0.0601886366
C   C107      1.0  0.11944  0.75034  0.66894  1.0000 0.0601886366
C   C108      1.0  0.42627  0.82666  0.11380  1.0000 0.5885351327
C   C109      1.0  0.73431  0.93201  0.06615  1.0000 0.1004555537
C   C110      1.0  0.11559  0.20855  0.20063  1.0000 -0.1002664229
C   C111      1.0  0.36901  0.60905  0.36007  1.0000 0.1733845499
C   C112      1.0  0.36880  0.10061  0.17118  1.0000 -0.0320950745
C   C113      1.0  0.84373  0.93453  0.01370  1.0000 -0.1795280996
C   C114      1.0  0.38908  0.68144  0.28023  1.0000 0.0490215975
C   C115      1.0  0.17221  0.87160  0.16112  1.0000 0.5988270369
C   C116      1.0  0.39964  0.81469  0.80310  1.0000 -0.1081105258
C   C117      1.0  0.15618  0.90021  0.96949  1.0000 0.5775062468
C   C118      1.0  0.34026  0.70441  0.57560  1.0000 -0.1315728766
C   C119      1.0  0.31774  0.20869  0.25486  1.0000 -0.139256826
C   C120      1.0  0.42297  0.37948  0.29693  1.0000 -0.1315728766
C   C121      1.0  0.40980  0.77214  0.84020  1.0000 -0.0320950745
C   C122      1.0  0.42326  0.45587  0.33436  1.0000 -0.1795280996
C   C123      1.0  0.33505  0.67299  0.50401  1.0000 -0.1881687813
C   C124      1.0  0.40982  0.22190  0.19739  1.0000 -0.139256826
C   C125      1.0  0.12588  0.16376  0.23475  1.0000 -0.0416286916
C   C126      1.0  0.60329  0.95342  0.03154  1.0000 0.1004555537
C   C127      1.0  0.07596  0.84874  0.84891  1.0000 -0.1002664229
C   C128      1.0  0.10448  0.39712  0.34683  1.0000 0.0408440855
C   C129      1.0  0.41562  0.71230  0.35247  1.0000 -0.139256826
C   C130      1.0  0.11384  0.31760  0.30905  1.0000 0.0601886366
C   C131      1.0  0.16130  0.84452  0.21152  1.0000 -0.0416286916
C   C132      1.0  0.39032  0.56268  0.50869  1.0000 -0.1881687813
C   C133      1.0  0.09959  0.67103  0.52359  1.0000 0.1627574254
C   C134      1.0  0.13987  0.78359  0.29853  1.0000 0.078117979
C   C135      1.0  0.35557  0.74127  0.13477  1.0000 -0.0900349852
C   C136      1.0  0.34109  0.57779  0.28741  1.0000 -0.1881687813
C   C137      1.0  0.29699  0.44834  0.34950  1.0000 -0.1725357361
C   C138      1.0  0.38716  0.78024  0.73101  1.0000 -0.1604400372
C   C139      1.0  0.14736  0.86702  0.89150  1.0000 -0.0320950745
C   C140      1.0  0.39299  0.59489  0.58018  1.0000 -0.139256826
C   C141      1.0  0.40369  0.69589  0.80370  1.0000 -0.1002664229
C   C142      1.0  0.37031  0.66642  0.61580  1.0000 0.0490215975
C   C143      1.0  0.20210  0.81421  0.78985  1.0000 -0.139256826
C   C144      1.0  0.41372  0.14647  0.16222  1.0000 -0.1002664229
C   C145      1.0  0.45969  0.76674  0.25841  1.0000 -0.1504895586
C   C146      1.0  0.40671  0.67687  0.39161  1.0000 -0.1881687813
C   C147      1.0  0.16193  0.64906  0.37685  1.0000 -0.1725357361
C   C148      1.0  0.12869  0.27236  0.34416  1.0000 -0.1604400372
C   C149      1.0  0.21163  0.85078  0.86189  1.0000 -0.1002664229
C   C150      1.0  0.29875  0.37296  0.31330  1.0000 -0.139256826
C   C151      1.0  0.13045  0.79304  0.74658  1.0000 0.078117979
C   C152      1.0  0.35088  0.61321  0.24867  1.0000 -0.139256826
C   C153      1.0  0.21400  0.79855  0.29698  1.0000 -0.1604400372
C   C154      1.0  0.46950  0.80225  0.21859  1.0000 -0.0841469962
C   C155      1.0  0.16043  0.76903  0.63191  1.0000 -0.1315728766
C   C156      1.0  0.10836  0.28287  0.23671  1.0000 -0.1604400372
C   C157      1.0  0.38689  0.66220  0.73134  1.0000 -0.1604400372
C   C158      1.0  0.22440  0.82942  0.25398  1.0000 -0.0900349852
C   C159      1.0  0.34694  0.70647  0.17554  1.0000 -0.1504895586
C   C160      1.0  0.10190  0.66803  0.41164  1.0000 0.1496534467
C   C161      1.0  0.06682  0.81075  0.77678  1.0000 -0.139256826
C   C162      1.0  0.13436  0.19701  0.30775  1.0000 -0.1002664229
C   C163      1.0  0.05830  0.65116  0.56003  1.0000 -0.1795280996
C   C164      1.0  0.12825  0.74510  0.33980  1.0000 0.0490215975
C   C165      1.0  0.15026  0.72954  0.55970  1.0000 -0.1795280996
C   C166      1.0  0.06400  0.43820  0.31333  1.0000 -0.139256826
C   C167      1.0  0.05790  0.51254  0.34726  1.0000 -0.1795280996
C   C168      1.0  0.17475  0.68846  0.34208  1.0000 -0.139256826
C   C169      1.0  0.09312  0.55251  0.41742  1.0000 0.1627574254
C   C170      1.0  0.06852  0.69061  0.63184  1.0000 -0.1315728766
C   C171      1.0  0.08803  0.83261  0.21507  1.0000 -0.0900349852
C   C172      1.0  0.07731  0.80180  0.25797  1.0000 -0.1604400372
C   C173      1.0  0.13730  0.43729  0.41768  1.0000 -0.139256826
C   C174      1.0  0.13170  0.51311  0.45179  1.0000 -0.1881687813
C   C175      1.0  0.05580  0.72620  0.41110  1.0000 -0.1725357361
C   C176      1.0  0.06840  0.76350  0.37537  1.0000 -0.1315728766
N   N1        1.0  0.42019  0.08577  0.94077  1.0000 -0.2249438438
N   N2        1.0  0.02708  0.04860  0.91965  1.0000 -0.238316578
N   N3        1.0  0.64114  0.43092  0.60309  1.0000 -0.1881687813
N   N4        1.0  0.91093  0.37028  0.55072  1.0000 -0.1604400372
N   N5        1.0  0.57981  0.91423  0.05923  1.0000 -0.2249438438
N   N6        1.0  0.97292  0.95140  0.08035  1.0000 -0.238316578
N   N7        1.0  0.35886  0.56908  0.39691  1.0000 -0.1795280996
N   N8        1.0  0.08907  0.62972  0.44928  1.0000 -0.1604400372
O   O1        1.0  0.76140  0.11601  0.83994  1.0000 -0.5219024096
O   O2        1.0  0.90553  0.09053  0.00920  1.0000 -0.5407733858
O   O3        1.0  0.57558  0.00604  0.90271  1.0000 -0.5407733858
O   O4        1.0  0.77831  0.08351  0.99188  1.0000 -0.550119904
O   O5        1.0  0.67226  0.01884  0.85904  1.0000 -0.5407733858
O   O6        1.0  0.62870  0.17091  0.93291  1.0000 -0.5560269926
O   O7        1.0  0.87902  0.94418  0.87127  1.0000 -0.5560269926
O   O8        1.0  0.50999  0.14549  0.87666  1.0000 -0.5074146662
O   O9        1.0  0.57841  0.12253  0.04951  1.0000 -0.5407733858
O   O10       1.0  0.88740  0.12174  0.87889  1.0000 -0.5407733858
O   O11       1.0  0.88394  0.95708  0.77672  1.0000 -0.5219024096
O   O12       1.0  0.53913  0.22803  0.04894  1.0000 -0.5298844848
O   O13       1.0  0.23860  0.88399  0.16006  1.0000 -0.5219024096
O   O14       1.0  0.09447  0.90947  0.99080  1.0000 -0.5407733858
O   O15       1.0  0.42442  0.99396  0.09729  1.0000 -0.5407733858
O   O16       1.0  0.22169  0.91649  0.00812  1.0000 -0.550119904
O   O17       1.0  0.32774  0.98116  0.14096  1.0000 -0.5407733858
O   O18       1.0  0.37130  0.82909  0.06709  1.0000 -0.5560269926
O   O19       1.0  0.12098  0.05582  0.12873  1.0000 -0.5560269926
O   O20       1.0  0.49001  0.85451  0.12334  1.0000 -0.5074146662
O   O21       1.0  0.42159  0.87747  0.95049  1.0000 -0.5407733858
O   O22       1.0  0.11260  0.87826  0.12111  1.0000 -0.550119904
O   O23       1.0  0.11606  0.04292  0.22328  1.0000 -0.5219024096
O   O24       1.0  0.46087  0.77197  0.95106  1.0000 -0.5298844848
