# DDEC6 charges by PACMAN v1.1 (https://github.com/mtap-research/PACMAN-charge/)
data_2015[La][nan]3[ASR]10
_chemical_formula_sum              "La3 H36 C63 N3 O18"
_cell_length_a       14.614
_cell_length_b       14.614
_cell_length_c       14.614
_cell_angle_alpha    111.586
_cell_angle_beta     111.586
_cell_angle_gamma    111.586

_symmetry_space_group_name_H-M    "P 1"
_symmetry_Int_Tables_number       1

loop_
  _symmetry_equiv_pos_as_xyz
  'x, y, z'

loop_
  _atom_site_type_symbol
  _atom_site_label
  _atom_site_symmetry_multiplicity
  _atom_site_fract_x
  _atom_site_fract_y
  _atom_site_fract_z
  _atom_site_occupancy
  _atom_site_charge
La  La1       1.0  0.68472  0.00000  0.31528  1.0000 1.8773143248
La  La2       1.0  0.00000  0.31528  0.68472  1.0000 1.8773143248
La  La3       1.0  0.31528  0.68472  0.00000  1.0000 1.8773143248
H   H1        1.0  0.83850  0.67160  0.16280  1.0000 0.1279836883
H   H2        1.0  0.67160  0.16280  0.83850  1.0000 0.1279836883
H   H3        1.0  0.16280  0.83850  0.67160  1.0000 0.1279836883
H   H4        1.0  0.16150  0.83720  0.32840  1.0000 0.1279836883
H   H5        1.0  0.32840  0.16150  0.83720  1.0000 0.1279836883
H   H6        1.0  0.83720  0.32840  0.16150  1.0000 0.1279836883
H   H7        1.0  0.72510  0.74900  0.14450  1.0000 0.1279836883
H   H8        1.0  0.74900  0.14450  0.72510  1.0000 0.1279836883
H   H9        1.0  0.14450  0.72510  0.74900  1.0000 0.1279836883
H   H10       1.0  0.27490  0.85550  0.25100  1.0000 0.1279836883
H   H11       1.0  0.25100  0.27490  0.85550  1.0000 0.1279836883
H   H12       1.0  0.85550  0.25100  0.27490  1.0000 0.1279836883
H   H13       1.0  0.50350  0.51200  0.16930  1.0000 0.1279836883
H   H14       1.0  0.51200  0.16930  0.50350  1.0000 0.1279836883
H   H15       1.0  0.16930  0.50350  0.51200  1.0000 0.1279836883
H   H16       1.0  0.49650  0.83070  0.48800  1.0000 0.1279836883
H   H17       1.0  0.48800  0.49650  0.83070  1.0000 0.1279836883
H   H18       1.0  0.83070  0.48800  0.49650  1.0000 0.1279836883
H   H19       1.0  0.61690  0.43460  0.18760  1.0000 0.1179163953
H   H20       1.0  0.43460  0.18760  0.61690  1.0000 0.1179163953
H   H21       1.0  0.18760  0.61690  0.43460  1.0000 0.1179163953
H   H22       1.0  0.38310  0.81240  0.56540  1.0000 0.1179163953
H   H23       1.0  0.56540  0.38310  0.81240  1.0000 0.1179163953
H   H24       1.0  0.81240  0.56540  0.38310  1.0000 0.1179163953
H   H25       1.0  0.72550  0.42930  0.96610  1.0000 0.1138375209
H   H26       1.0  0.42930  0.96610  0.72550  1.0000 0.1138375209
H   H27       1.0  0.96610  0.72550  0.42930  1.0000 0.1138375209
H   H28       1.0  0.27450  0.03390  0.57070  1.0000 0.1138375209
H   H29       1.0  0.57070  0.27450  0.03390  1.0000 0.1138375209
H   H30       1.0  0.03390  0.57070  0.27450  1.0000 0.1138375209
H   H31       1.0  0.81840  0.42110  0.87000  1.0000 0.1179163953
H   H32       1.0  0.42110  0.87000  0.81840  1.0000 0.1179163953
H   H33       1.0  0.87000  0.81840  0.42110  1.0000 0.1179163953
H   H34       1.0  0.18160  0.13000  0.57890  1.0000 0.1179163953
H   H35       1.0  0.57890  0.18160  0.13000  1.0000 0.1179163953
H   H36       1.0  0.13000  0.57890  0.18160  1.0000 0.1179163953
C   C1        1.0  0.73900  0.54540  0.17700  1.0000 0.1724222706
C   C2        1.0  0.54540  0.17700  0.73900  1.0000 0.1724222706
C   C3        1.0  0.17700  0.73900  0.54540  1.0000 0.1724222706
C   C4        1.0  0.26100  0.82300  0.45460  1.0000 0.1724222706
C   C5        1.0  0.45460  0.26100  0.82300  1.0000 0.1724222706
C   C6        1.0  0.82300  0.45460  0.26100  1.0000 0.1724222706
C   C7        1.0  0.77140  0.63960  0.16410  1.0000 -0.1994427079
C   C8        1.0  0.63960  0.16410  0.77140  1.0000 -0.1994427079
C   C9        1.0  0.16410  0.77140  0.63960  1.0000 -0.1994427079
C   C10       1.0  0.22860  0.83590  0.36040  1.0000 -0.1994427079
C   C11       1.0  0.36040  0.22860  0.83590  1.0000 -0.1994427079
C   C12       1.0  0.83590  0.36040  0.22860  1.0000 -0.1994427079
C   C13       1.0  0.70340  0.68590  0.15310  1.0000 -0.0815097083
C   C14       1.0  0.68590  0.15310  0.70340  1.0000 -0.0815097083
C   C15       1.0  0.15310  0.70340  0.68590  1.0000 -0.0815097083
C   C16       1.0  0.29660  0.84690  0.31410  1.0000 -0.0815097083
C   C17       1.0  0.31410  0.29660  0.84690  1.0000 -0.0815097083
C   C18       1.0  0.84690  0.31410  0.29660  1.0000 -0.0815097083
C   C19       1.0  0.60300  0.63820  0.15510  1.0000 -0.0335364183
C   C20       1.0  0.63820  0.15510  0.60300  1.0000 -0.0335364183
C   C21       1.0  0.15510  0.60300  0.63820  1.0000 -0.0335364183
C   C22       1.0  0.39700  0.84490  0.36180  1.0000 -0.0335364183
C   C23       1.0  0.36180  0.39700  0.84490  1.0000 -0.0335364183
C   C24       1.0  0.84490  0.36180  0.39700  1.0000 -0.0335364183
C   C25       1.0  0.57060  0.54400  0.16800  1.0000 -0.0815097083
C   C26       1.0  0.54400  0.16800  0.57060  1.0000 -0.0815097083
C   C27       1.0  0.16800  0.57060  0.54400  1.0000 -0.0815097083
C   C28       1.0  0.42940  0.83200  0.45600  1.0000 -0.0815097083
C   C29       1.0  0.45600  0.42940  0.83200  1.0000 -0.0815097083
C   C30       1.0  0.83200  0.45600  0.42940  1.0000 -0.0815097083
C   C31       1.0  0.63867  0.49763  0.17900  1.0000 -0.2065884862
C   C32       1.0  0.49763  0.17900  0.63867  1.0000 -0.2065884862
C   C33       1.0  0.17900  0.63867  0.49763  1.0000 -0.2065884862
C   C34       1.0  0.36133  0.82100  0.50237  1.0000 -0.2065884862
C   C35       1.0  0.50237  0.36133  0.82100  1.0000 -0.2065884862
C   C36       1.0  0.82100  0.50237  0.36133  1.0000 -0.2065884862
C   C37       1.0  0.52780  0.68690  0.14530  1.0000 0.581033911
C   C38       1.0  0.68690  0.14530  0.52780  1.0000 0.581033911
C   C39       1.0  0.14530  0.52780  0.68690  1.0000 0.581033911
C   C40       1.0  0.47220  0.85470  0.31310  1.0000 0.581033911
C   C41       1.0  0.31310  0.47220  0.85470  1.0000 0.581033911
C   C42       1.0  0.85470  0.31310  0.47220  1.0000 0.581033911
C   C43       1.0  0.86755  0.50000  0.13245  1.0000 0.1787198789
C   C44       1.0  0.50000  0.13245  0.86755  1.0000 0.1787198789
C   C45       1.0  0.13245  0.86755  0.50000  1.0000 0.1787198789
C   C46       1.0  0.80600  0.45670  0.00940  1.0000 -0.1946686549
C   C47       1.0  0.45670  0.00940  0.80600  1.0000 -0.1994427079
C   C48       1.0  0.00940  0.80600  0.45670  1.0000 -0.1994427079
C   C49       1.0  0.19400  0.99060  0.54330  1.0000 -0.1994427079
C   C50       1.0  0.54330  0.19400  0.99060  1.0000 -0.1994427079
C   C51       1.0  0.99060  0.54330  0.19400  1.0000 -0.1994427079
C   C52       1.0  0.86250  0.45400  0.95200  1.0000 -0.0815097083
C   C53       1.0  0.45400  0.95200  0.86250  1.0000 -0.0815097083
C   C54       1.0  0.95200  0.86250  0.45400  1.0000 -0.0815097083
C   C55       1.0  0.13750  0.04800  0.54600  1.0000 -0.0815097083
C   C56       1.0  0.54600  0.13750  0.04800  1.0000 -0.0815097083
C   C57       1.0  0.04800  0.54600  0.13750  1.0000 -0.0815097083
C   C58       1.0  0.98475  0.50000  0.01525  1.0000 -0.0559272039
C   C59       1.0  0.50000  0.01525  0.98475  1.0000 -0.0559272039
C   C60       1.0  0.01525  0.98475  0.50000  1.0000 -0.0559272039
C   C61       1.0  0.04635  0.50000  0.95365  1.0000 0.6128903584
C   C62       1.0  0.50000  0.95365  0.04635  1.0000 0.6128903584
C   C63       1.0  0.95365  0.04635  0.50000  1.0000 0.6128903584
N   N1        1.0  0.80885  0.50000  0.19115  1.0000 -0.1664621824
N   N2        1.0  0.50000  0.19115  0.80885  1.0000 -0.1664621824
N   N3        1.0  0.19115  0.80885  0.50000  1.0000 -0.1664621824
O   O1        1.0  0.42680  0.62690  0.11970  1.0000 -0.5239772542
O   O2        1.0  0.62690  0.11970  0.42680  1.0000 -0.5239772542
O   O3        1.0  0.11970  0.42680  0.62690  1.0000 -0.5239772542
O   O4        1.0  0.57320  0.88030  0.37310  1.0000 -0.5239772542
O   O5        1.0  0.37310  0.57320  0.88030  1.0000 -0.5239772542
O   O6        1.0  0.88030  0.37310  0.57320  1.0000 -0.5239772542
O   O7        1.0  0.56540  0.78140  0.14400  1.0000 -0.6854105039
O   O8        1.0  0.78140  0.14400  0.56540  1.0000 -0.6854105039
O   O9        1.0  0.14400  0.56540  0.78140  1.0000 -0.6854105039
O   O10       1.0  0.43460  0.85600  0.21860  1.0000 -0.6846827312
O   O11       1.0  0.21860  0.43460  0.85600  1.0000 -0.6846827312
O   O12       1.0  0.85600  0.21860  0.43460  1.0000 -0.6846827312
O   O13       1.0  0.15910  0.57090  0.01700  1.0000 -0.6185775045
O   O14       1.0  0.57090  0.01700  0.15910  1.0000 -0.6185775045
O   O15       1.0  0.01700  0.15910  0.57090  1.0000 -0.6185775045
O   O16       1.0  0.84090  0.98300  0.42910  1.0000 -0.6185775045
O   O17       1.0  0.42910  0.84090  0.98300  1.0000 -0.6185775045
O   O18       1.0  0.98300  0.42910  0.84090  1.0000 -0.6185775045
