# DDEC6 charges by PACMAN v1.1 (https://github.com/mtap-research/PACMAN-charge/)
data_2015[La][nan]3[ASR]11
_chemical_formula_sum              "La3 H45 C78 N3 O18"
_cell_length_a       16.901
_cell_length_b       16.901
_cell_length_c       16.901
_cell_angle_alpha    113.821
_cell_angle_beta     113.821
_cell_angle_gamma    113.821

_symmetry_space_group_name_H-M    "P 1"
_symmetry_Int_Tables_number       1

loop_
  _symmetry_equiv_pos_as_xyz
  'x, y, z'

loop_
  _atom_site_type_symbol
  _atom_site_label
  _atom_site_symmetry_multiplicity
  _atom_site_fract_x
  _atom_site_fract_y
  _atom_site_fract_z
  _atom_site_occupancy
  _atom_site_charge
La  La1       1.0  0.67755  0.32245  0.00000  1.0000 1.7606720558
La  La2       1.0  0.32245  0.00000  0.67755  1.0000 1.7606720558
La  La3       1.0  0.00000  0.67755  0.32245  1.0000 1.7606720558
H   H1        1.0  0.12340  0.53359  0.14073  1.0000 0.0998723351
H   H2        1.0  0.53359  0.14073  0.12340  1.0000 0.0998723351
H   H3        1.0  0.14073  0.12340  0.53359  1.0000 0.0998723351
H   H4        1.0  0.87660  0.85927  0.46641  1.0000 0.0998723351
H   H5        1.0  0.46641  0.87660  0.85927  1.0000 0.0998723351
H   H6        1.0  0.85927  0.46641  0.87660  1.0000 0.0998723351
H   H7        1.0  0.20709  0.53359  0.05704  1.0000 0.0998723351
H   H8        1.0  0.53359  0.05704  0.20709  1.0000 0.0998723351
H   H9        1.0  0.05704  0.20709  0.53359  1.0000 0.0998723351
H   H10       1.0  0.79291  0.94296  0.46641  1.0000 0.0998723351
H   H11       1.0  0.46641  0.79291  0.94296  1.0000 0.0998723351
H   H12       1.0  0.94296  0.46641  0.79291  1.0000 0.0998723351
H   H13       1.0  0.17677  0.41165  0.89748  1.0000 0.1264413104
H   H14       1.0  0.41165  0.89748  0.17677  1.0000 0.1264413104
H   H15       1.0  0.89748  0.17677  0.41165  1.0000 0.1264413104
H   H16       1.0  0.82323  0.10252  0.58835  1.0000 0.1264413104
H   H17       1.0  0.58835  0.82323  0.10252  1.0000 0.1264413104
H   H18       1.0  0.10252  0.58835  0.82323  1.0000 0.1264413104
H   H19       1.0  0.26517  0.50000  0.73483  1.0000 0.2595953376
H   H20       1.0  0.50000  0.73483  0.26517  1.0000 0.2595953376
H   H21       1.0  0.73483  0.26517  0.50000  1.0000 0.2595953376
H   H22       1.0  0.33546  0.43909  0.97010  1.0000 0.1104519398
H   H23       1.0  0.43909  0.97010  0.33546  1.0000 0.1104519398
H   H24       1.0  0.97010  0.33546  0.43909  1.0000 0.1104519398
H   H25       1.0  0.66454  0.02990  0.56091  1.0000 0.1104519398
H   H26       1.0  0.56091  0.66454  0.02990  1.0000 0.1104519398
H   H27       1.0  0.02990  0.56091  0.66454  1.0000 0.1104519398
H   H28       1.0  0.41444  0.35075  0.96539  1.0000 0.1264413104
H   H29       1.0  0.35075  0.96539  0.41444  1.0000 0.1264413104
H   H30       1.0  0.96539  0.41444  0.35075  1.0000 0.1264413104
H   H31       1.0  0.58556  0.03461  0.64925  1.0000 0.1264413104
H   H32       1.0  0.64925  0.58556  0.03461  1.0000 0.1264413104
H   H33       1.0  0.03461  0.64925  0.58556  1.0000 0.1264413104
H   H34       1.0  0.30742  0.24780  0.65024  1.0000 0.1175393269
H   H35       1.0  0.24780  0.65024  0.30742  1.0000 0.1175393269
H   H36       1.0  0.65024  0.30742  0.24780  1.0000 0.1175393269
H   H37       1.0  0.69258  0.34976  0.75220  1.0000 0.1175393269
H   H38       1.0  0.75220  0.69258  0.34976  1.0000 0.1175393269
H   H39       1.0  0.34976  0.75220  0.69258  1.0000 0.1175393269
H   H40       1.0  0.22845  0.33614  0.65494  1.0000 0.0998723351
H   H41       1.0  0.33614  0.65494  0.22845  1.0000 0.0998723351
H   H42       1.0  0.65494  0.22845  0.33614  1.0000 0.0998723351
H   H43       1.0  0.77155  0.34506  0.66386  1.0000 0.0998723351
H   H44       1.0  0.66386  0.77155  0.34506  1.0000 0.0998723351
H   H45       1.0  0.34506  0.66386  0.77155  1.0000 0.0998723351
C   C1        1.0  0.93290  0.50000  0.06710  1.0000 0.5917694401
C   C2        1.0  0.50000  0.06710  0.93290  1.0000 0.5917694401
C   C3        1.0  0.06710  0.93290  0.50000  1.0000 0.5917694401
C   C4        1.0  0.98481  0.50000  0.01519  1.0000 -0.0483345074
C   C5        1.0  0.50000  0.01519  0.98481  1.0000 -0.0483345074
C   C6        1.0  0.01519  0.98481  0.50000  1.0000 -0.0483345074
C   C7        1.0  0.08533  0.51941  0.06734  1.0000 -0.0970231637
C   C8        1.0  0.51941  0.06734  0.08533  1.0000 -0.0970231637
C   C9        1.0  0.06734  0.08533  0.51941  1.0000 -0.0970231637
C   C10       1.0  0.91467  0.93266  0.48059  1.0000 -0.0970231637
C   C11       1.0  0.48059  0.91467  0.93266  1.0000 -0.0970231637
C   C12       1.0  0.93266  0.48059  0.91467  1.0000 -0.0970231637
C   C13       1.0  0.13370  0.51941  0.01897  1.0000 -0.1607655438
C   C14       1.0  0.51941  0.01897  0.13370  1.0000 -0.1607655438
C   C15       1.0  0.01897  0.13370  0.51941  1.0000 -0.1607655438
C   C16       1.0  0.86630  0.98103  0.48059  1.0000 -0.1607655438
C   C17       1.0  0.48059  0.86630  0.98103  1.0000 -0.1607655438
C   C18       1.0  0.98103  0.48059  0.86630  1.0000 -0.1607655438
C   C19       1.0  0.08156  0.50000  0.91844  1.0000 0.077988799
C   C20       1.0  0.50000  0.91844  0.08156  1.0000 0.077988799
C   C21       1.0  0.91844  0.08156  0.50000  1.0000 0.077988799
C   C22       1.0  0.13311  0.50000  0.86689  1.0000 0.1104519398
C   C23       1.0  0.50000  0.86689  0.13311  1.0000 0.1104519398
C   C24       1.0  0.86689  0.13311  0.50000  1.0000 0.1104519398
C   C25       1.0  0.17875  0.44894  0.86418  1.0000 -0.2628496756
C   C26       1.0  0.44894  0.86418  0.17875  1.0000 -0.2628496756
C   C27       1.0  0.86418  0.17875  0.44894  1.0000 -0.2628496756
C   C28       1.0  0.82125  0.13582  0.55106  1.0000 -0.2628496756
C   C29       1.0  0.55106  0.82125  0.13582  1.0000 -0.2628496756
C   C30       1.0  0.13582  0.55106  0.82125  1.0000 -0.2628496756
C   C31       1.0  0.22714  0.44894  0.81579  1.0000 0.1721699665
C   C32       1.0  0.44894  0.81579  0.22714  1.0000 0.1721699665
C   C33       1.0  0.81579  0.22714  0.44894  1.0000 0.1721699665
C   C34       1.0  0.77286  0.18421  0.55106  1.0000 0.1721699665
C   C35       1.0  0.55106  0.77286  0.18421  1.0000 0.1721699665
C   C36       1.0  0.18421  0.55106  0.77286  1.0000 0.1721699665
C   C37       1.0  0.27579  0.39452  0.81289  1.0000 0.0347981285
C   C38       1.0  0.39452  0.81289  0.27579  1.0000 0.0347981285
C   C39       1.0  0.81289  0.27579  0.39452  1.0000 0.0347981285
C   C40       1.0  0.72421  0.18711  0.60548  1.0000 0.0347981285
C   C41       1.0  0.60548  0.72421  0.18711  1.0000 0.0347981285
C   C42       1.0  0.18711  0.60548  0.72421  1.0000 0.0347981285
C   C43       1.0  0.32954  0.39873  0.90262  1.0000 -0.1607655438
C   C44       1.0  0.39873  0.90262  0.32954  1.0000 -0.1607655438
C   C45       1.0  0.90262  0.32954  0.39873  1.0000 -0.1607655438
C   C46       1.0  0.67046  0.09738  0.60127  1.0000 -0.1607655438
C   C47       1.0  0.60127  0.67046  0.09738  1.0000 -0.1607655438
C   C48       1.0  0.09738  0.60127  0.67046  1.0000 -0.1607655438
C   C49       1.0  0.37519  0.34767  0.89990  1.0000 -0.0902107477
C   C50       1.0  0.34767  0.89990  0.37519  1.0000 -0.0902107477
C   C51       1.0  0.89990  0.37519  0.34767  1.0000 -0.0902107477
C   C52       1.0  0.62481  0.10010  0.65233  1.0000 -0.0902107477
C   C53       1.0  0.65233  0.62481  0.10010  1.0000 -0.0902107477
C   C54       1.0  0.10010  0.65233  0.62481  1.0000 -0.0902107477
C   C55       1.0  0.36709  0.29238  0.80744  1.0000 -0.0375288539
C   C56       1.0  0.29238  0.80744  0.36709  1.0000 -0.0375288539
C   C57       1.0  0.80744  0.36709  0.29238  1.0000 -0.0375288539
C   C58       1.0  0.63291  0.19256  0.70762  1.0000 -0.0375288539
C   C59       1.0  0.70762  0.63291  0.19256  1.0000 -0.0375288539
C   C60       1.0  0.19256  0.70762  0.63291  1.0000 -0.0375288539
C   C61       1.0  0.31334  0.28816  0.71772  1.0000 -0.0902107477
C   C62       1.0  0.28816  0.71772  0.31334  1.0000 -0.0902107477
C   C63       1.0  0.71772  0.31334  0.28816  1.0000 -0.0902107477
C   C64       1.0  0.68666  0.28228  0.71184  1.0000 -0.0902107477
C   C65       1.0  0.71184  0.68666  0.28228  1.0000 -0.0902107477
C   C66       1.0  0.28228  0.71184  0.68666  1.0000 -0.0902107477
C   C67       1.0  0.26768  0.33923  0.72044  1.0000 -0.1607655438
C   C68       1.0  0.33923  0.72044  0.26768  1.0000 -0.1607655438
C   C69       1.0  0.72044  0.26768  0.33923  1.0000 -0.1607655438
C   C70       1.0  0.73232  0.27956  0.66077  1.0000 -0.1607655438
C   C71       1.0  0.66077  0.73232  0.27956  1.0000 -0.1607655438
C   C72       1.0  0.27956  0.66077  0.73232  1.0000 -0.1607655438
C   C73       1.0  0.41607  0.23759  0.80452  1.0000 0.5410773288
C   C74       1.0  0.23759  0.80452  0.41607  1.0000 0.5410773288
C   C75       1.0  0.80452  0.41607  0.23759  1.0000 0.5410773288
C   C76       1.0  0.58393  0.19548  0.76241  1.0000 0.5410773288
C   C77       1.0  0.76241  0.58393  0.19548  1.0000 0.5410773288
C   C78       1.0  0.19548  0.76241  0.58393  1.0000 0.5410773288
N   N1        1.0  0.22986  0.50000  0.77014  1.0000 -0.3033667773
N   N2        1.0  0.50000  0.77014  0.22986  1.0000 -0.3033667773
N   N3        1.0  0.77014  0.22986  0.50000  1.0000 -0.3033667773
O   O1        1.0  0.99616  0.55561  0.17449  1.0000 -0.6062078445
O   O2        1.0  0.55561  0.17449  0.99616  1.0000 -0.6062078445
O   O3        1.0  0.17449  0.99616  0.55561  1.0000 -0.6062078445
O   O4        1.0  0.00384  0.82551  0.44439  1.0000 -0.6062078445
O   O5        1.0  0.44439  0.00384  0.82551  1.0000 -0.6062078445
O   O6        1.0  0.82551  0.44439  0.00384  1.0000 -0.6062078445
O   O7        1.0  0.46443  0.24005  0.88687  1.0000 -0.6062078445
O   O8        1.0  0.24005  0.88687  0.46443  1.0000 -0.6062078445
O   O9        1.0  0.88687  0.46443  0.24005  1.0000 -0.6062078445
O   O10       1.0  0.53557  0.11313  0.75995  1.0000 -0.6062078445
O   O11       1.0  0.75995  0.53557  0.11313  1.0000 -0.6062078445
O   O12       1.0  0.11313  0.75995  0.53557  1.0000 -0.6062078445
O   O13       1.0  0.41005  0.18780  0.71966  1.0000 -0.4803889513
O   O14       1.0  0.18780  0.71966  0.41005  1.0000 -0.4803889513
O   O15       1.0  0.71966  0.41005  0.18780  1.0000 -0.4803889513
O   O16       1.0  0.58995  0.28034  0.81220  1.0000 -0.4803889513
O   O17       1.0  0.81220  0.58995  0.28034  1.0000 -0.4803889513
O   O18       1.0  0.28034  0.81220  0.58995  1.0000 -0.4803889513
