# DDEC6 charges by PACMAN v1.1 (https://github.com/mtap-research/PACMAN-charge/)
data_2015[Cd][nan]3[ASR]29
_chemical_formula_sum              "Cd4 H64 C92 N24 O20"
_cell_length_a       9.812
_cell_length_b       14.283
_cell_length_c       20.8068
_cell_angle_alpha    90
_cell_angle_beta     110.971
_cell_angle_gamma    90

_symmetry_space_group_name_H-M    "P 1"
_symmetry_Int_Tables_number       1

loop_
  _symmetry_equiv_pos_as_xyz
  'x, y, z'

loop_
  _atom_site_type_symbol
  _atom_site_label
  _atom_site_symmetry_multiplicity
  _atom_site_fract_x
  _atom_site_fract_y
  _atom_site_fract_z
  _atom_site_occupancy
  _atom_site_charge
Cd  Cd1       1.0  0.61461  0.24952  0.34863  1.0000 0.8192438703
Cd  Cd2       1.0  0.38539  0.74952  0.15137  1.0000 0.8192438703
Cd  Cd3       1.0  0.38539  0.75048  0.65137  1.0000 0.8192438703
Cd  Cd4       1.0  0.61461  0.25048  0.84863  1.0000 0.8192438703
H   H1        1.0  0.00310  0.00310  0.23160  1.0000 0.1478301768
H   H2        1.0  0.99690  0.50310  0.26840  1.0000 0.1478301768
H   H3        1.0  0.99690  0.99690  0.76840  1.0000 0.1478301768
H   H4        1.0  0.00310  0.49690  0.73160  1.0000 0.1478301768
H   H5        1.0  0.26300  0.98280  0.43080  1.0000 0.1388143174
H   H6        1.0  0.73700  0.48280  0.06920  1.0000 0.1388143174
H   H7        1.0  0.73700  0.01720  0.56920  1.0000 0.1388143174
H   H8        1.0  0.26300  0.51720  0.93080  1.0000 0.1388143174
H   H9        1.0  0.84340  0.90010  0.37020  1.0000 0.1306146018
H   H10       1.0  0.15660  0.40010  0.12980  1.0000 0.1306146018
H   H11       1.0  0.15660  0.09990  0.62980  1.0000 0.1306146018
H   H12       1.0  0.84340  0.59990  0.87020  1.0000 0.1306146018
H   H13       1.0  0.33640  0.14630  0.38040  1.0000 0.1231307831
H   H14       1.0  0.66360  0.64630  0.11960  1.0000 0.1231307831
H   H15       1.0  0.66360  0.85370  0.61960  1.0000 0.1231307831
H   H16       1.0  0.33640  0.35370  0.88040  1.0000 0.1231307831
H   H17       1.0  0.49690  0.05760  0.24490  1.0000 0.1231307831
H   H18       1.0  0.50310  0.55760  0.25510  1.0000 0.1231307831
H   H19       1.0  0.50310  0.94240  0.75510  1.0000 0.1231307831
H   H20       1.0  0.49690  0.44240  0.74490  1.0000 0.1231307831
H   H21       1.0  0.28780  0.95770  0.23520  1.0000 0.1388143174
H   H22       1.0  0.71220  0.45770  0.26480  1.0000 0.1388143174
H   H23       1.0  0.71220  0.04230  0.76480  1.0000 0.1388143174
H   H24       1.0  0.28780  0.54230  0.73520  1.0000 0.1388143174
H   H25       1.0  0.29620  0.92450  0.53020  1.0000 0.1112461522
H   H26       1.0  0.70380  0.42450  0.96980  1.0000 0.1112461522
H   H27       1.0  0.70380  0.07550  0.46980  1.0000 0.1112461522
H   H28       1.0  0.29620  0.57550  0.03020  1.0000 0.1112461522
H   H29       1.0  0.01120  0.81010  0.59750  1.0000 0.1306146018
H   H30       1.0  0.98880  0.31010  0.90250  1.0000 0.1306146018
H   H31       1.0  0.98880  0.18990  0.40250  1.0000 0.1306146018
H   H32       1.0  0.01120  0.68990  0.09750  1.0000 0.1306146018
H   H33       1.0  0.87880  0.85790  0.47880  1.0000 0.1306146018
H   H34       1.0  0.12120  0.35790  0.02120  1.0000 0.1306146018
H   H35       1.0  0.12120  0.14210  0.52120  1.0000 0.1306146018
H   H36       1.0  0.87880  0.64210  0.97880  1.0000 0.1306146018
H   H37       1.0  0.68790  0.81840  0.27180  1.0000 0.1112461522
H   H38       1.0  0.31210  0.31840  0.22820  1.0000 0.1112461522
H   H39       1.0  0.31210  0.18160  0.72820  1.0000 0.1112461522
H   H40       1.0  0.68790  0.68160  0.77180  1.0000 0.1112461522
H   H41       1.0  0.50740  0.96340  0.10370  1.0000 0.1388143174
H   H42       1.0  0.49260  0.46340  0.39630  1.0000 0.1388143174
H   H43       1.0  0.49260  0.03660  0.89630  1.0000 0.1388143174
H   H44       1.0  0.50740  0.53660  0.60370  1.0000 0.1388143174
H   H45       1.0  0.74230  0.03650  0.16630  1.0000 0.1306146018
H   H46       1.0  0.25770  0.53650  0.33370  1.0000 0.1306146018
H   H47       1.0  0.25770  0.96350  0.83370  1.0000 0.1306146018
H   H48       1.0  0.74230  0.46350  0.66630  1.0000 0.1306146018
H   H49       1.0  0.59080  0.23890  0.09650  1.0000 0.1306146018
H   H50       1.0  0.40920  0.73890  0.40350  1.0000 0.1306146018
H   H51       1.0  0.40920  0.76110  0.90350  1.0000 0.1306146018
H   H52       1.0  0.59080  0.26110  0.59650  1.0000 0.1306146018
H   H53       1.0  0.97600  0.22380  0.25140  1.0000 0.1306146018
H   H54       1.0  0.02400  0.72380  0.24860  1.0000 0.1306146018
H   H55       1.0  0.02400  0.77620  0.74860  1.0000 0.1306146018
H   H56       1.0  0.97600  0.27620  0.75140  1.0000 0.1306146018
H   H57       1.0  0.95220  0.17080  0.05830  1.0000 0.1306146018
H   H58       1.0  0.04780  0.67080  0.44170  1.0000 0.1306146018
H   H59       1.0  0.04780  0.82920  0.94170  1.0000 0.1306146018
H   H60       1.0  0.95220  0.32920  0.55830  1.0000 0.1306146018
H   H61       1.0  0.16470  0.16490  0.15450  1.0000 0.3456693959
H   H62       1.0  0.83530  0.66490  0.34550  1.0000 0.3456693959
H   H63       1.0  0.83530  0.83510  0.84550  1.0000 0.3456693959
H   H64       1.0  0.16470  0.33510  0.65450  1.0000 0.3456693959
C   C1        1.0  0.01600  0.98670  0.27660  1.0000 -0.2506580989
C   C2        1.0  0.98400  0.48670  0.22340  1.0000 -0.2506580989
C   C3        1.0  0.98400  0.01330  0.72340  1.0000 -0.2506580989
C   C4        1.0  0.01600  0.51330  0.77660  1.0000 -0.2506580989
C   C5        1.0  0.14890  0.99890  0.32920  1.0000 0.202983908
C   C6        1.0  0.85110  0.49890  0.17080  1.0000 0.202983908
C   C7        1.0  0.85110  0.00110  0.67080  1.0000 0.202983908
C   C8        1.0  0.14890  0.50110  0.82920  1.0000 0.202983908
C   C9        1.0  0.17220  0.97420  0.39640  1.0000 -0.2786866265
C   C10       1.0  0.82780  0.47420  0.10360  1.0000 -0.2786866265
C   C11       1.0  0.82780  0.02580  0.60360  1.0000 -0.2786866265
C   C12       1.0  0.17220  0.52580  0.89640  1.0000 -0.2786866265
C   C13       1.0  0.05710  0.93630  0.41130  1.0000 0.2056131844
C   C14       1.0  0.94290  0.43630  0.08870  1.0000 0.2056131844
C   C15       1.0  0.94290  0.06370  0.58870  1.0000 0.2056131844
C   C16       1.0  0.05710  0.56370  0.91130  1.0000 0.2056131844
C   C17       1.0  0.92120  0.92440  0.36000  1.0000 -0.271484122
C   C18       1.0  0.07880  0.42440  0.14000  1.0000 -0.271484122
C   C19       1.0  0.07880  0.07560  0.64000  1.0000 -0.271484122
C   C20       1.0  0.92120  0.57560  0.86000  1.0000 -0.271484122
C   C21       1.0  0.90370  0.94950  0.29310  1.0000 0.2056131844
C   C22       1.0  0.09630  0.44950  0.20690  1.0000 0.2056131844
C   C23       1.0  0.09630  0.05050  0.70690  1.0000 0.2056131844
C   C24       1.0  0.90370  0.55050  0.79310  1.0000 0.2056131844
C   C25       1.0  0.35110  0.11180  0.34550  1.0000 0.1040477023
C   C26       1.0  0.64890  0.61180  0.15450  1.0000 0.1040477023
C   C27       1.0  0.64890  0.88820  0.65450  1.0000 0.1040477023
C   C28       1.0  0.35110  0.38820  0.84550  1.0000 0.1040477023
C   C29       1.0  0.43770  0.06320  0.27100  1.0000 -0.0305191933
C   C30       1.0  0.56230  0.56320  0.22900  1.0000 -0.0305191933
C   C31       1.0  0.56230  0.93680  0.72900  1.0000 -0.0305191933
C   C32       1.0  0.43770  0.43680  0.77100  1.0000 -0.0305191933
C   C33       1.0  0.32320  0.00710  0.26580  1.0000 -0.0844712074
C   C34       1.0  0.67680  0.50710  0.23420  1.0000 -0.0844712074
C   C35       1.0  0.67680  0.99290  0.73420  1.0000 -0.0844712074
C   C36       1.0  0.32320  0.49290  0.76580  1.0000 -0.0844712074
C   C37       1.0  0.20920  0.90170  0.53240  1.0000 0.0863593218
C   C38       1.0  0.79080  0.40170  0.96760  1.0000 0.0863593218
C   C39       1.0  0.79080  0.09830  0.46760  1.0000 0.0863593218
C   C40       1.0  0.20920  0.59830  0.03240  1.0000 0.0863593218
C   C41       1.0  0.05270  0.83910  0.56890  1.0000 -0.017513483
C   C42       1.0  0.94730  0.33910  0.93110  1.0000 -0.017513483
C   C43       1.0  0.94730  0.16090  0.43110  1.0000 -0.017513483
C   C44       1.0  0.05270  0.66090  0.06890  1.0000 -0.017513483
C   C45       1.0  0.97810  0.86560  0.50330  1.0000 -0.1205838065
C   C46       1.0  0.02190  0.36560  0.99670  1.0000 -0.1205838065
C   C47       1.0  0.02190  0.13440  0.49670  1.0000 -0.1205838065
C   C48       1.0  0.97810  0.63440  0.00330  1.0000 -0.1205838065
C   C49       1.0  0.67140  0.86410  0.23800  1.0000 0.1112461522
C   C50       1.0  0.32860  0.36410  0.26200  1.0000 0.1112461522
C   C51       1.0  0.32860  0.13590  0.76200  1.0000 0.1112461522
C   C52       1.0  0.67140  0.63590  0.73800  1.0000 0.1112461522
C   C53       1.0  0.57350  0.94350  0.14590  1.0000 -0.017513483
C   C54       1.0  0.42650  0.44350  0.35410  1.0000 -0.017513483
C   C55       1.0  0.42650  0.05650  0.85410  1.0000 -0.017513483
C   C56       1.0  0.57350  0.55650  0.64590  1.0000 -0.017513483
C   C57       1.0  0.70290  0.98450  0.18020  1.0000 -0.0967919922
C   C58       1.0  0.29710  0.48450  0.31980  1.0000 -0.0967919922
C   C59       1.0  0.29710  0.01550  0.81980  1.0000 -0.0967919922
C   C60       1.0  0.70290  0.51550  0.68020  1.0000 -0.0967919922
C   C61       1.0  0.69940  0.25160  0.23330  1.0000 0.5357114148
C   C62       1.0  0.30060  0.75160  0.26670  1.0000 0.5357114148
C   C63       1.0  0.30060  0.74840  0.76670  1.0000 0.5357114148
C   C64       1.0  0.69940  0.24840  0.73330  1.0000 0.5357114148
C   C65       1.0  0.67330  0.20690  0.98950  1.0000 0.5357114148
C   C66       1.0  0.32670  0.70690  0.51050  1.0000 0.5357114148
C   C67       1.0  0.32670  0.79310  0.01050  1.0000 0.5357114148
C   C68       1.0  0.67330  0.29310  0.48950  1.0000 0.5357114148
C   C69       1.0  0.75840  0.20570  0.06560  1.0000 0.0105943491
C   C70       1.0  0.24160  0.70570  0.43440  1.0000 0.0105943491
C   C71       1.0  0.24160  0.79430  0.93440  1.0000 0.0105943491
C   C72       1.0  0.75840  0.29430  0.56560  1.0000 0.0105943491
C   C73       1.0  0.69080  0.22790  0.11210  1.0000 -0.1644197333
C   C74       1.0  0.30920  0.72790  0.38790  1.0000 -0.1644197333
C   C75       1.0  0.30920  0.77210  0.88790  1.0000 -0.1644197333
C   C76       1.0  0.69080  0.27210  0.61210  1.0000 -0.1644197333
C   C77       1.0  0.77340  0.23370  0.18200  1.0000 -0.0029672436
C   C78       1.0  0.22660  0.73370  0.31800  1.0000 -0.0062389189
C   C79       1.0  0.22660  0.76630  0.81800  1.0000 -0.0062389189
C   C80       1.0  0.77340  0.26630  0.68200  1.0000 -0.0062389189
C   C81       1.0  0.92110  0.21890  0.20470  1.0000 -0.2506580989
C   C82       1.0  0.07890  0.71890  0.29530  1.0000 -0.2506580989
C   C83       1.0  0.07890  0.78110  0.79530  1.0000 -0.2506580989
C   C84       1.0  0.92110  0.28110  0.70470  1.0000 -0.2506580989
C   C85       1.0  0.98970  0.19660  0.15850  1.0000 0.2771424052
C   C86       1.0  0.01030  0.69660  0.34150  1.0000 0.2771424052
C   C87       1.0  0.01030  0.80340  0.84150  1.0000 0.2771424052
C   C88       1.0  0.98970  0.30340  0.65850  1.0000 0.2771424052
C   C89       1.0  0.90770  0.18810  0.08910  1.0000 -0.2786866265
C   C90       1.0  0.09230  0.68810  0.41090  1.0000 -0.2786866265
C   C91       1.0  0.09230  0.81190  0.91090  1.0000 -0.2786866265
C   C92       1.0  0.90770  0.31190  0.58910  1.0000 -0.2786866265
N   N1        1.0  0.45310  0.12930  0.32050  1.0000 -0.2786866265
N   N2        1.0  0.54690  0.62930  0.17950  1.0000 -0.2786866265
N   N3        1.0  0.54690  0.87070  0.67950  1.0000 -0.2786866265
N   N4        1.0  0.45310  0.37070  0.82050  1.0000 -0.2786866265
N   N5        1.0  0.26994  0.03740  0.31424  1.0000 -0.0029672436
N   N6        1.0  0.73006  0.53740  0.18576  1.0000 -0.0029672436
N   N7        1.0  0.73006  0.96260  0.68576  1.0000 -0.0029672436
N   N8        1.0  0.26994  0.46260  0.81424  1.0000 -0.0029672436
N   N9        1.0  0.19740  0.86100  0.58730  1.0000 -0.2786866265
N   N10       1.0  0.80260  0.36100  0.91270  1.0000 -0.2786866265
N   N11       1.0  0.80260  0.13900  0.41270  1.0000 -0.2786866265
N   N12       1.0  0.19740  0.63900  0.08730  1.0000 -0.2786866265
N   N13       1.0  0.07880  0.90620  0.47990  1.0000 -0.0062389189
N   N14       1.0  0.92120  0.40620  0.02010  1.0000 -0.0062389189
N   N15       1.0  0.92120  0.09380  0.52010  1.0000 -0.0062389189
N   N16       1.0  0.07880  0.59380  0.97990  1.0000 -0.0062389189
N   N17       1.0  0.55390  0.86870  0.18230  1.0000 -0.2786866265
N   N18       1.0  0.44610  0.36870  0.31770  1.0000 -0.2786866265
N   N19       1.0  0.44610  0.13130  0.81770  1.0000 -0.2786866265
N   N20       1.0  0.55390  0.63130  0.68230  1.0000 -0.2786866265
N   N21       1.0  0.76486  0.93360  0.23996  1.0000 -0.0029672436
N   N22       1.0  0.23514  0.43360  0.26004  1.0000 -0.0029672436
N   N23       1.0  0.23514  0.06640  0.76004  1.0000 -0.0029672436
N   N24       1.0  0.76486  0.56640  0.73996  1.0000 -0.0029672436
O   O1        1.0  0.56450  0.24120  0.21520  1.0000 -0.5675898421
O   O2        1.0  0.43550  0.74120  0.28480  1.0000 -0.5675898421
O   O3        1.0  0.43550  0.75880  0.78480  1.0000 -0.5675898421
O   O4        1.0  0.56450  0.25880  0.71520  1.0000 -0.5675898421
O   O5        1.0  0.77602  0.27470  0.29322  1.0000 -0.5457217324
O   O6        1.0  0.22398  0.77470  0.20678  1.0000 -0.5457217324
O   O7        1.0  0.22398  0.72530  0.70678  1.0000 -0.5457217324
O   O8        1.0  0.77602  0.22530  0.79322  1.0000 -0.5457217324
O   O9        1.0  0.55330  0.24900  0.96690  1.0000 -0.5864007849
O   O10       1.0  0.44670  0.74900  0.53310  1.0000 -0.5864007849
O   O11       1.0  0.44670  0.75100  0.03310  1.0000 -0.5864007849
O   O12       1.0  0.55330  0.25100  0.46690  1.0000 -0.5864007849
O   O13       1.0  0.73065  0.16990  0.95025  1.0000 -0.5432031679
O   O14       1.0  0.26935  0.66990  0.54975  1.0000 -0.5432031679
O   O15       1.0  0.26935  0.83010  0.04975  1.0000 -0.5432031679
O   O16       1.0  0.73065  0.33010  0.45025  1.0000 -0.5432031679
O   O17       1.0  0.13664  0.18340  0.18494  1.0000 -0.4287092316
O   O18       1.0  0.86336  0.68340  0.31506  1.0000 -0.4287092316
O   O19       1.0  0.86336  0.81660  0.81506  1.0000 -0.4287092316
O   O20       1.0  0.13664  0.31660  0.68494  1.0000 -0.4287092316
