# DDEC6 charges by PACMAN v1.1 (https://github.com/mtap-research/PACMAN-charge/)
data_2015[La][nan]3[ASR]3
_chemical_formula_sum              "La3 H36 C63 N3 O18"
_cell_length_a       14.6219
_cell_length_b       14.6219
_cell_length_c       14.6219
_cell_angle_alpha    111.581
_cell_angle_beta     111.581
_cell_angle_gamma    111.581

_symmetry_space_group_name_H-M    "P 1"
_symmetry_Int_Tables_number       1

loop_
  _symmetry_equiv_pos_as_xyz
  'x, y, z'

loop_
  _atom_site_type_symbol
  _atom_site_label
  _atom_site_symmetry_multiplicity
  _atom_site_fract_x
  _atom_site_fract_y
  _atom_site_fract_z
  _atom_site_occupancy
  _atom_site_charge
La  La1       1.0  0.50000  0.18490  0.81510  1.0000 1.8777831608
La  La2       1.0  0.18490  0.81510  0.50000  1.0000 1.8777831608
La  La3       1.0  0.81510  0.50000  0.18490  1.0000 1.8777831608
H   H1        1.0  0.66140  0.17020  0.33660  1.0000 0.1311463968
H   H2        1.0  0.17020  0.33660  0.66140  1.0000 0.1311463968
H   H3        1.0  0.33660  0.66140  0.17020  1.0000 0.1311463968
H   H4        1.0  0.33860  0.66340  0.82980  1.0000 0.1311463968
H   H5        1.0  0.82980  0.33860  0.66340  1.0000 0.1311463968
H   H6        1.0  0.66340  0.82980  0.33860  1.0000 0.1311463968
H   H7        1.0  0.64590  0.24720  0.22410  1.0000 0.1311463968
H   H8        1.0  0.24720  0.22410  0.64590  1.0000 0.1311463968
H   H9        1.0  0.22410  0.64590  0.24720  1.0000 0.1311463968
H   H10       1.0  0.35410  0.77590  0.75280  1.0000 0.1311463968
H   H11       1.0  0.75280  0.35410  0.77590  1.0000 0.1311463968
H   H12       1.0  0.77590  0.75280  0.35410  1.0000 0.1311463968
H   H13       1.0  0.66530  0.01430  0.00560  1.0000 0.1311463968
H   H14       1.0  0.01430  0.00560  0.66530  1.0000 0.1311463968
H   H15       1.0  0.00560  0.66530  0.01430  1.0000 0.1311463968
H   H16       1.0  0.33470  0.99440  0.98570  1.0000 0.1311463968
H   H17       1.0  0.98570  0.33470  0.99440  1.0000 0.1311463968
H   H18       1.0  0.99440  0.98570  0.33470  1.0000 0.1311463968
H   H19       1.0  0.68350  0.93350  0.11590  1.0000 0.1177291984
H   H20       1.0  0.93350  0.11590  0.68350  1.0000 0.1177291984
H   H21       1.0  0.11590  0.68350  0.93350  1.0000 0.1177291984
H   H22       1.0  0.31650  0.88410  0.06650  1.0000 0.1177291984
H   H23       1.0  0.06650  0.31650  0.88410  1.0000 0.1177291984
H   H24       1.0  0.88410  0.06650  0.31650  1.0000 0.1177291984
H   H25       1.0  0.46530  0.92660  0.22250  1.0000 0.111262642
H   H26       1.0  0.92660  0.22250  0.46530  1.0000 0.111262642
H   H27       1.0  0.22250  0.46530  0.92660  1.0000 0.111262642
H   H28       1.0  0.53470  0.77750  0.07340  1.0000 0.111262642
H   H29       1.0  0.07340  0.53470  0.77750  1.0000 0.111262642
H   H30       1.0  0.77750  0.07340  0.53470  1.0000 0.111262642
H   H31       1.0  0.36820  0.92180  0.31900  1.0000 0.111262642
H   H32       1.0  0.92180  0.31900  0.36820  1.0000 0.111262642
H   H33       1.0  0.31900  0.36820  0.92180  1.0000 0.111262642
H   H34       1.0  0.63180  0.68100  0.07820  1.0000 0.111262642
H   H35       1.0  0.07820  0.63180  0.68100  1.0000 0.111262642
H   H36       1.0  0.68100  0.07820  0.63180  1.0000 0.111262642
C   C1        1.0  0.67780  0.04630  0.23920  1.0000 0.1687147433
C   C2        1.0  0.04630  0.23920  0.67780  1.0000 0.1687147433
C   C3        1.0  0.23920  0.67780  0.04630  1.0000 0.1687147433
C   C4        1.0  0.32220  0.76080  0.95370  1.0000 0.1687147433
C   C5        1.0  0.95370  0.32220  0.76080  1.0000 0.1687147433
C   C6        1.0  0.76080  0.95370  0.32220  1.0000 0.1687147433
C   C7        1.0  0.66400  0.13850  0.27030  1.0000 -0.1858527522
C   C8        1.0  0.13850  0.27030  0.66400  1.0000 -0.1858527522
C   C9        1.0  0.27030  0.66400  0.13850  1.0000 -0.1858527522
C   C10       1.0  0.33600  0.72970  0.86150  1.0000 -0.1858527522
C   C11       1.0  0.86150  0.33600  0.72970  1.0000 -0.1858527522
C   C12       1.0  0.72970  0.86150  0.33600  1.0000 -0.1858527522
C   C13       1.0  0.65370  0.18370  0.20180  1.0000 -0.0919954903
C   C14       1.0  0.18370  0.20180  0.65370  1.0000 -0.0919954903
C   C15       1.0  0.20180  0.65370  0.18370  1.0000 -0.0919954903
C   C16       1.0  0.34630  0.79820  0.81630  1.0000 -0.0919954903
C   C17       1.0  0.81630  0.34630  0.79820  1.0000 -0.0919954903
C   C18       1.0  0.79820  0.81630  0.34630  1.0000 -0.0919954903
C   C19       1.0  0.65480  0.13900  0.10440  1.0000 -0.0293823925
C   C20       1.0  0.13900  0.10440  0.65480  1.0000 -0.0293823925
C   C21       1.0  0.10440  0.65480  0.13900  1.0000 -0.0293823925
C   C22       1.0  0.34520  0.89560  0.86100  1.0000 -0.0293823925
C   C23       1.0  0.86100  0.34520  0.89560  1.0000 -0.0293823925
C   C24       1.0  0.89560  0.86100  0.34520  1.0000 -0.0293823925
C   C25       1.0  0.66550  0.04680  0.07370  1.0000 -0.0919954903
C   C26       1.0  0.04680  0.07370  0.66550  1.0000 -0.0919954903
C   C27       1.0  0.07370  0.66550  0.04680  1.0000 -0.0919954903
C   C28       1.0  0.33450  0.92630  0.95320  1.0000 -0.0919954903
C   C29       1.0  0.95320  0.33450  0.92630  1.0000 -0.0919954903
C   C30       1.0  0.92630  0.95320  0.33450  1.0000 -0.0919954903
C   C31       1.0  0.67680  0.99760  0.13950  1.0000 -0.1858527522
C   C32       1.0  0.99760  0.13950  0.67680  1.0000 -0.1858527522
C   C33       1.0  0.13950  0.67680  0.99760  1.0000 -0.1858527522
C   C34       1.0  0.32320  0.86050  0.00240  1.0000 -0.1858527522
C   C35       1.0  0.00240  0.32320  0.86050  1.0000 -0.1858527522
C   C36       1.0  0.86050  0.00240  0.32320  1.0000 -0.1858527522
C   C37       1.0  0.64190  0.18620  0.02780  1.0000 0.5938697273
C   C38       1.0  0.18620  0.02780  0.64190  1.0000 0.5938697273
C   C39       1.0  0.02780  0.64190  0.18620  1.0000 0.5938697273
C   C40       1.0  0.35810  0.97220  0.81380  1.0000 0.5938697273
C   C41       1.0  0.81380  0.35810  0.97220  1.0000 0.5938697273
C   C42       1.0  0.97220  0.81380  0.35810  1.0000 0.5938697273
C   C43       1.0  0.63125  0.00000  0.36875  1.0000 0.1883810922
C   C44       1.0  0.00000  0.36875  0.63125  1.0000 0.1883810922
C   C45       1.0  0.36875  0.63125  0.00000  1.0000 0.1883810922
C   C46       1.0  0.50780  0.95500  0.30340  1.0000 -0.2043474352
C   C47       1.0  0.95500  0.30340  0.50780  1.0000 -0.2043474352
C   C48       1.0  0.30340  0.50780  0.95500  1.0000 -0.2052547669
C   C49       1.0  0.49220  0.69660  0.04500  1.0000 -0.2052547669
C   C50       1.0  0.04500  0.49220  0.69660  1.0000 -0.2052547669
C   C51       1.0  0.69660  0.04500  0.49220  1.0000 -0.2043474352
C   C52       1.0  0.45010  0.95360  0.36160  1.0000 -0.0919954903
C   C53       1.0  0.95360  0.36160  0.45010  1.0000 -0.0919954903
C   C54       1.0  0.36160  0.45010  0.95360  1.0000 -0.0919954903
C   C55       1.0  0.54990  0.63840  0.04640  1.0000 -0.0919954903
C   C56       1.0  0.04640  0.54990  0.63840  1.0000 -0.0919954903
C   C57       1.0  0.63840  0.04640  0.54990  1.0000 -0.0919954903
C   C58       1.0  0.51615  0.00000  0.48385  1.0000 -0.0380767433
C   C59       1.0  0.00000  0.48385  0.51615  1.0000 -0.0380767433
C   C60       1.0  0.48385  0.51615  0.00000  1.0000 -0.0380767433
C   C61       1.0  0.45325  0.00000  0.54675  1.0000 0.6119645053
C   C62       1.0  0.00000  0.54675  0.45325  1.0000 0.6119645053
C   C63       1.0  0.54675  0.45325  0.00000  1.0000 0.6119645053
N   N1        1.0  0.69065  0.00000  0.30935  1.0000 -0.177894263
N   N2        1.0  0.00000  0.30935  0.69065  1.0000 -0.177894263
N   N3        1.0  0.30935  0.69065  0.00000  1.0000 -0.177894263
O   O1        1.0  0.62078  0.12822  0.92690  1.0000 -0.5466146455
O   O2        1.0  0.12822  0.92690  0.62078  1.0000 -0.5466146455
O   O3        1.0  0.92690  0.62078  0.12822  1.0000 -0.5466146455
O   O4        1.0  0.37922  0.07310  0.87178  1.0000 -0.5466146455
O   O5        1.0  0.87178  0.37922  0.07310  1.0000 -0.5466146455
O   O6        1.0  0.07310  0.87178  0.37922  1.0000 -0.5466146455
O   O7        1.0  0.64325  0.28103  0.06572  1.0000 -0.6711238211
O   O8        1.0  0.28103  0.06572  0.64325  1.0000 -0.6711238211
O   O9        1.0  0.06572  0.64325  0.28103  1.0000 -0.6711238211
O   O10       1.0  0.35675  0.93428  0.71897  1.0000 -0.6711238211
O   O11       1.0  0.71897  0.35675  0.93428  1.0000 -0.6711238211
O   O12       1.0  0.93428  0.71897  0.35675  1.0000 -0.6711238211
O   O13       1.0  0.34070  0.92790  0.48200  1.0000 -0.6277430838
O   O14       1.0  0.92790  0.48200  0.34070  1.0000 -0.6277430838
O   O15       1.0  0.48200  0.34070  0.92790  1.0000 -0.6277430838
O   O16       1.0  0.65930  0.51800  0.07210  1.0000 -0.6277430838
O   O17       1.0  0.07210  0.65930  0.51800  1.0000 -0.6277430838
O   O18       1.0  0.51800  0.07210  0.65930  1.0000 -0.6277430838
