# DDEC6 charges by PACMAN v1.1 (https://github.com/mtap-research/PACMAN-charge/)
data_2015[Zn][pcu]3[ASR]4
_chemical_formula_sum              "Zn4 H80 C120 N4 O16"
_cell_length_a       15.6519
_cell_length_b       15.6519
_cell_length_c       15.799
_cell_angle_alpha    87.3784
_cell_angle_beta     92.6216
_cell_angle_gamma    57.6136

_symmetry_space_group_name_H-M    "P 1"
_symmetry_Int_Tables_number       1

loop_
  _symmetry_equiv_pos_as_xyz
  'x, y, z'

loop_
  _atom_site_type_symbol
  _atom_site_label
  _atom_site_symmetry_multiplicity
  _atom_site_fract_x
  _atom_site_fract_y
  _atom_site_fract_z
  _atom_site_occupancy
  _atom_site_charge
Zn  Zn1       1.0  0.43278  0.55976  0.56457  1.0000 0.813670934
Zn  Zn2       1.0  0.55976  0.43278  0.93543  1.0000 0.813670934
Zn  Zn3       1.0  0.56722  0.44024  0.43543  1.0000 0.813670934
Zn  Zn4       1.0  0.44024  0.56722  0.06457  1.0000 0.813670934
H   H1        1.0  0.60850  0.67270  0.32280  1.0000 0.120115914
H   H2        1.0  0.67270  0.60850  0.17720  1.0000 0.120115914
H   H3        1.0  0.39150  0.32730  0.67720  1.0000 0.120115914
H   H4        1.0  0.32730  0.39150  0.82280  1.0000 0.120115914
H   H5        1.0  0.61770  0.81090  0.27710  1.0000 0.1106686858
H   H6        1.0  0.81090  0.61770  0.22290  1.0000 0.1106686858
H   H7        1.0  0.38230  0.18910  0.72290  1.0000 0.1106686858
H   H8        1.0  0.18910  0.38230  0.77710  1.0000 0.1106686858
H   H9        1.0  0.43670  0.97170  0.45800  1.0000 0.1106686858
H   H10       1.0  0.97170  0.43670  0.04200  1.0000 0.1106686858
H   H11       1.0  0.56330  0.02830  0.54200  1.0000 0.1106686858
H   H12       1.0  0.02830  0.56330  0.95800  1.0000 0.1106686858
H   H13       1.0  0.42930  0.83430  0.50440  1.0000 0.1106686858
H   H14       1.0  0.83430  0.42930  0.99560  1.0000 0.1106686858
H   H15       1.0  0.57070  0.16570  0.49560  1.0000 0.1106686858
H   H16       1.0  0.16570  0.57070  0.00440  1.0000 0.1106686858
H   H17       1.0  0.48980  0.05640  0.36370  1.0000 0.1106686858
H   H18       1.0  0.05640  0.48980  0.13630  1.0000 0.1106686858
H   H19       1.0  0.51020  0.94360  0.63630  1.0000 0.1106686858
H   H20       1.0  0.94360  0.51020  0.86370  1.0000 0.1106686858
H   H21       1.0  0.63510  0.93550  0.25870  1.0000 0.1106686858
H   H22       1.0  0.93550  0.63510  0.24130  1.0000 0.1106686858
H   H23       1.0  0.36490  0.06450  0.74130  1.0000 0.1106686858
H   H24       1.0  0.06450  0.36490  0.75870  1.0000 0.1106686858
H   H25       1.0  0.66870  0.01570  0.14800  1.0000 0.1106686858
H   H26       1.0  0.01570  0.66870  0.35200  1.0000 0.1106686858
H   H27       1.0  0.33130  0.98430  0.85200  1.0000 0.1106686858
H   H28       1.0  0.98430  0.33130  0.64800  1.0000 0.1106686858
H   H29       1.0  0.65060  0.15660  0.07570  1.0000 0.120115914
H   H30       1.0  0.15660  0.65060  0.42430  1.0000 0.120115914
H   H31       1.0  0.34940  0.84340  0.92430  1.0000 0.120115914
H   H32       1.0  0.84340  0.34940  0.57570  1.0000 0.120115914
H   H33       1.0  0.49260  0.33040  0.26120  1.0000 0.120115914
H   H34       1.0  0.33040  0.49260  0.23880  1.0000 0.120115914
H   H35       1.0  0.50740  0.66960  0.73880  1.0000 0.120115914
H   H36       1.0  0.66960  0.50740  0.76120  1.0000 0.120115914
H   H37       1.0  0.50710  0.18910  0.33300  1.0000 0.120115914
H   H38       1.0  0.18910  0.50710  0.16700  1.0000 0.120115914
H   H39       1.0  0.49290  0.81090  0.66700  1.0000 0.120115914
H   H40       1.0  0.81090  0.49290  0.83300  1.0000 0.120115914
H   H41       1.0  0.29020  0.77440  0.57230  1.0000 0.1010553025
H   H42       1.0  0.77440  0.29020  0.92770  1.0000 0.1010553025
H   H43       1.0  0.70980  0.22560  0.42770  1.0000 0.1010553025
H   H44       1.0  0.22560  0.70980  0.07230  1.0000 0.1010553025
H   H45       1.0  0.17120  0.88960  0.65710  1.0000 0.120115914
H   H46       1.0  0.88960  0.17120  0.84290  1.0000 0.120115914
H   H47       1.0  0.82880  0.11040  0.34290  1.0000 0.120115914
H   H48       1.0  0.11040  0.82880  0.15710  1.0000 0.120115914
H   H49       1.0  0.25370  0.65730  0.83030  1.0000 0.1354895242
H   H50       1.0  0.65730  0.25370  0.66970  1.0000 0.1354895242
H   H51       1.0  0.74630  0.34270  0.16970  1.0000 0.1354895242
H   H52       1.0  0.34270  0.74630  0.33030  1.0000 0.1354895242
H   H53       1.0  0.36650  0.55050  0.73960  1.0000 0.1106686858
H   H54       1.0  0.55050  0.36650  0.76040  1.0000 0.120115914
H   H55       1.0  0.63350  0.44950  0.26040  1.0000 0.1106686858
H   H56       1.0  0.44950  0.63350  0.23960  1.0000 0.1106686858
H   H57       1.0  0.06890  0.92270  0.78150  1.0000 0.120115914
H   H58       1.0  0.92270  0.06890  0.71850  1.0000 0.120115914
H   H59       1.0  0.93110  0.07730  0.21850  1.0000 0.120115914
H   H60       1.0  0.07730  0.93110  0.28150  1.0000 0.120115914
H   H61       1.0  0.18720  0.78820  0.91550  1.0000 0.120115914
H   H62       1.0  0.78820  0.18720  0.58450  1.0000 0.120115914
H   H63       1.0  0.81280  0.21180  0.08450  1.0000 0.120115914
H   H64       1.0  0.21180  0.81280  0.41550  1.0000 0.120115914
H   H65       1.0  0.84670  0.99770  0.14640  1.0000 0.1106686858
H   H66       1.0  0.99770  0.84670  0.35360  1.0000 0.1106686858
H   H67       1.0  0.15330  0.00230  0.85360  1.0000 0.1106686858
H   H68       1.0  0.00230  0.15330  0.64640  1.0000 0.1106686858
H   H69       1.0  0.86880  0.84160  0.14870  1.0000 0.1106686858
H   H70       1.0  0.84160  0.86880  0.35130  1.0000 0.1106686858
H   H71       1.0  0.13120  0.15840  0.85130  1.0000 0.1106686858
H   H72       1.0  0.15840  0.13120  0.64870  1.0000 0.1106686858
H   H73       1.0  0.97600  0.72180  0.05530  1.0000 0.1010553025
H   H74       1.0  0.72180  0.97600  0.44470  1.0000 0.1010553025
H   H75       1.0  0.02400  0.27820  0.94470  1.0000 0.1010553025
H   H76       1.0  0.27820  0.02400  0.55530  1.0000 0.1010553025
H   H77       1.0  0.05870  0.76250  0.96170  1.0000 0.1106686858
H   H78       1.0  0.76250  0.05870  0.53830  1.0000 0.1106686858
H   H79       1.0  0.94130  0.23750  0.03830  1.0000 0.1106686858
H   H80       1.0  0.23750  0.94130  0.46170  1.0000 0.1106686858
C   C1        1.0  0.50930  0.65230  0.44570  1.0000 0.566238106
C   C2        1.0  0.65230  0.50930  0.05430  1.0000 0.566238106
C   C3        1.0  0.49070  0.34770  0.55430  1.0000 0.566238106
C   C4        1.0  0.34770  0.49070  0.94570  1.0000 0.566238106
C   C5        1.0  0.51637  0.74057  0.41730  1.0000 -0.0360040396
C   C6        1.0  0.74057  0.51637  0.08270  1.0000 -0.0360040396
C   C7        1.0  0.48363  0.25943  0.58270  1.0000 -0.0360040396
C   C8        1.0  0.25943  0.48363  0.91730  1.0000 -0.0360040396
C   C9        1.0  0.57340  0.73380  0.35040  1.0000 -0.1086330313
C   C10       1.0  0.73380  0.57340  0.14960  1.0000 -0.1086330313
C   C11       1.0  0.42660  0.26620  0.64960  1.0000 -0.1086330313
C   C12       1.0  0.26620  0.42660  0.85040  1.0000 -0.1086330313
C   C13       1.0  0.57930  0.81570  0.32360  1.0000 -0.1491166327
C   C14       1.0  0.81570  0.57930  0.17640  1.0000 -0.1491166327
C   C15       1.0  0.42070  0.18430  0.67640  1.0000 -0.1491166327
C   C16       1.0  0.18430  0.42070  0.82360  1.0000 -0.1491166327
C   C17       1.0  0.52920  0.90560  0.36470  1.0000 0.120115914
C   C18       1.0  0.90560  0.52920  0.13530  1.0000 0.120115914
C   C19       1.0  0.47080  0.09440  0.63530  1.0000 0.120115914
C   C20       1.0  0.09440  0.47080  0.86470  1.0000 0.120115914
C   C21       1.0  0.47270  0.91050  0.43060  1.0000 -0.1579926478
C   C22       1.0  0.91050  0.47270  0.06940  1.0000 -0.1579926478
C   C23       1.0  0.52730  0.08950  0.56940  1.0000 -0.1579926478
C   C24       1.0  0.08950  0.52730  0.93060  1.0000 -0.1579926478
C   C25       1.0  0.46725  0.82945  0.45760  1.0000 -0.1086330313
C   C26       1.0  0.82945  0.46725  0.04240  1.0000 -0.1086330313
C   C27       1.0  0.53275  0.17055  0.54240  1.0000 -0.1086330313
C   C28       1.0  0.17055  0.53275  0.95760  1.0000 -0.1086330313
C   C29       1.0  0.53210  0.99570  0.33730  1.0000 -0.1366813175
C   C30       1.0  0.99570  0.53210  0.16270  1.0000 -0.1366813175
C   C31       1.0  0.46790  0.00430  0.66270  1.0000 -0.1366813175
C   C32       1.0  0.00430  0.46790  0.83730  1.0000 -0.1366813175
C   C33       1.0  0.58770  0.99830  0.28010  1.0000 -0.1366813175
C   C34       1.0  0.99830  0.58770  0.21990  1.0000 -0.1366813175
C   C35       1.0  0.41230  0.00170  0.71990  1.0000 -0.1366813175
C   C36       1.0  0.00170  0.41230  0.78010  1.0000 -0.1366813175
C   C37       1.0  0.58510  0.08890  0.24470  1.0000 0.1106686858
C   C38       1.0  0.08890  0.58510  0.25530  1.0000 0.1106686858
C   C39       1.0  0.41490  0.91110  0.75530  1.0000 0.1106686858
C   C40       1.0  0.91110  0.41490  0.74470  1.0000 0.1106686858
C   C41       1.0  0.63030  0.08010  0.17020  1.0000 -0.1579926478
C   C42       1.0  0.08010  0.63030  0.32980  1.0000 -0.1579926478
C   C43       1.0  0.36970  0.91990  0.82980  1.0000 -0.1579926478
C   C44       1.0  0.91990  0.36970  0.67020  1.0000 -0.1579926478
C   C45       1.0  0.62024  0.16364  0.12780  1.0000 -0.1019994404
C   C46       1.0  0.16364  0.62024  0.37220  1.0000 -0.1019994404
C   C47       1.0  0.37976  0.83636  0.87220  1.0000 -0.1019994404
C   C48       1.0  0.83636  0.37976  0.62780  1.0000 -0.1019994404
C   C49       1.0  0.56636  0.25876  0.15940  1.0000 -0.0306222804
C   C50       1.0  0.25876  0.56636  0.34060  1.0000 -0.0306222804
C   C51       1.0  0.43364  0.74124  0.84060  1.0000 -0.0306222804
C   C52       1.0  0.74124  0.43364  0.65940  1.0000 -0.0306222804
C   C53       1.0  0.52628  0.26688  0.23710  1.0000 -0.0901058048
C   C54       1.0  0.26688  0.52628  0.26290  1.0000 -0.0901058048
C   C55       1.0  0.47372  0.73312  0.76290  1.0000 -0.0901058048
C   C56       1.0  0.73312  0.47372  0.73710  1.0000 -0.0901058048
C   C57       1.0  0.53500  0.18300  0.27990  1.0000 -0.1579926478
C   C58       1.0  0.18300  0.53500  0.22010  1.0000 -0.1579926478
C   C59       1.0  0.46500  0.81700  0.72010  1.0000 -0.1579926478
C   C60       1.0  0.81700  0.46500  0.77990  1.0000 -0.1579926478
C   C61       1.0  0.54790  0.34970  0.10670  1.0000 0.566238106
C   C62       1.0  0.34970  0.54790  0.39330  1.0000 0.566238106
C   C63       1.0  0.45210  0.65030  0.89330  1.0000 0.566238106
C   C64       1.0  0.65030  0.45210  0.60670  1.0000 0.566238106
C   C65       1.0  0.27870  0.74990  0.62400  1.0000 0.0723749034
C   C66       1.0  0.74990  0.27870  0.87600  1.0000 0.0723749034
C   C67       1.0  0.72130  0.25010  0.37600  1.0000 0.0723749034
C   C68       1.0  0.25010  0.72130  0.12400  1.0000 0.0723749034
C   C69       1.0  0.20900  0.81920  0.67480  1.0000 -0.1938354626
C   C70       1.0  0.81920  0.20900  0.82520  1.0000 -0.1938354626
C   C71       1.0  0.79100  0.18080  0.32520  1.0000 -0.1938354626
C   C72       1.0  0.18080  0.79100  0.17480  1.0000 -0.1938354626
C   C73       1.0  0.19490  0.78450  0.75220  1.0000 0.1617334418
C   C74       1.0  0.78450  0.19490  0.74780  1.0000 0.1617334418
C   C75       1.0  0.80510  0.21550  0.24780  1.0000 0.1617334418
C   C76       1.0  0.21550  0.80510  0.25220  1.0000 0.1617334418
C   C77       1.0  0.25655  0.68375  0.77590  1.0000 -0.1813735209
C   C78       1.0  0.68375  0.25655  0.72410  1.0000 -0.1813735209
C   C79       1.0  0.74345  0.31625  0.22410  1.0000 -0.1813735209
C   C80       1.0  0.31625  0.74345  0.27590  1.0000 -0.1813735209
C   C81       1.0  0.32314  0.62034  0.72100  1.0000 0.1010553025
C   C82       1.0  0.62034  0.32314  0.77900  1.0000 0.1010553025
C   C83       1.0  0.67686  0.37966  0.27900  1.0000 0.1010553025
C   C84       1.0  0.37966  0.67686  0.22100  1.0000 0.1010553025
C   C85       1.0  0.12480  0.86080  0.80830  1.0000 -0.1491166327
C   C86       1.0  0.86080  0.12480  0.69170  1.0000 -0.1491166327
C   C87       1.0  0.87520  0.13920  0.19170  1.0000 -0.1491166327
C   C88       1.0  0.13920  0.87520  0.30830  1.0000 -0.1491166327
C   C89       1.0  0.13262  0.85082  0.88870  1.0000 -0.1086330313
C   C90       1.0  0.85082  0.13262  0.61130  1.0000 -0.1086330313
C   C91       1.0  0.86738  0.14918  0.11130  1.0000 -0.1086330313
C   C92       1.0  0.14918  0.86738  0.38870  1.0000 -0.1086330313
C   C93       1.0  0.06430  0.92810  0.94460  1.0000 0.0032523264
C   C94       1.0  0.92810  0.06430  0.55540  1.0000 0.0032523264
C   C95       1.0  0.93570  0.07190  0.05540  1.0000 0.0032523264
C   C96       1.0  0.07190  0.93570  0.44460  1.0000 0.0032523264
C   C97       1.0  0.01069  0.90509  0.99960  1.0000 0.0236427661
C   C98       1.0  0.90509  0.01069  0.50040  1.0000 0.0236427661
C   C99       1.0  0.98931  0.09491  0.00040  1.0000 0.0236427661
C   C100      1.0  0.09491  0.98931  0.49960  1.0000 0.0236427661
C   C101      1.0  0.94620  0.97760  0.05660  1.0000 0.0258469133
C   C102      1.0  0.97760  0.94620  0.44340  1.0000 0.0258469133
C   C103      1.0  0.05380  0.02240  0.94340  1.0000 0.0258469133
C   C104      1.0  0.02240  0.05380  0.55660  1.0000 0.0258469133
C   C105      1.0  0.89220  0.95000  0.11010  1.0000 -0.1491166327
C   C106      1.0  0.95000  0.89220  0.38990  1.0000 -0.1491166327
C   C107      1.0  0.10780  0.05000  0.88990  1.0000 -0.1491166327
C   C108      1.0  0.05000  0.10780  0.61010  1.0000 -0.1491166327
C   C109      1.0  0.90380  0.85840  0.11060  1.0000 -0.1086330313
C   C110      1.0  0.85840  0.90380  0.38940  1.0000 -0.1086330313
C   C111      1.0  0.09620  0.14160  0.88940  1.0000 -0.1086330313
C   C112      1.0  0.14160  0.09620  0.61060  1.0000 -0.1086330313
C   C113      1.0  0.96820  0.78640  0.05450  1.0000 -0.1019994404
C   C114      1.0  0.78640  0.96820  0.44550  1.0000 -0.1019994404
C   C115      1.0  0.03180  0.21360  0.94550  1.0000 -0.1019994404
C   C116      1.0  0.21360  0.03180  0.55450  1.0000 -0.1019994404
C   C117      1.0  0.01790  0.81010  0.00040  1.0000 -0.1491166327
C   C118      1.0  0.81010  0.01790  0.49960  1.0000 -0.1491166327
C   C119      1.0  0.98210  0.18990  0.99960  1.0000 -0.1491166327
C   C120      1.0  0.18990  0.98210  0.50040  1.0000 -0.1491166327
N   N1        1.0  0.33068  0.65008  0.64460  1.0000 -0.2055673889
N   N2        1.0  0.65008  0.33068  0.85540  1.0000 -0.2055673889
N   N3        1.0  0.66932  0.34992  0.35540  1.0000 -0.2055673889
N   N4        1.0  0.34992  0.66932  0.14460  1.0000 -0.2055673889
O   O1        1.0  0.45573  0.66373  0.50580  1.0000 -0.5367539741
O   O2        1.0  0.66373  0.45573  0.99420  1.0000 -0.5367539741
O   O3        1.0  0.54427  0.33627  0.49420  1.0000 -0.5367539741
O   O4        1.0  0.33627  0.54427  0.00580  1.0000 -0.5367539741
O   O5        1.0  0.55670  0.57330  0.40740  1.0000 -0.5294715158
O   O6        1.0  0.57330  0.55670  0.09260  1.0000 -0.5294715158
O   O7        1.0  0.44330  0.42670  0.59260  1.0000 -0.5294715158
O   O8        1.0  0.42670  0.44330  0.90740  1.0000 -0.5294715158
O   O9        1.0  0.58671  0.33511  0.03750  1.0000 -0.5367539741
O   O10       1.0  0.33511  0.58671  0.46250  1.0000 -0.5367539741
O   O11       1.0  0.41329  0.66489  0.96250  1.0000 -0.5367539741
O   O12       1.0  0.66489  0.41329  0.53750  1.0000 -0.5367539741
O   O13       1.0  0.49321  0.43441  0.13480  1.0000 -0.5294715158
O   O14       1.0  0.43441  0.49321  0.36520  1.0000 -0.5294715158
O   O15       1.0  0.50679  0.56559  0.86520  1.0000 -0.5294715158
O   O16       1.0  0.56559  0.50679  0.63480  1.0000 -0.5294715158
