# DDEC6 charges by PACMAN v1.1 (https://github.com/mtap-research/PACMAN-charge/)
data_2015[Zn][nbo]3[ASR]5
_chemical_formula_sum              "Zn6 H78 C132 N18 O24"
_cell_length_a       18.5805
_cell_length_b       18.5805
_cell_length_c       18.5805
_cell_angle_alpha    110.407
_cell_angle_beta     110.407
_cell_angle_gamma    110.407

_symmetry_space_group_name_H-M    "P 1"
_symmetry_Int_Tables_number       1

loop_
  _symmetry_equiv_pos_as_xyz
  'x, y, z'

loop_
  _atom_site_type_symbol
  _atom_site_label
  _atom_site_symmetry_multiplicity
  _atom_site_fract_x
  _atom_site_fract_y
  _atom_site_fract_z
  _atom_site_occupancy
  _atom_site_charge
Zn  Zn1       1.0  0.74519  0.15524  0.66977  1.0000 0.7878240668
Zn  Zn2       1.0  0.15524  0.66977  0.74519  1.0000 0.7878240668
Zn  Zn3       1.0  0.66977  0.74519  0.15524  1.0000 0.7878240668
Zn  Zn4       1.0  0.25481  0.84476  0.33023  1.0000 0.7878240668
Zn  Zn5       1.0  0.84476  0.33023  0.25481  1.0000 0.7878240668
Zn  Zn6       1.0  0.33023  0.25481  0.84476  1.0000 0.7878240668
H   H1        1.0  0.46980  0.86210  0.50570  1.0000 0.3127079629
H   H2        1.0  0.86210  0.50570  0.46980  1.0000 0.3127079629
H   H3        1.0  0.50570  0.46980  0.86210  1.0000 0.3127079629
H   H4        1.0  0.53020  0.13790  0.49430  1.0000 0.3127079629
H   H5        1.0  0.13790  0.49430  0.53020  1.0000 0.3127079629
H   H6        1.0  0.49430  0.53020  0.13790  1.0000 0.3127079629
H   H7        1.0  0.75970  0.12390  0.49850  1.0000 0.1195928031
H   H8        1.0  0.12390  0.49850  0.75970  1.0000 0.1195928031
H   H9        1.0  0.49850  0.75970  0.12390  1.0000 0.1195928031
H   H10       1.0  0.24030  0.87610  0.50150  1.0000 0.1195928031
H   H11       1.0  0.87610  0.50150  0.24030  1.0000 0.1195928031
H   H12       1.0  0.50150  0.24030  0.87610  1.0000 0.1195928031
H   H13       1.0  0.67920  0.00820  0.34670  1.0000 0.1301945288
H   H14       1.0  0.00820  0.34670  0.67920  1.0000 0.1301945288
H   H15       1.0  0.34670  0.67920  0.00820  1.0000 0.1301945288
H   H16       1.0  0.32080  0.99180  0.65330  1.0000 0.1301945288
H   H17       1.0  0.99180  0.65330  0.32080  1.0000 0.1301945288
H   H18       1.0  0.65330  0.32080  0.99180  1.0000 0.1301945288
H   H19       1.0  0.54340  0.87680  0.28840  1.0000 0.1301945288
H   H20       1.0  0.87680  0.28840  0.54340  1.0000 0.1301945288
H   H21       1.0  0.28840  0.54340  0.87680  1.0000 0.1301945288
H   H22       1.0  0.45660  0.12320  0.71160  1.0000 0.1301945288
H   H23       1.0  0.12320  0.71160  0.45660  1.0000 0.1301945288
H   H24       1.0  0.71160  0.45660  0.12320  1.0000 0.1301945288
H   H25       1.0  0.49240  0.86230  0.38480  1.0000 0.1301945288
H   H26       1.0  0.86230  0.38480  0.49240  1.0000 0.1301945288
H   H27       1.0  0.38480  0.49240  0.86230  1.0000 0.1301945288
H   H28       1.0  0.50760  0.13770  0.61520  1.0000 0.1301945288
H   H29       1.0  0.13770  0.61520  0.50760  1.0000 0.1301945288
H   H30       1.0  0.61520  0.50760  0.13770  1.0000 0.1301945288
H   H31       1.0  0.42720  0.75810  0.54550  1.0000 0.1301945288
H   H32       1.0  0.75810  0.54550  0.42720  1.0000 0.1301945288
H   H33       1.0  0.54550  0.42720  0.75810  1.0000 0.1301945288
H   H34       1.0  0.57280  0.24190  0.45450  1.0000 0.1301945288
H   H35       1.0  0.24190  0.45450  0.57280  1.0000 0.1301945288
H   H36       1.0  0.45450  0.57280  0.24190  1.0000 0.1301945288
H   H37       1.0  0.32850  0.65820  0.56350  1.0000 0.1195928031
H   H38       1.0  0.65820  0.56350  0.32850  1.0000 0.1195928031
H   H39       1.0  0.56350  0.32850  0.65820  1.0000 0.1195928031
H   H40       1.0  0.67150  0.34180  0.43650  1.0000 0.1195928031
H   H41       1.0  0.34180  0.43650  0.67150  1.0000 0.1195928031
H   H42       1.0  0.43650  0.67150  0.34180  1.0000 0.1195928031
H   H43       1.0  0.38040  0.87130  0.78090  1.0000 0.1195928031
H   H44       1.0  0.87130  0.78090  0.38040  1.0000 0.1195928031
H   H45       1.0  0.78090  0.38040  0.87130  1.0000 0.1195928031
H   H46       1.0  0.61960  0.12870  0.21910  1.0000 0.1195928031
H   H47       1.0  0.12870  0.21910  0.61960  1.0000 0.1195928031
H   H48       1.0  0.21910  0.61960  0.12870  1.0000 0.1195928031
H   H49       1.0  0.47840  0.97150  0.76300  1.0000 0.1139515624
H   H50       1.0  0.97150  0.76300  0.47840  1.0000 0.1139515624
H   H51       1.0  0.76300  0.47840  0.97150  1.0000 0.1139515624
H   H52       1.0  0.52160  0.02850  0.23700  1.0000 0.1139515624
H   H53       1.0  0.02850  0.23700  0.52160  1.0000 0.1139515624
H   H54       1.0  0.23700  0.52160  0.02850  1.0000 0.1139515624
H   H55       1.0  0.68080  0.20200  0.80260  1.0000 0.1195928031
H   H56       1.0  0.20200  0.80260  0.68080  1.0000 0.1195928031
H   H57       1.0  0.80260  0.68080  0.20200  1.0000 0.1195928031
H   H58       1.0  0.31920  0.79800  0.19740  1.0000 0.1195928031
H   H59       1.0  0.79800  0.19740  0.31920  1.0000 0.1195928031
H   H60       1.0  0.19740  0.31920  0.79800  1.0000 0.1195928031
H   H61       1.0  0.75650  0.29810  0.95960  1.0000 0.1139515624
H   H62       1.0  0.29810  0.95960  0.75650  1.0000 0.1139515624
H   H63       1.0  0.95960  0.75650  0.29810  1.0000 0.1139515624
H   H64       1.0  0.24350  0.70190  0.04040  1.0000 0.1139515624
H   H65       1.0  0.70190  0.04040  0.24350  1.0000 0.1139515624
H   H66       1.0  0.04040  0.24350  0.70190  1.0000 0.1139515624
H   H67       1.0  0.72280  0.08470  0.98830  1.0000 0.1301945288
H   H68       1.0  0.08470  0.98830  0.72280  1.0000 0.1301945288
H   H69       1.0  0.98830  0.72280  0.08470  1.0000 0.1301945288
H   H70       1.0  0.27720  0.91530  0.01170  1.0000 0.1301945288
H   H71       1.0  0.91530  0.01170  0.27720  1.0000 0.1301945288
H   H72       1.0  0.01170  0.27720  0.91530  1.0000 0.1301945288
H   H73       1.0  0.64360  0.98750  0.83080  1.0000 0.1195928031
H   H74       1.0  0.98750  0.83080  0.64360  1.0000 0.1195928031
H   H75       1.0  0.83080  0.64360  0.98750  1.0000 0.1195928031
H   H76       1.0  0.35640  0.01250  0.16920  1.0000 0.1195928031
H   H77       1.0  0.01250  0.16920  0.35640  1.0000 0.1195928031
H   H78       1.0  0.16920  0.35640  0.01250  1.0000 0.1195928031
C   C1        1.0  0.70519  0.06995  0.47523  1.0000 0.0899386727
C   C2        1.0  0.06995  0.47523  0.70519  1.0000 0.0899386727
C   C3        1.0  0.47523  0.70519  0.06995  1.0000 0.0899386727
C   C4        1.0  0.29481  0.93005  0.52477  1.0000 0.0899386727
C   C5        1.0  0.93005  0.52477  0.29481  1.0000 0.0899386727
C   C6        1.0  0.52477  0.29481  0.93005  1.0000 0.0899386727
C   C7        1.0  0.65743  0.00169  0.38476  1.0000 -0.1295075567
C   C8        1.0  0.00169  0.38476  0.65743  1.0000 -0.1295075567
C   C9        1.0  0.38476  0.65743  0.00169  1.0000 -0.1295075567
C   C10       1.0  0.34257  0.99831  0.61524  1.0000 -0.1295075567
C   C11       1.0  0.99831  0.61524  0.34257  1.0000 -0.1295075567
C   C12       1.0  0.61524  0.34257  0.99831  1.0000 -0.1295075567
C   C13       1.0  0.57769  0.92415  0.35067  1.0000 -0.0200433633
C   C14       1.0  0.92415  0.35067  0.57769  1.0000 -0.0200433633
C   C15       1.0  0.35067  0.57769  0.92415  1.0000 -0.0200433633
C   C16       1.0  0.42231  0.07585  0.64933  1.0000 -0.0200433633
C   C17       1.0  0.07585  0.64933  0.42231  1.0000 -0.0200433633
C   C18       1.0  0.64933  0.42231  0.07585  1.0000 -0.0200433633
C   C19       1.0  0.54755  0.91519  0.40729  1.0000 -0.1701908982
C   C20       1.0  0.91519  0.40729  0.54755  1.0000 -0.1701908982
C   C21       1.0  0.40729  0.54755  0.91519  1.0000 -0.1701908982
C   C22       1.0  0.45245  0.08481  0.59271  1.0000 -0.1701908982
C   C23       1.0  0.08481  0.59271  0.45245  1.0000 -0.1701908982
C   C24       1.0  0.59271  0.45245  0.08481  1.0000 -0.1701908982
C   C25       1.0  0.60009  0.98559  0.49771  1.0000 0.1379177892
C   C26       1.0  0.98559  0.49771  0.60009  1.0000 0.1379177892
C   C27       1.0  0.49771  0.60009  0.98559  1.0000 0.1379177892
C   C28       1.0  0.39991  0.01441  0.50229  1.0000 0.1379177892
C   C29       1.0  0.01441  0.50229  0.39991  1.0000 0.1379177892
C   C30       1.0  0.50229  0.39991  0.01441  1.0000 0.1379177892
C   C31       1.0  0.58123  0.98319  0.56727  1.0000 0.2633385532
C   C32       1.0  0.98319  0.56727  0.58123  1.0000 0.2633385532
C   C33       1.0  0.56727  0.58123  0.98319  1.0000 0.2633385532
C   C34       1.0  0.41877  0.01681  0.43273  1.0000 0.2633385532
C   C35       1.0  0.01681  0.43273  0.41877  1.0000 0.2633385532
C   C36       1.0  0.43273  0.41877  0.01681  1.0000 0.2633385532
C   C37       1.0  0.60406  0.02480  0.70152  1.0000 0.0955892303
C   C38       1.0  0.02480  0.70152  0.60406  1.0000 0.0955892303
C   C39       1.0  0.70152  0.60406  0.02480  1.0000 0.0955892303
C   C40       1.0  0.39594  0.97520  0.29848  1.0000 0.0955892303
C   C41       1.0  0.97520  0.29848  0.39594  1.0000 0.0955892303
C   C42       1.0  0.29848  0.39594  0.97520  1.0000 0.0955892303
C   C43       1.0  0.52642  0.93797  0.64162  1.0000 0.0684477456
C   C44       1.0  0.93797  0.64162  0.52642  1.0000 0.0684477456
C   C45       1.0  0.64162  0.52642  0.93797  1.0000 0.0684477456
C   C46       1.0  0.47358  0.06203  0.35838  1.0000 0.0684477456
C   C47       1.0  0.06203  0.35838  0.47358  1.0000 0.0684477456
C   C48       1.0  0.35838  0.47358  0.06203  1.0000 0.0684477456
C   C49       1.0  0.46409  0.87565  0.65314  1.0000 0.0537195676
C   C50       1.0  0.87565  0.65314  0.46409  1.0000 0.0537195676
C   C51       1.0  0.65314  0.46409  0.87565  1.0000 0.0537195676
C   C52       1.0  0.53591  0.12435  0.34686  1.0000 0.0537195676
C   C53       1.0  0.12435  0.34686  0.53591  1.0000 0.0537195676
C   C54       1.0  0.34686  0.53591  0.12435  1.0000 0.0537195676
C   C55       1.0  0.41794  0.78128  0.59350  1.0000 -0.1423971854
C   C56       1.0  0.78128  0.59350  0.41794  1.0000 -0.1423971854
C   C57       1.0  0.59350  0.41794  0.78128  1.0000 -0.1423971854
C   C58       1.0  0.58206  0.21872  0.40650  1.0000 -0.1423971854
C   C59       1.0  0.21872  0.40650  0.58206  1.0000 -0.1423971854
C   C60       1.0  0.40650  0.58206  0.21872  1.0000 -0.1423971854
C   C61       1.0  0.35910  0.72183  0.60418  1.0000 -0.1009761891
C   C62       1.0  0.72183  0.60418  0.35910  1.0000 -0.1009761891
C   C63       1.0  0.60418  0.35910  0.72183  1.0000 -0.1009761891
C   C64       1.0  0.64090  0.27817  0.39582  1.0000 -0.1009761891
C   C65       1.0  0.27817  0.39582  0.64090  1.0000 -0.1009761891
C   C66       1.0  0.39582  0.64090  0.27817  1.0000 -0.1009761891
C   C67       1.0  0.34431  0.75439  0.67386  1.0000 -0.0334270881
C   C68       1.0  0.75439  0.67386  0.34431  1.0000 -0.0334270881
C   C69       1.0  0.67386  0.34431  0.75439  1.0000 -0.0334270881
C   C70       1.0  0.65569  0.24561  0.32614  1.0000 -0.0334270881
C   C71       1.0  0.24561  0.32614  0.65569  1.0000 -0.0334270881
C   C72       1.0  0.32614  0.65569  0.24561  1.0000 -0.0334270881
C   C73       1.0  0.38980  0.84826  0.73304  1.0000 -0.1009761891
C   C74       1.0  0.84826  0.73304  0.38980  1.0000 -0.1009761891
C   C75       1.0  0.73304  0.38980  0.84826  1.0000 -0.1009761891
C   C76       1.0  0.61020  0.15174  0.26696  1.0000 -0.1009761891
C   C77       1.0  0.15174  0.26696  0.61020  1.0000 -0.1009761891
C   C78       1.0  0.26696  0.61020  0.15174  1.0000 -0.1009761891
C   C79       1.0  0.44843  0.90789  0.72254  1.0000 -0.1490265765
C   C80       1.0  0.90789  0.72254  0.44843  1.0000 -0.1490265765
C   C81       1.0  0.72254  0.44843  0.90789  1.0000 -0.1490265765
C   C82       1.0  0.55157  0.09211  0.27746  1.0000 -0.1490265765
C   C83       1.0  0.09211  0.27746  0.55157  1.0000 -0.1490265765
C   C84       1.0  0.27746  0.55157  0.09211  1.0000 -0.1490265765
C   C85       1.0  0.27713  0.68922  0.68225  1.0000 0.5560373985
C   C86       1.0  0.68922  0.68225  0.27713  1.0000 0.5560373985
C   C87       1.0  0.68225  0.27713  0.68922  1.0000 0.5560373985
C   C88       1.0  0.72287  0.31078  0.31775  1.0000 0.5560373985
C   C89       1.0  0.31078  0.31775  0.72287  1.0000 0.5560373985
C   C90       1.0  0.31775  0.72287  0.31078  1.0000 0.5560373985
C   C91       1.0  0.65285  0.08477  0.80096  1.0000 0.0684477456
C   C92       1.0  0.08477  0.80096  0.65285  1.0000 0.0684477456
C   C93       1.0  0.80096  0.65285  0.08477  1.0000 0.0684477456
C   C94       1.0  0.34715  0.91523  0.19904  1.0000 0.0684477456
C   C95       1.0  0.91523  0.19904  0.34715  1.0000 0.0684477456
C   C96       1.0  0.19904  0.34715  0.91523  1.0000 0.0684477456
C   C97       1.0  0.68794  0.17778  0.84014  1.0000 -0.1423971854
C   C98       1.0  0.17778  0.84014  0.68794  1.0000 -0.1423971854
C   C99       1.0  0.84014  0.68794  0.17778  1.0000 -0.1423971854
C   C100      1.0  0.31206  0.82222  0.15986  1.0000 -0.1423971854
C   C101      1.0  0.82222  0.15986  0.31206  1.0000 -0.1423971854
C   C102      1.0  0.15986  0.31206  0.82222  1.0000 -0.1423971854
C   C103      1.0  0.73315  0.23495  0.93351  1.0000 -0.1094118482
C   C104      1.0  0.23495  0.93351  0.73315  1.0000 -0.1094118482
C   C105      1.0  0.93351  0.73315  0.23495  1.0000 -0.1094118482
C   C106      1.0  0.26685  0.76505  0.06649  1.0000 -0.1094118482
C   C107      1.0  0.76505  0.06649  0.26685  1.0000 -0.1094118482
C   C108      1.0  0.06649  0.26685  0.76505  1.0000 -0.1094118482
C   C109      1.0  0.74448  0.20032  0.98897  1.0000 -0.0129035207
C   C110      1.0  0.20032  0.98897  0.74448  1.0000 -0.0129035207
C   C111      1.0  0.98897  0.74448  0.20032  1.0000 -0.0129035207
C   C112      1.0  0.25552  0.79968  0.01103  1.0000 -0.0129035207
C   C113      1.0  0.79968  0.01103  0.25552  1.0000 -0.0129035207
C   C114      1.0  0.01103  0.25552  0.79968  1.0000 -0.0129035207
C   C115      1.0  0.71272  0.10826  0.95043  1.0000 -0.1009761891
C   C116      1.0  0.10826  0.95043  0.71272  1.0000 -0.1009761891
C   C117      1.0  0.95043  0.71272  0.10826  1.0000 -0.1009761891
C   C118      1.0  0.28728  0.89174  0.04957  1.0000 -0.1009761891
C   C119      1.0  0.89174  0.04957  0.28728  1.0000 -0.1009761891
C   C120      1.0  0.04957  0.28728  0.89174  1.0000 -0.1009761891
C   C121      1.0  0.66624  0.05057  0.85675  1.0000 -0.1490265765
C   C122      1.0  0.05057  0.85675  0.66624  1.0000 -0.1490265765
C   C123      1.0  0.85675  0.66624  0.05057  1.0000 -0.1490265765
C   C124      1.0  0.33376  0.94943  0.14325  1.0000 -0.1490265765
C   C125      1.0  0.94943  0.14325  0.33376  1.0000 -0.1490265765
C   C126      1.0  0.14325  0.33376  0.94943  1.0000 -0.1490265765
C   C127      1.0  0.78729  0.26109  0.08903  1.0000 0.5512060844
C   C128      1.0  0.26109  0.08903  0.78729  1.0000 0.5512060844
C   C129      1.0  0.08903  0.78729  0.26109  1.0000 0.5512060844
C   C130      1.0  0.21271  0.73891  0.91097  1.0000 0.5512060844
C   C131      1.0  0.73891  0.91097  0.21271  1.0000 0.5512060844
C   C132      1.0  0.91097  0.21271  0.73891  1.0000 0.5512060844
N   N1        1.0  0.67730  0.06255  0.53122  1.0000 -0.2699093646
N   N2        1.0  0.06255  0.53122  0.67730  1.0000 -0.2699093646
N   N3        1.0  0.53122  0.67730  0.06255  1.0000 -0.2699093646
N   N4        1.0  0.32270  0.93745  0.46878  1.0000 -0.2699093646
N   N5        1.0  0.93745  0.46878  0.32270  1.0000 -0.2699093646
N   N6        1.0  0.46878  0.32270  0.93745  1.0000 -0.2699093646
N   N7        1.0  0.63671  0.05182  0.65334  1.0000 -0.375637509
N   N8        1.0  0.05182  0.65334  0.63671  1.0000 -0.375637509
N   N9        1.0  0.65334  0.63671  0.05182  1.0000 -0.375637509
N   N10       1.0  0.36329  0.94818  0.34666  1.0000 -0.375637509
N   N11       1.0  0.94818  0.34666  0.36329  1.0000 -0.375637509
N   N12       1.0  0.34666  0.36329  0.94818  1.0000 -0.375637509
N   N13       1.0  0.51404  0.91386  0.55718  1.0000 -0.2699093646
N   N14       1.0  0.91386  0.55718  0.51404  1.0000 -0.2699093646
N   N15       1.0  0.55718  0.51404  0.91386  1.0000 -0.2699093646
N   N16       1.0  0.48596  0.08614  0.44282  1.0000 -0.2699093646
N   N17       1.0  0.08614  0.44282  0.48596  1.0000 -0.2699093646
N   N18       1.0  0.44282  0.48596  0.08614  1.0000 -0.2699093646
O   O1        1.0  0.26596  0.72523  0.74630  1.0000 -0.5293626364
O   O2        1.0  0.72523  0.74630  0.26596  1.0000 -0.5293626364
O   O3        1.0  0.74630  0.26596  0.72523  1.0000 -0.5293626364
O   O4        1.0  0.73404  0.27477  0.25370  1.0000 -0.5293626364
O   O5        1.0  0.27477  0.25370  0.73404  1.0000 -0.5293626364
O   O6        1.0  0.25370  0.73404  0.27477  1.0000 -0.5293626364
O   O7        1.0  0.23535  0.60632  0.62645  1.0000 -0.5764899727
O   O8        1.0  0.60632  0.62645  0.23535  1.0000 -0.5764899727
O   O9        1.0  0.62645  0.23535  0.60632  1.0000 -0.5764899727
O   O10       1.0  0.76465  0.39368  0.37355  1.0000 -0.5764899727
O   O11       1.0  0.39368  0.37355  0.76465  1.0000 -0.5764899727
O   O12       1.0  0.37355  0.76465  0.39368  1.0000 -0.5764899727
O   O13       1.0  0.78866  0.33301  0.11960  1.0000 -0.5564795709
O   O14       1.0  0.33301  0.11960  0.78866  1.0000 -0.5564795709
O   O15       1.0  0.11960  0.78866  0.33301  1.0000 -0.5564795709
O   O16       1.0  0.21134  0.66699  0.88040  1.0000 -0.5564795709
O   O17       1.0  0.66699  0.88040  0.21134  1.0000 -0.5564795709
O   O18       1.0  0.88040  0.21134  0.66699  1.0000 -0.5564795709
O   O19       1.0  0.81902  0.23489  0.14071  1.0000 -0.5229658163
O   O20       1.0  0.23489  0.14071  0.81902  1.0000 -0.5229658163
O   O21       1.0  0.14071  0.81902  0.23489  1.0000 -0.5229658163
O   O22       1.0  0.18098  0.76511  0.85929  1.0000 -0.5229658163
O   O23       1.0  0.76511  0.85929  0.18098  1.0000 -0.5229658163
O   O24       1.0  0.85929  0.18098  0.76511  1.0000 -0.5229658163
