# DDEC6 charges by PACMAN v1.1 (https://github.com/mtap-research/PACMAN-charge/)
data_2015[Cd][lon]3[ASR]1
_chemical_formula_sum              "Cd4 H12 C32 O16"
_cell_length_a       9.7549
_cell_length_b       13.1891
_cell_length_c       10.508
_cell_angle_alpha    90
_cell_angle_beta     109.603
_cell_angle_gamma    90

_symmetry_space_group_name_H-M    "P 1"
_symmetry_Int_Tables_number       1

loop_
  _symmetry_equiv_pos_as_xyz
  'x, y, z'

loop_
  _atom_site_type_symbol
  _atom_site_label
  _atom_site_symmetry_multiplicity
  _atom_site_fract_x
  _atom_site_fract_y
  _atom_site_fract_z
  _atom_site_occupancy
  _atom_site_charge
Cd  Cd1       1.0  0.75708  0.75344  0.44066  1.0000 1.0303253593
Cd  Cd2       1.0  0.24292  0.25344  0.55934  1.0000 1.0303253593
Cd  Cd3       1.0  0.77701  0.52503  0.59936  1.0000 0.9974176945
Cd  Cd4       1.0  0.22299  0.02504  0.40064  1.0000 0.9974176945
H   H1        1.0  0.26897  0.71419  0.49725  1.0000 0.1282938333
H   H2        1.0  0.73103  0.21419  0.50275  1.0000 0.1282938333
H   H3        1.0  0.18413  0.54397  0.81447  1.0000 0.1282938333
H   H4        1.0  0.81587  0.04397  0.18553  1.0000 0.1282938333
H   H5        1.0  0.62568  0.57305  0.81741  1.0000 0.1087723957
H   H6        1.0  0.37432  0.07305  0.18259  1.0000 0.1087723957
H   H7        1.0  0.58116  0.60290  0.08656  1.0000 0.123548186
H   H8        1.0  0.41884  0.10290  0.91344  1.0000 0.123548186
H   H9        1.0  0.54307  0.32721  0.28385  1.0000 0.1087723957
H   H10       1.0  0.45693  0.82722  0.71615  1.0000 0.1087723957
H   H11       1.0  0.38534  0.25122  0.06248  1.0000 0.1013396965
H   H12       1.0  0.61466  0.75122  0.93752  1.0000 0.1013396965
C   C1        1.0  0.45853  0.64663  0.65030  1.0000 -0.0298559576
C   C2        1.0  0.54147  0.14663  0.34970  1.0000 -0.0298559576
C   C3        1.0  0.30865  0.66947  0.59125  1.0000 -0.099019294
C   C4        1.0  0.69135  0.16947  0.40875  1.0000 -0.099019294
C   C5        1.0  0.21337  0.63366  0.65531  1.0000 -0.0298559576
C   C6        1.0  0.78663  0.13366  0.34469  1.0000 -0.0298559576
C   C7        1.0  0.26427  0.57314  0.77167  1.0000 -0.130003163
C   C8        1.0  0.73573  0.07314  0.22833  1.0000 -0.130003163
C   C9        1.0  0.41088  0.54929  0.82860  1.0000 0.0851893859
C   C10       1.0  0.58912  0.04929  0.17140  1.0000 0.0851893859
C   C11       1.0  0.50885  0.58797  0.76918  1.0000 -0.1386990188
C   C12       1.0  0.49115  0.08797  0.23082  1.0000 -0.1386990188
C   C13       1.0  0.56530  0.69159  0.59206  1.0000 0.5559048913
C   C14       1.0  0.43470  0.19159  0.40794  1.0000 0.5559048913
C   C15       1.0  0.05226  0.65088  0.60639  1.0000 0.6185530486
C   C16       1.0  0.94774  0.15088  0.39361  1.0000 0.6185530486
C   C17       1.0  0.39828  0.38688  0.94808  1.0000 -0.0358983589
C   C18       1.0  0.60172  0.88688  0.05192  1.0000 -0.0358983589
C   C19       1.0  0.45512  0.48607  0.95235  1.0000 0.0529693539
C   C20       1.0  0.54488  0.98607  0.04765  1.0000 0.0529693539
C   C21       1.0  0.54098  0.52541  0.07618  1.0000 -0.130003163
C   C22       1.0  0.45902  0.02541  0.92382  1.0000 -0.130003163
C   C23       1.0  0.57160  0.46577  0.19220  1.0000 -0.0209199809
C   C24       1.0  0.42840  0.96577  0.80780  1.0000 -0.0209199809
C   C25       1.0  0.51653  0.36759  0.18756  1.0000 -0.0908642312
C   C26       1.0  0.48347  0.86759  0.81244  1.0000 -0.0908642312
C   C27       1.0  0.42910  0.32810  0.06531  1.0000 -0.0908642312
C   C28       1.0  0.57090  0.82810  0.93469  1.0000 -0.0908642312
C   C29       1.0  0.30557  0.34215  0.81577  1.0000 0.5547687473
C   C30       1.0  0.69443  0.84215  0.18423  1.0000 0.5559048913
C   C31       1.0  0.65635  0.50496  0.32836  1.0000 0.5938106837
C   C32       1.0  0.34365  0.00496  0.67164  1.0000 0.5938106837
O   O1        1.0  0.52612  0.75103  0.49290  1.0000 -0.4881032644
O   O2        1.0  0.47387  0.25102  0.50710  1.0000 -0.4881032644
O   O3        1.0  0.70395  0.66816  0.65081  1.0000 -0.632125908
O   O4        1.0  0.29605  0.16816  0.34918  1.0000 -0.632125908
O   O5        1.0  0.99607  0.72707  0.53349  1.0000 -0.5381392179
O   O6        1.0  0.00393  0.22706  0.46651  1.0000 -0.5381392179
O   O7        1.0  0.98709  0.58202  0.65135  1.0000 -0.5568523942
O   O8        1.0  0.01292  0.08202  0.34865  1.0000 -0.5568523942
O   O9        1.0  0.36383  0.35051  0.72059  1.0000 -0.5460233031
O   O10       1.0  0.63617  0.85051  0.27941  1.0000 -0.5460233031
O   O11       1.0  0.18600  0.30115  0.80349  1.0000 -0.5381392179
O   O12       1.0  0.81399  0.80115  0.19652  1.0000 -0.5381392179
O   O13       1.0  0.71045  0.59337  0.34524  1.0000 -0.5755152641
O   O14       1.0  0.28955  0.09337  0.65476  1.0000 -0.5755152641
O   O15       1.0  0.66764  0.44117  0.42715  1.0000 -0.5176456509
O   O16       1.0  0.33236  0.94117  0.57285  1.0000 -0.5176456509
