# DDEC6 charges by PACMAN v1.1 (https://github.com/mtap-research/PACMAN-charge/)
data_2015[Mn][nan]3[ASR]15
_chemical_formula_sum              "Mn8 H32 C64 O32"
_cell_length_a       13.0696
_cell_length_b       13.0696
_cell_length_c       11.2867
_cell_angle_alpha    90
_cell_angle_beta     90
_cell_angle_gamma    90

_symmetry_space_group_name_H-M    "P 1"
_symmetry_Int_Tables_number       1

loop_
  _symmetry_equiv_pos_as_xyz
  'x, y, z'

loop_
  _atom_site_type_symbol
  _atom_site_label
  _atom_site_symmetry_multiplicity
  _atom_site_fract_x
  _atom_site_fract_y
  _atom_site_fract_z
  _atom_site_occupancy
  _atom_site_charge
Mn  Mn1       1.0  0.98963  0.74303  0.10474  1.0000 1.0683622031
Mn  Mn2       1.0  0.01037  0.25697  0.60474  1.0000 1.0683622031
Mn  Mn3       1.0  0.74303  0.01037  0.35474  1.0000 1.0683622031
Mn  Mn4       1.0  0.25697  0.98963  0.85474  1.0000 1.0683622031
Mn  Mn5       1.0  0.21927  0.74994  0.95790  1.0000 0.9898940293
Mn  Mn6       1.0  0.78073  0.25006  0.45790  1.0000 0.9898940293
Mn  Mn7       1.0  0.74994  0.78073  0.20790  1.0000 0.9898940293
Mn  Mn8       1.0  0.25006  0.21927  0.70790  1.0000 0.9898940293
H   H1        1.0  0.99860  0.98900  0.71440  1.0000 0.1189256065
H   H2        1.0  0.00140  0.01100  0.21440  1.0000 0.1189256065
H   H3        1.0  0.98900  0.00140  0.96440  1.0000 0.1189256065
H   H4        1.0  0.01100  0.99860  0.46440  1.0000 0.1189256065
H   H5        1.0  0.70510  0.92260  0.64640  1.0000 0.1189256065
H   H6        1.0  0.29490  0.07740  0.14640  1.0000 0.1189256065
H   H7        1.0  0.92260  0.29490  0.89640  1.0000 0.1189256065
H   H8        1.0  0.07740  0.70510  0.39640  1.0000 0.1189256065
H   H9        1.0  0.72460  0.76730  0.74510  1.0000 0.1081332533
H   H10       1.0  0.27540  0.23270  0.24510  1.0000 0.1081332533
H   H11       1.0  0.76730  0.27540  0.99510  1.0000 0.1081332533
H   H12       1.0  0.23270  0.72460  0.49510  1.0000 0.1081332533
H   H13       1.0  0.87880  0.72540  0.83250  1.0000 0.1290884148
H   H14       1.0  0.12120  0.27460  0.33250  1.0000 0.1290884148
H   H15       1.0  0.72540  0.12120  0.08250  1.0000 0.1290884148
H   H16       1.0  0.27460  0.87880  0.58250  1.0000 0.1290884148
H   H17       1.0  0.87900  0.49930  0.85130  1.0000 0.1290884148
H   H18       1.0  0.12100  0.50070  0.35130  1.0000 0.1290884148
H   H19       1.0  0.49930  0.12100  0.10130  1.0000 0.1290884148
H   H20       1.0  0.50070  0.87900  0.60130  1.0000 0.1290884148
H   H21       1.0  0.62380  0.34280  0.76980  1.0000 0.1290884148
H   H22       1.0  0.37620  0.65720  0.26980  1.0000 0.1290884148
H   H23       1.0  0.34280  0.37620  0.01980  1.0000 0.1290884148
H   H24       1.0  0.65720  0.62380  0.51980  1.0000 0.1290884148
H   H25       1.0  0.54120  0.41170  0.93000  1.0000 0.1189256065
H   H26       1.0  0.45880  0.58830  0.43000  1.0000 0.1189256065
H   H27       1.0  0.41170  0.45880  0.18000  1.0000 0.1189256065
H   H28       1.0  0.58830  0.54120  0.68000  1.0000 0.1189256065
H   H29       1.0  0.62600  0.52860  0.05160  1.0000 0.1189256065
H   H30       1.0  0.37400  0.47140  0.55160  1.0000 0.1189256065
H   H31       1.0  0.52860  0.37400  0.30160  1.0000 0.1189256065
H   H32       1.0  0.47140  0.62600  0.80160  1.0000 0.1189256065
C   C1        1.0  0.05520  0.82760  0.83870  1.0000 0.5829340486
C   C2        1.0  0.94480  0.17240  0.33870  1.0000 0.5829340486
C   C3        1.0  0.82760  0.94480  0.08870  1.0000 0.5829340486
C   C4        1.0  0.17240  0.05520  0.58870  1.0000 0.5829340486
C   C5        1.0  0.84110  0.07250  0.60910  1.0000 0.5986426739
C   C6        1.0  0.15890  0.92750  0.10910  1.0000 0.5986426739
C   C7        1.0  0.07250  0.15890  0.85910  1.0000 0.5986426739
C   C8        1.0  0.92750  0.84110  0.35910  1.0000 0.5986426739
C   C9        1.0  0.81340  0.60260  0.04290  1.0000 0.5871293215
C   C10       1.0  0.18660  0.39740  0.54290  1.0000 0.5871293215
C   C11       1.0  0.60260  0.18660  0.29290  1.0000 0.5871293215
C   C12       1.0  0.39740  0.81340  0.79290  1.0000 0.5871293215
C   C13       1.0  0.81020  0.36490  0.68740  1.0000 0.5829340486
C   C14       1.0  0.18980  0.63510  0.18740  1.0000 0.5829340486
C   C15       1.0  0.36490  0.18980  0.93740  1.0000 0.5829340486
C   C16       1.0  0.63510  0.81020  0.43740  1.0000 0.5829340486
C   C17       1.0  0.95460  0.85190  0.78160  1.0000 -0.0222231861
C   C18       1.0  0.04540  0.14810  0.28160  1.0000 -0.0222231861
C   C19       1.0  0.85190  0.04540  0.03160  1.0000 -0.0222231861
C   C20       1.0  0.14810  0.95460  0.53160  1.0000 -0.0222231861
C   C21       1.0  0.94330  0.94460  0.72080  1.0000 -0.1210619857
C   C22       1.0  0.05670  0.05540  0.22080  1.0000 -0.1210619857
C   C23       1.0  0.94460  0.05670  0.97080  1.0000 -0.1210619857
C   C24       1.0  0.05540  0.94330  0.47080  1.0000 -0.1210619857
C   C25       1.0  0.84920  0.97120  0.66960  1.0000 -0.0300416655
C   C26       1.0  0.15080  0.02880  0.16960  1.0000 -0.0300416655
C   C27       1.0  0.97120  0.15080  0.91960  1.0000 -0.0300416655
C   C28       1.0  0.02880  0.84920  0.41960  1.0000 -0.0300416655
C   C29       1.0  0.76800  0.90540  0.67960  1.0000 -0.0892581413
C   C30       1.0  0.23200  0.09460  0.17960  1.0000 -0.0892581413
C   C31       1.0  0.90540  0.23200  0.92960  1.0000 -0.0892581413
C   C32       1.0  0.09460  0.76800  0.42960  1.0000 -0.0892581413
C   C33       1.0  0.77950  0.81220  0.73980  1.0000 -0.0817318311
C   C34       1.0  0.22050  0.18780  0.23980  1.0000 -0.0817318311
C   C35       1.0  0.81220  0.22050  0.98980  1.0000 -0.0817318311
C   C36       1.0  0.18780  0.77950  0.48980  1.0000 -0.0817318311
C   C37       1.0  0.87220  0.78660  0.79130  1.0000 -0.0817318311
C   C38       1.0  0.12780  0.21340  0.29130  1.0000 -0.0817318311
C   C39       1.0  0.78660  0.12780  0.04130  1.0000 -0.0817318311
C   C40       1.0  0.21340  0.87220  0.54130  1.0000 -0.0817318311
C   C41       1.0  0.76080  0.52520  0.96330  1.0000 -0.0300416655
C   C42       1.0  0.23920  0.47480  0.46330  1.0000 -0.0300416655
C   C43       1.0  0.52520  0.23920  0.21330  1.0000 -0.0300416655
C   C44       1.0  0.47480  0.76080  0.71330  1.0000 -0.0300416655
C   C45       1.0  0.81110  0.48250  0.86660  1.0000 -0.1210619857
C   C46       1.0  0.18890  0.51750  0.36660  1.0000 -0.1210619857
C   C47       1.0  0.48250  0.18890  0.11660  1.0000 -0.1210619857
C   C48       1.0  0.51750  0.81110  0.61660  1.0000 -0.1210619857
C   C49       1.0  0.75900  0.41440  0.79250  1.0000 -0.0300416655
C   C50       1.0  0.24100  0.58560  0.29250  1.0000 -0.0300416655
C   C51       1.0  0.41440  0.24100  0.04250  1.0000 -0.0300416655
C   C52       1.0  0.58560  0.75900  0.54250  1.0000 -0.0300416655
C   C53       1.0  0.65820  0.38880  0.81840  1.0000 -0.1015221781
C   C54       1.0  0.34180  0.61120  0.31840  1.0000 -0.1015221781
C   C55       1.0  0.38880  0.34180  0.06840  1.0000 -0.1015221781
C   C56       1.0  0.61120  0.65820  0.56840  1.0000 -0.1015221781
C   C57       1.0  0.60860  0.42990  0.91390  1.0000 -0.1015221781
C   C58       1.0  0.39140  0.57010  0.41390  1.0000 -0.1015221781
C   C59       1.0  0.42990  0.39140  0.16390  1.0000 -0.1015221781
C   C60       1.0  0.57010  0.60860  0.66390  1.0000 -0.1015221781
C   C61       1.0  0.65960  0.49960  0.98720  1.0000 -0.1015221781
C   C62       1.0  0.34040  0.50040  0.48720  1.0000 -0.1015221781
C   C63       1.0  0.49960  0.34040  0.23720  1.0000 -0.1015221781
C   C64       1.0  0.50040  0.65960  0.73720  1.0000 -0.1015221781
O   O1        1.0  0.05650  0.76010  0.91930  1.0000 -0.5687979938
O   O2        1.0  0.94350  0.23990  0.41930  1.0000 -0.5687979938
O   O3        1.0  0.76010  0.94350  0.16930  1.0000 -0.5687979938
O   O4        1.0  0.23990  0.05650  0.66930  1.0000 -0.5687979938
O   O5        1.0  0.13540  0.87240  0.80730  1.0000 -0.5599297913
O   O6        1.0  0.86460  0.12760  0.30730  1.0000 -0.5599297913
O   O7        1.0  0.87240  0.86460  0.05730  1.0000 -0.5599297913
O   O8        1.0  0.12760  0.13540  0.55730  1.0000 -0.5599297913
O   O9        1.0  0.77210  0.08750  0.53090  1.0000 -0.5687979938
O   O10       1.0  0.22790  0.91250  0.03090  1.0000 -0.5687979938
O   O11       1.0  0.08750  0.22790  0.78090  1.0000 -0.5687979938
O   O12       1.0  0.91250  0.77210  0.28090  1.0000 -0.5687979938
O   O13       1.0  0.90370  0.14030  0.63840  1.0000 -0.5687979938
O   O14       1.0  0.09630  0.85970  0.13840  1.0000 -0.5687979938
O   O15       1.0  0.14030  0.09630  0.88840  1.0000 -0.5687979938
O   O16       1.0  0.85970  0.90370  0.38840  1.0000 -0.5687979938
O   O17       1.0  0.75920  0.64300  0.12220  1.0000 -0.5687979938
O   O18       1.0  0.24080  0.35700  0.62220  1.0000 -0.5687979938
O   O19       1.0  0.64300  0.24080  0.37220  1.0000 -0.5687979938
O   O20       1.0  0.35700  0.75920  0.87220  1.0000 -0.5687979938
O   O21       1.0  0.90490  0.62280  0.02560  1.0000 -0.531307611
O   O22       1.0  0.09510  0.37720  0.52560  1.0000 -0.531307611
O   O23       1.0  0.62280  0.09510  0.27560  1.0000 -0.531307611
O   O24       1.0  0.37720  0.90490  0.77560  1.0000 -0.531307611
O   O25       1.0  0.75000  0.32180  0.61610  1.0000 -0.5599297913
O   O26       1.0  0.25000  0.67820  0.11610  1.0000 -0.5599297913
O   O27       1.0  0.32180  0.25000  0.86610  1.0000 -0.5599297913
O   O28       1.0  0.67820  0.75000  0.36610  1.0000 -0.5599297913
O   O29       1.0  0.90520  0.36760  0.67880  1.0000 -0.5428775878
O   O30       1.0  0.09480  0.63240  0.17880  1.0000 -0.5428775878
O   O31       1.0  0.36760  0.09480  0.92880  1.0000 -0.5428775878
O   O32       1.0  0.63240  0.90520  0.42880  1.0000 -0.5428775878
