# DDEC6 charges by PACMAN v1.1 (https://github.com/mtap-research/PACMAN-charge/)
data_2015[AgTb][nan]3[ASR]1
_chemical_formula_sum              "Tb4 Ag4 H32 C56 N8 O32"
_cell_length_a       12.0459
_cell_length_b       12.0459
_cell_length_c       16.788
_cell_angle_alpha    83.6136
_cell_angle_beta     96.3864
_cell_angle_gamma    133.519

_symmetry_space_group_name_H-M    "P 1"
_symmetry_Int_Tables_number       1

loop_
  _symmetry_equiv_pos_as_xyz
  'x, y, z'

loop_
  _atom_site_type_symbol
  _atom_site_label
  _atom_site_symmetry_multiplicity
  _atom_site_fract_x
  _atom_site_fract_y
  _atom_site_fract_z
  _atom_site_occupancy
  _atom_site_charge
Tb  Tb1       1.0  0.29509  0.30425  0.56567  1.0000 2.0531931731
Tb  Tb2       1.0  0.30425  0.29509  0.93433  1.0000 2.0531931731
Tb  Tb3       1.0  0.70491  0.69575  0.43433  1.0000 2.0531931731
Tb  Tb4       1.0  0.69575  0.70491  0.06567  1.0000 2.0531931731
Ag  Ag1       1.0  0.96242  0.28016  0.41761  1.0000 0.3353559437
Ag  Ag2       1.0  0.28016  0.96242  0.08239  1.0000 0.3353559437
Ag  Ag3       1.0  0.03758  0.71984  0.58239  1.0000 0.3353559437
Ag  Ag4       1.0  0.71984  0.03758  0.91761  1.0000 0.3353559437
H   H1        1.0  0.49720  0.86680  0.38190  1.0000 0.1431672841
H   H2        1.0  0.86680  0.49720  0.11810  1.0000 0.1431672841
H   H3        1.0  0.50280  0.13320  0.61810  1.0000 0.1431672841
H   H4        1.0  0.13320  0.50280  0.88190  1.0000 0.1431672841
H   H5        1.0  0.13450  0.03650  0.33190  1.0000 0.1431672841
H   H6        1.0  0.03650  0.13450  0.16810  1.0000 0.1431672841
H   H7        1.0  0.86550  0.96350  0.66810  1.0000 0.1431672841
H   H8        1.0  0.96350  0.86550  0.83190  1.0000 0.1431672841
H   H9        1.0  0.17110  0.58750  0.54110  1.0000 0.1132403079
H   H10       1.0  0.58750  0.17110  0.95890  1.0000 0.1132403079
H   H11       1.0  0.82890  0.41250  0.45890  1.0000 0.1132403079
H   H12       1.0  0.41250  0.82890  0.04110  1.0000 0.1132403079
H   H13       1.0  0.10770  0.90810  0.22810  1.0000 0.1204797067
H   H14       1.0  0.90810  0.10770  0.27190  1.0000 0.1204797067
H   H15       1.0  0.89230  0.09190  0.77190  1.0000 0.1204797067
H   H16       1.0  0.09190  0.89230  0.72810  1.0000 0.1204797067
H   H17       1.0  0.57420  0.38340  0.27950  1.0000 0.1532704296
H   H18       1.0  0.38340  0.57420  0.22050  1.0000 0.1532704296
H   H19       1.0  0.42580  0.61660  0.72050  1.0000 0.1532704296
H   H20       1.0  0.61660  0.42580  0.77950  1.0000 0.1532704296
H   H21       1.0  0.53550  0.24010  0.18100  1.0000 0.1022678174
H   H22       1.0  0.24010  0.53550  0.31900  1.0000 0.1022678174
H   H23       1.0  0.46450  0.75990  0.81900  1.0000 0.1022678174
H   H24       1.0  0.75990  0.46450  0.68100  1.0000 0.1022678174
H   H25       1.0  0.25010  0.94590  0.44590  1.0000 0.1204797067
H   H26       1.0  0.94590  0.25010  0.05410  1.0000 0.1204797067
H   H27       1.0  0.74990  0.05410  0.55410  1.0000 0.1204797067
H   H28       1.0  0.05410  0.74990  0.94590  1.0000 0.1204797067
H   H29       1.0  0.43250  0.01050  0.36980  1.0000 0.1204797067
H   H30       1.0  0.01050  0.43250  0.13020  1.0000 0.1204797067
H   H31       1.0  0.56750  0.98950  0.63020  1.0000 0.1204797067
H   H32       1.0  0.98950  0.56750  0.86980  1.0000 0.1204797067
C   C1        1.0  0.42010  0.83930  0.41170  1.0000 -0.0570815618
C   C2        1.0  0.83930  0.42010  0.08830  1.0000 -0.0570815618
C   C3        1.0  0.57990  0.16070  0.58830  1.0000 -0.0570815618
C   C4        1.0  0.16070  0.57990  0.91170  1.0000 -0.0570815618
C   C5        1.0  0.35780  0.22880  0.31540  1.0000 0.0197408592
C   C6        1.0  0.22880  0.35780  0.18460  1.0000 0.0197408592
C   C7        1.0  0.64220  0.77120  0.68460  1.0000 0.0197408592
C   C8        1.0  0.77120  0.64220  0.81540  1.0000 0.0149796165
C   C9        1.0  0.37430  0.61110  0.47560  1.0000 0.6149674866
C   C10       1.0  0.61110  0.37430  0.02440  1.0000 0.6149674866
C   C11       1.0  0.62570  0.38890  0.52440  1.0000 0.6149674866
C   C12       1.0  0.38890  0.62570  0.97560  1.0000 0.6149674866
C   C13       1.0  0.37840  0.32320  0.37870  1.0000 0.6232750031
C   C14       1.0  0.32320  0.37840  0.12130  1.0000 0.6232750031
C   C15       1.0  0.62160  0.67680  0.62130  1.0000 0.6232750031
C   C16       1.0  0.67680  0.62160  0.87870  1.0000 0.6232750031
C   C17       1.0  0.21710  0.08210  0.30070  1.0000 -0.1581068125
C   C18       1.0  0.08210  0.21710  0.19930  1.0000 -0.1581068125
C   C19       1.0  0.78290  0.91790  0.69930  1.0000 -0.1581068125
C   C20       1.0  0.91790  0.78290  0.80070  1.0000 -0.1581068125
C   C21       1.0  0.33930  0.70970  0.46410  1.0000 -0.0756203023
C   C22       1.0  0.70970  0.33930  0.03590  1.0000 -0.0756203023
C   C23       1.0  0.66070  0.29030  0.53590  1.0000 -0.0756203023
C   C24       1.0  0.29030  0.66070  0.96410  1.0000 -0.0756203023
C   C25       1.0  0.22640  0.67480  0.50700  1.0000 0.0197408592
C   C26       1.0  0.67480  0.22640  0.99300  1.0000 0.0197408592
C   C27       1.0  0.77360  0.32520  0.49300  1.0000 0.0197408592
C   C28       1.0  0.32520  0.77360  0.00700  1.0000 0.0197408592
C   C29       1.0  0.20250  0.00530  0.23860  1.0000 0.0778072986
C   C30       1.0  0.00530  0.20250  0.26140  1.0000 0.0778072986
C   C31       1.0  0.79750  0.99470  0.76140  1.0000 0.0778072986
C   C32       1.0  0.99470  0.79750  0.73860  1.0000 0.0778072986
C   C33       1.0  0.96570  0.03590  0.48870  1.0000 0.4866446468
C   C34       1.0  0.03590  0.96570  0.01130  1.0000 0.4866446468
C   C35       1.0  0.03430  0.96410  0.51130  1.0000 0.4866446468
C   C36       1.0  0.96410  0.03430  0.98870  1.0000 0.4866446468
C   C37       1.0  0.47770  0.28710  0.27020  1.0000 -0.1422743884
C   C38       1.0  0.28710  0.47770  0.22980  1.0000 -0.1422743884
C   C39       1.0  0.52230  0.71290  0.72980  1.0000 -0.1422743884
C   C40       1.0  0.71290  0.52230  0.77020  1.0000 -0.1422743884
C   C41       1.0  0.45300  0.20040  0.21050  1.0000 0.0778072986
C   C42       1.0  0.20040  0.45300  0.28950  1.0000 0.0778072986
C   C43       1.0  0.54700  0.79960  0.78950  1.0000 0.0778072986
C   C44       1.0  0.79960  0.54700  0.71050  1.0000 0.0778072986
C   C45       1.0  0.27210  0.88490  0.45050  1.0000 0.0725815768
C   C46       1.0  0.88490  0.27210  0.04950  1.0000 0.0725815768
C   C47       1.0  0.72790  0.11510  0.54950  1.0000 0.0725815768
C   C48       1.0  0.11510  0.72790  0.95050  1.0000 0.0725815768
C   C49       1.0  0.38230  0.92510  0.40520  1.0000 -0.1422743884
C   C50       1.0  0.92510  0.38230  0.09480  1.0000 -0.1422743884
C   C51       1.0  0.61770  0.07490  0.59480  1.0000 -0.1422743884
C   C52       1.0  0.07490  0.61770  0.90520  1.0000 -0.1422743884
C   C53       1.0  0.22150  0.29170  0.74500  1.0000 0.4749075088
C   C54       1.0  0.29170  0.22150  0.75500  1.0000 0.4755979094
C   C55       1.0  0.77850  0.70830  0.25500  1.0000 0.4755979094
C   C56       1.0  0.70830  0.77850  0.24500  1.0000 0.4749075088
N   N1        1.0  0.31790  0.06430  0.19340  1.0000 -0.1824893796
N   N2        1.0  0.06430  0.31790  0.30660  1.0000 -0.1824893796
N   N3        1.0  0.68210  0.93570  0.80660  1.0000 -0.1824893796
N   N4        1.0  0.93570  0.68210  0.69340  1.0000 -0.1824893796
N   N5        1.0  0.19270  0.76110  0.50170  1.0000 -0.1824893796
N   N6        1.0  0.76110  0.19270  0.99830  1.0000 -0.1824893796
N   N7        1.0  0.80730  0.23890  0.49830  1.0000 -0.1824893796
N   N8        1.0  0.23890  0.80730  0.00170  1.0000 -0.1824893796
O   O1        1.0  0.27460  0.25820  0.42670  1.0000 -0.6416342047
O   O2        1.0  0.25820  0.27460  0.07330  1.0000 -0.6416342047
O   O3        1.0  0.72540  0.74180  0.57330  1.0000 -0.6416342047
O   O4        1.0  0.74180  0.72540  0.92670  1.0000 -0.6416342047
O   O5        1.0  0.03392  0.16068  0.51890  1.0000 -0.5695075778
O   O6        1.0  0.16068  0.03392  0.98110  1.0000 -0.5695075778
O   O7        1.0  0.96608  0.83932  0.48110  1.0000 -0.5695075778
O   O8        1.0  0.83932  0.96608  0.01890  1.0000 -0.5695075778
O   O9        1.0  0.27510  0.47950  0.50680  1.0000 -0.6346968499
O   O10       1.0  0.47950  0.27510  0.99320  1.0000 -0.6346968499
O   O11       1.0  0.72490  0.52050  0.49320  1.0000 -0.6346968499
O   O12       1.0  0.52050  0.72490  0.00680  1.0000 -0.6346968499
O   O13       1.0  0.85040  0.96540  0.44150  1.0000 -0.5899976802
O   O14       1.0  0.96540  0.85040  0.05850  1.0000 -0.5899976802
O   O15       1.0  0.14960  0.03460  0.55850  1.0000 -0.5899976802
O   O16       1.0  0.03460  0.14960  0.94150  1.0000 -0.5899976802
O   O17       1.0  0.50120  0.46200  0.37730  1.0000 -0.6749638107
O   O18       1.0  0.46200  0.50120  0.12270  1.0000 -0.6749638107
O   O19       1.0  0.49880  0.53800  0.62270  1.0000 -0.6749638107
O   O20       1.0  0.53800  0.49880  0.87730  1.0000 -0.6749638107
O   O21       1.0  0.50120  0.66940  0.45400  1.0000 -0.6475525287
O   O22       1.0  0.66940  0.50120  0.04600  1.0000 -0.6475525287
O   O23       1.0  0.49880  0.33060  0.54600  1.0000 -0.6475525287
O   O24       1.0  0.33060  0.49880  0.95400  1.0000 -0.6475525287
O   O25       1.0  0.18130  0.30410  0.67510  1.0000 -0.5899976802
O   O26       1.0  0.30410  0.18130  0.82490  1.0000 -0.5899976802
O   O27       1.0  0.81870  0.69590  0.32490  1.0000 -0.5899976802
O   O28       1.0  0.69590  0.81870  0.17510  1.0000 -0.5899976802
O   O29       1.0  0.21040  0.32980  0.80760  1.0000 -0.5830422428
O   O30       1.0  0.32980  0.21040  0.69240  1.0000 -0.5830422428
O   O31       1.0  0.78960  0.67020  0.19240  1.0000 -0.5830422428
O   O32       1.0  0.67020  0.78960  0.30760  1.0000 -0.5830422428
