# DDEC6 charges by PACMAN v1.1 (https://github.com/mtap-research/PACMAN-charge/)
data_2015[Cd][fcu]3[ASR]1
_chemical_formula_sum              "Cd10 H64 C96 N80 O4"
_cell_length_a       12.6177
_cell_length_b       12.5869
_cell_length_c       29.8171
_cell_angle_alpha    90
_cell_angle_beta     108.001
_cell_angle_gamma    90

_symmetry_space_group_name_H-M    "P 1"
_symmetry_Int_Tables_number       1

loop_
  _symmetry_equiv_pos_as_xyz
  'x, y, z'

loop_
  _atom_site_type_symbol
  _atom_site_label
  _atom_site_symmetry_multiplicity
  _atom_site_fract_x
  _atom_site_fract_y
  _atom_site_fract_z
  _atom_site_occupancy
  _atom_site_charge
Cd  Cd1       1.0  0.95399  0.33110  0.38884  1.0000 0.6592998127
Cd  Cd2       1.0  0.04601  0.83110  0.11116  1.0000 0.6592998127
Cd  Cd3       1.0  0.04601  0.66890  0.61116  1.0000 0.6592998127
Cd  Cd4       1.0  0.95399  0.16890  0.88884  1.0000 0.6592998127
Cd  Cd5       1.0  0.74720  0.54012  0.39126  1.0000 0.6718045245
Cd  Cd6       1.0  0.25280  0.04012  0.10874  1.0000 0.6718045245
Cd  Cd7       1.0  0.25280  0.45988  0.60874  1.0000 0.6718045245
Cd  Cd8       1.0  0.74720  0.95988  0.89126  1.0000 0.6718045245
Cd  Cd9       1.0  1.00000  0.50000  0.50000  1.0000 0.7668225984
Cd  Cd10      1.0  0.00000  0.00000  0.00000  1.0000 0.7668225984
H   H1        1.0  0.14820  0.27750  0.25680  1.0000 0.1429756204
H   H2        1.0  0.85180  0.77750  0.24320  1.0000 0.1429756204
H   H3        1.0  0.85180  0.72250  0.74320  1.0000 0.1429756204
H   H4        1.0  0.14820  0.22250  0.75680  1.0000 0.1429756204
H   H5        1.0  0.91740  0.05430  0.25490  1.0000 0.1429756204
H   H6        1.0  0.08260  0.55430  0.24510  1.0000 0.1429756204
H   H7        1.0  0.08260  0.94570  0.74510  1.0000 0.1429756204
H   H8        1.0  0.91740  0.44570  0.75490  1.0000 0.1429756204
H   H9        1.0  0.58000  0.67510  0.58380  1.0000 0.1429756204
H   H10       1.0  0.42000  0.17510  0.91620  1.0000 0.1429756204
H   H11       1.0  0.42000  0.32490  0.41620  1.0000 0.1429756204
H   H12       1.0  0.58000  0.82490  0.08380  1.0000 0.1429756204
H   H13       1.0  0.10610  0.13160  0.44160  1.0000 0.109087783
H   H14       1.0  0.89390  0.63160  0.05840  1.0000 0.109087783
H   H15       1.0  0.89390  0.86840  0.55840  1.0000 0.109087783
H   H16       1.0  0.10610  0.36840  0.94160  1.0000 0.109087783
H   H17       1.0  0.76420  0.98260  0.41810  1.0000 0.14627869
H   H18       1.0  0.23580  0.48260  0.08190  1.0000 0.14627869
H   H19       1.0  0.23580  0.01740  0.58190  1.0000 0.14627869
H   H20       1.0  0.76420  0.51740  0.91810  1.0000 0.14627869
H   H21       1.0  0.13270  0.33850  0.32660  1.0000 0.109087783
H   H22       1.0  0.86730  0.83850  0.17340  1.0000 0.109087783
H   H23       1.0  0.86730  0.66150  0.67340  1.0000 0.109087783
H   H24       1.0  0.13270  0.16150  0.82660  1.0000 0.109087783
H   H25       1.0  0.78460  0.15970  0.40640  1.0000 0.109087783
H   H26       1.0  0.21540  0.65970  0.09360  1.0000 0.109087783
H   H27       1.0  0.21540  0.84030  0.59360  1.0000 0.109087783
H   H28       1.0  0.78460  0.34030  0.90640  1.0000 0.109087783
H   H29       1.0  0.09880  0.95330  0.45740  1.0000 0.14627869
H   H30       1.0  0.90120  0.45330  0.04260  1.0000 0.14627869
H   H31       1.0  0.90120  0.04670  0.54260  1.0000 0.14627869
H   H32       1.0  0.09880  0.54670  0.95740  1.0000 0.14627869
H   H33       1.0  0.37070  0.61030  0.26240  1.0000 0.1429756204
H   H34       1.0  0.62930  0.11030  0.23760  1.0000 0.1429756204
H   H35       1.0  0.62930  0.38970  0.73760  1.0000 0.1429756204
H   H36       1.0  0.37070  0.88970  0.76240  1.0000 0.1429756204
H   H37       1.0  0.41460  0.34910  0.55550  1.0000 0.109087783
H   H38       1.0  0.58540  0.84910  0.94450  1.0000 0.109087783
H   H39       1.0  0.58540  0.65090  0.44450  1.0000 0.109087783
H   H40       1.0  0.41460  0.15090  0.05550  1.0000 0.109087783
H   H41       1.0  0.59250  0.83950  0.26340  1.0000 0.1429756204
H   H42       1.0  0.40750  0.33950  0.23660  1.0000 0.1429756204
H   H43       1.0  0.40750  0.16050  0.73660  1.0000 0.1429756204
H   H44       1.0  0.59250  0.66050  0.76340  1.0000 0.1429756204
H   H45       1.0  0.90280  0.12770  0.32260  1.0000 0.0992397028
H   H46       1.0  0.09720  0.62770  0.17740  1.0000 0.0992397028
H   H47       1.0  0.09720  0.87230  0.67740  1.0000 0.0992397028
H   H48       1.0  0.90280  0.37230  0.82260  1.0000 0.0992397028
H   H49       1.0  0.49350  0.54040  0.32760  1.0000 0.0992397028
H   H50       1.0  0.50650  0.04040  0.17240  1.0000 0.0992397028
H   H51       1.0  0.50650  0.45960  0.67240  1.0000 0.0992397028
H   H52       1.0  0.49350  0.95960  0.82760  1.0000 0.0992397028
H   H53       1.0  0.40920  0.64830  0.59160  1.0000 0.109087783
H   H54       1.0  0.59080  0.14830  0.90840  1.0000 0.109087783
H   H55       1.0  0.59080  0.35170  0.40840  1.0000 0.109087783
H   H56       1.0  0.40920  0.85170  0.09160  1.0000 0.109087783
H   H57       1.0  0.71440  0.75980  0.32810  1.0000 0.109087783
H   H58       1.0  0.28560  0.25980  0.17190  1.0000 0.109087783
H   H59       1.0  0.28560  0.24020  0.67190  1.0000 0.109087783
H   H60       1.0  0.71440  0.74020  0.82810  1.0000 0.109087783
H   H61       1.0  0.58410  0.37060  0.54520  1.0000 0.14627869
H   H62       1.0  0.41590  0.87060  0.95480  1.0000 0.14627869
H   H63       1.0  0.41590  0.62940  0.45480  1.0000 0.14627869
H   H64       1.0  0.58410  0.12940  0.04520  1.0000 0.14627869
C   C1        1.0  0.06080  0.10110  0.20810  1.0000 0.2291598017
C   C2        1.0  0.93920  0.60110  0.29190  1.0000 0.2291598017
C   C3        1.0  0.93920  0.89890  0.79190  1.0000 0.2291598017
C   C4        1.0  0.06080  0.39890  0.70810  1.0000 0.2291598017
C   C5        1.0  0.71480  0.54370  0.55680  1.0000 0.2141716922
C   C6        1.0  0.28520  0.04370  0.94320  1.0000 0.2141716922
C   C7        1.0  0.28520  0.45630  0.44320  1.0000 0.2141716922
C   C8        1.0  0.71480  0.95630  0.05680  1.0000 0.2141716922
C   C9        1.0  0.38670  0.77940  0.21260  1.0000 0.2172683994
C   C10       1.0  0.61330  0.27940  0.28740  1.0000 0.2172683994
C   C11       1.0  0.61330  0.22060  0.78740  1.0000 0.2172683994
C   C12       1.0  0.38670  0.72060  0.71260  1.0000 0.2172683994
C   C13       1.0  0.10090  0.24340  0.27070  1.0000 -0.1884762774
C   C14       1.0  0.89910  0.74340  0.22930  1.0000 -0.1884762774
C   C15       1.0  0.89910  0.75660  0.72930  1.0000 -0.1884762774
C   C16       1.0  0.10090  0.25660  0.77070  1.0000 -0.1884762774
C   C17       1.0  0.04270  0.15020  0.24970  1.0000 0.0992397028
C   C18       1.0  0.95730  0.65020  0.25030  1.0000 0.0992397028
C   C19       1.0  0.95730  0.84980  0.75030  1.0000 0.0992397028
C   C20       1.0  0.04270  0.34980  0.74970  1.0000 0.0992397028
C   C21       1.0  0.96280  0.11100  0.26890  1.0000 -0.1995094808
C   C22       1.0  0.03720  0.61100  0.23110  1.0000 -0.1995094808
C   C23       1.0  0.03720  0.88900  0.73110  1.0000 -0.1995094808
C   C24       1.0  0.96280  0.38900  0.76890  1.0000 -0.1995094808
C   C25       1.0  0.54740  0.60820  0.57750  1.0000 -0.183139172
C   C26       1.0  0.45260  0.10820  0.92250  1.0000 -0.183139172
C   C27       1.0  0.45260  0.39180  0.42250  1.0000 -0.183139172
C   C28       1.0  0.54740  0.89180  0.07750  1.0000 -0.183139172
C   C29       1.0  0.60260  0.52900  0.56260  1.0000 0.0992397028
C   C30       1.0  0.39740  0.02900  0.93740  1.0000 0.0992397028
C   C31       1.0  0.39740  0.47100  0.43740  1.0000 0.0992397028
C   C32       1.0  0.60260  0.97100  0.06260  1.0000 0.0992397028
C   C33       1.0  0.03700  0.09970  0.43670  1.0000 0.0779332104
C   C34       1.0  0.96300  0.59970  0.06330  1.0000 0.0779332104
C   C35       1.0  0.96300  0.90030  0.56330  1.0000 0.0779332104
C   C36       1.0  0.03700  0.40030  0.93670  1.0000 0.0779332104
C   C37       1.0  0.83500  0.01080  0.42290  1.0000 -0.1995094808
C   C38       1.0  0.16500  0.51080  0.07710  1.0000 -0.1995094808
C   C39       1.0  0.16500  0.98920  0.57710  1.0000 -0.1995094808
C   C40       1.0  0.83500  0.48920  0.92290  1.0000 -0.1995094808
C   C41       1.0  0.92940  0.94430  0.43780  1.0000 0.089709572
C   C42       1.0  0.07060  0.44430  0.06220  1.0000 0.089709572
C   C43       1.0  0.07060  0.05570  0.56220  1.0000 0.089709572
C   C44       1.0  0.92940  0.55570  0.93780  1.0000 0.089709572
C   C45       1.0  0.08740  0.28290  0.31130  1.0000 0.0779332104
C   C46       1.0  0.91260  0.78290  0.18870  1.0000 0.0779332104
C   C47       1.0  0.91260  0.71710  0.68870  1.0000 0.0779332104
C   C48       1.0  0.08740  0.21710  0.81130  1.0000 0.0779332104
C   C49       1.0  0.84750  0.11670  0.41550  1.0000 0.089709572
C   C50       1.0  0.15250  0.61670  0.08450  1.0000 0.089709572
C   C51       1.0  0.15250  0.88330  0.58450  1.0000 0.089709572
C   C52       1.0  0.84750  0.38330  0.91550  1.0000 0.089709572
C   C53       1.0  0.03350  0.99250  0.44600  1.0000 -0.183139172
C   C54       1.0  0.96650  0.49250  0.05400  1.0000 -0.183139172
C   C55       1.0  0.96650  0.00750  0.55400  1.0000 -0.183139172
C   C56       1.0  0.03350  0.50750  0.94600  1.0000 -0.183139172
C   C57       1.0  0.46720  0.73260  0.25330  1.0000 0.089709572
C   C58       1.0  0.53280  0.23260  0.24670  1.0000 0.089709572
C   C59       1.0  0.53280  0.26740  0.74670  1.0000 0.089709572
C   C60       1.0  0.46720  0.76740  0.75330  1.0000 0.089709572
C   C61       1.0  0.91410  0.83170  0.44390  1.0000 0.2172683994
C   C62       1.0  0.08590  0.33170  0.05610  1.0000 0.2172683994
C   C63       1.0  0.08590  0.16830  0.55610  1.0000 0.2172683994
C   C64       1.0  0.91410  0.66830  0.94390  1.0000 0.2172683994
C   C65       1.0  0.44000  0.64220  0.27500  1.0000 -0.1884762774
C   C66       1.0  0.56000  0.14220  0.22500  1.0000 -0.1884762774
C   C67       1.0  0.56000  0.35780  0.72500  1.0000 -0.1884762774
C   C68       1.0  0.44000  0.85780  0.77500  1.0000 -0.1884762774
C   C69       1.0  0.44910  0.41510  0.56170  1.0000 0.0724659036
C   C70       1.0  0.55090  0.91510  0.93830  1.0000 0.0724659036
C   C71       1.0  0.55090  0.58490  0.43830  1.0000 0.0724659036
C   C72       1.0  0.44910  0.08490  0.06170  1.0000 0.0724659036
C   C73       1.0  0.57150  0.77750  0.27540  1.0000 -0.1884762774
C   C74       1.0  0.42850  0.27750  0.22460  1.0000 -0.1884762774
C   C75       1.0  0.42850  0.22250  0.72460  1.0000 -0.1884762774
C   C76       1.0  0.57150  0.72250  0.77540  1.0000 -0.1884762774
C   C77       1.0  0.95280  0.15780  0.30900  1.0000 0.089709572
C   C78       1.0  0.04720  0.65780  0.19100  1.0000 0.089709572
C   C79       1.0  0.04720  0.84220  0.69100  1.0000 0.089709572
C   C80       1.0  0.95280  0.34220  0.80900  1.0000 0.089709572
C   C81       1.0  0.51400  0.60090  0.31450  1.0000 0.0724659036
C   C82       1.0  0.48600  0.10090  0.18550  1.0000 0.0724659036
C   C83       1.0  0.48600  0.39910  0.68550  1.0000 0.0724659036
C   C84       1.0  0.51400  0.89910  0.81450  1.0000 0.0724659036
C   C85       1.0  0.44640  0.59150  0.58320  1.0000 0.0629425416
C   C86       1.0  0.55360  0.09150  0.91680  1.0000 0.0629425416
C   C87       1.0  0.55360  0.40850  0.41680  1.0000 0.0629425416
C   C88       1.0  0.44640  0.90850  0.08320  1.0000 0.0629425416
C   C89       1.0  0.64400  0.73040  0.31510  1.0000 0.089709572
C   C90       1.0  0.35600  0.23040  0.18490  1.0000 0.089709572
C   C91       1.0  0.35600  0.26960  0.68490  1.0000 0.089709572
C   C92       1.0  0.64400  0.76960  0.81510  1.0000 0.089709572
C   C93       1.0  0.54980  0.42780  0.55490  1.0000 -0.1995094808
C   C94       1.0  0.45020  0.92780  0.94510  1.0000 -0.1995094808
C   C95       1.0  0.45020  0.57220  0.44510  1.0000 -0.1995094808
C   C96       1.0  0.54980  0.07220  0.05490  1.0000 -0.1995094808
N   N1        1.0  0.12940  0.06600  0.15360  1.0000 -0.0512202848
N   N2        1.0  0.87060  0.56600  0.34640  1.0000 -0.0512202848
N   N3        1.0  0.87060  0.93400  0.84640  1.0000 -0.0512202848
N   N4        1.0  0.12940  0.43400  0.65360  1.0000 -0.0512202848
N   N5        1.0  0.99430  0.76580  0.46690  1.0000 -0.2588884736
N   N6        1.0  0.00570  0.26580  0.03310  1.0000 -0.2588884736
N   N7        1.0  0.00570  0.23420  0.53310  1.0000 -0.2588884736
N   N8        1.0  0.99430  0.73420  0.96690  1.0000 -0.2588884736
N   N9        1.0  0.05480  0.99110  0.15480  1.0000 -0.0296352774
N   N10       1.0  0.94520  0.49110  0.34520  1.0000 -0.0296352774
N   N11       1.0  0.94520  0.00890  0.84520  1.0000 -0.0296352774
N   N12       1.0  0.05480  0.50890  0.65480  1.0000 -0.0296352774
N   N13       1.0  0.13350  0.13680  0.18800  1.0000 -0.2658268814
N   N14       1.0  0.86650  0.63680  0.31200  1.0000 -0.2658268814
N   N15       1.0  0.86650  0.86320  0.81200  1.0000 -0.2658268814
N   N16       1.0  0.13350  0.36320  0.68800  1.0000 -0.2658268814
N   N17       1.0  0.00940  0.24320  0.33000  1.0000 -0.2372135674
N   N18       1.0  0.99060  0.74320  0.17000  1.0000 -0.2372135674
N   N19       1.0  0.99060  0.75680  0.67000  1.0000 -0.2372135674
N   N20       1.0  0.00940  0.25680  0.83000  1.0000 -0.2372135674
N   N21       1.0  0.86200  0.52880  0.53910  1.0000 -0.0296352774
N   N22       1.0  0.13800  0.02880  0.96090  1.0000 -0.0296352774
N   N23       1.0  0.13800  0.47120  0.46090  1.0000 -0.0296352774
N   N24       1.0  0.86200  0.97120  0.03910  1.0000 -0.0296352774
N   N25       1.0  0.94580  0.15960  0.42100  1.0000 -0.21305183
N   N26       1.0  0.05420  0.65960  0.07900  1.0000 -0.21305183
N   N27       1.0  0.05420  0.84040  0.57900  1.0000 -0.21305183
N   N28       1.0  0.94580  0.34040  0.92100  1.0000 -0.21305183
N   N29       1.0  0.23860  0.81250  0.15860  1.0000 -0.0296352774
N   N30       1.0  0.76140  0.31250  0.34140  1.0000 -0.0296352774
N   N31       1.0  0.76140  0.18750  0.84140  1.0000 -0.0296352774
N   N32       1.0  0.23860  0.68750  0.65860  1.0000 -0.0296352774
N   N33       1.0  0.40540  0.87030  0.19240  1.0000 -0.2658268814
N   N34       1.0  0.59460  0.37030  0.30760  1.0000 -0.2658268814
N   N35       1.0  0.59460  0.12970  0.80760  1.0000 -0.2658268814
N   N36       1.0  0.40540  0.62970  0.69240  1.0000 -0.2658268814
N   N37       1.0  0.81600  0.78350  0.42580  1.0000 -0.2984891911
N   N38       1.0  0.18400  0.28350  0.07420  1.0000 -0.2984891911
N   N39       1.0  0.18400  0.21650  0.57420  1.0000 -0.2984891911
N   N40       1.0  0.81600  0.71650  0.92580  1.0000 -0.2984891911
N   N41       1.0  0.94580  0.66870  0.46380  1.0000 -0.0296352774
N   N42       1.0  0.05420  0.16870  0.03620  1.0000 -0.0296352774
N   N43       1.0  0.05420  0.33130  0.53620  1.0000 -0.0296352774
N   N44       1.0  0.94580  0.83130  0.96380  1.0000 -0.0296352774
N   N45       1.0  0.77780  0.62920  0.57640  1.0000 -0.276740179
N   N46       1.0  0.22220  0.12920  0.92360  1.0000 -0.276740179
N   N47       1.0  0.22220  0.37080  0.42360  1.0000 -0.276740179
N   N48       1.0  0.77780  0.87080  0.07640  1.0000 -0.276740179
N   N49       1.0  0.30980  0.88790  0.15800  1.0000 -0.038884441
N   N50       1.0  0.69020  0.38790  0.34200  1.0000 -0.038884441
N   N51       1.0  0.69020  0.11210  0.84200  1.0000 -0.038884441
N   N52       1.0  0.30980  0.61210  0.65800  1.0000 -0.038884441
N   N53       1.0  0.84070  0.68050  0.43870  1.0000 -0.0512202848
N   N54       1.0  0.15930  0.18050  0.06130  1.0000 -0.0512202848
N   N55       1.0  0.15930  0.31950  0.56130  1.0000 -0.0512202848
N   N56       1.0  0.84070  0.81950  0.93870  1.0000 -0.0512202848
N   N57       1.0  0.00930  0.01240  0.18790  1.0000 -0.2588884736
N   N58       1.0  0.99070  0.51240  0.31210  1.0000 -0.2588884736
N   N59       1.0  0.99070  0.98760  0.81210  1.0000 -0.2588884736
N   N60       1.0  0.00930  0.48760  0.68790  1.0000 -0.2588884736
N   N61       1.0  0.28360  0.74260  0.19130  1.0000 -0.2588884736
N   N62       1.0  0.71640  0.24260  0.30870  1.0000 -0.2588884736
N   N63       1.0  0.71640  0.25740  0.80870  1.0000 -0.2588884736
N   N64       1.0  0.28360  0.75740  0.69130  1.0000 -0.2588884736
N   N65       1.0  0.61650  0.64350  0.33570  1.0000 -0.2372135674
N   N66       1.0  0.38350  0.14350  0.16430  1.0000 -0.2372135674
N   N67       1.0  0.38350  0.35650  0.66430  1.0000 -0.2372135674
N   N68       1.0  0.61650  0.85650  0.83570  1.0000 -0.2372135674
N   N69       1.0  0.76400  0.48120  0.53370  1.0000 -0.2496941318
N   N70       1.0  0.23600  0.98120  0.96630  1.0000 -0.2496941318
N   N71       1.0  0.23600  0.51880  0.46630  1.0000 -0.2496941318
N   N72       1.0  0.76400  0.01880  0.03370  1.0000 -0.2496941318
N   N73       1.0  0.86840  0.61530  0.56370  1.0000 -0.038884441
N   N74       1.0  0.13160  0.11530  0.93630  1.0000 -0.038884441
N   N75       1.0  0.13160  0.38470  0.43630  1.0000 -0.038884441
N   N76       1.0  0.86840  0.88470  0.06370  1.0000 -0.038884441
N   N77       1.0  0.39770  0.49310  0.57710  1.0000 -0.21305183
N   N78       1.0  0.60230  0.99310  0.92290  1.0000 -0.21305183
N   N79       1.0  0.60230  0.50690  0.42290  1.0000 -0.21305183
N   N80       1.0  0.39770  0.00690  0.07710  1.0000 -0.21305183
O   O1        1.0  0.87840  0.42810  0.43640  1.0000 -0.7471125801
O   O2        1.0  0.12160  0.92810  0.06360  1.0000 -0.7471125801
O   O3        1.0  0.12160  0.57190  0.56360  1.0000 -0.7471125801
O   O4        1.0  0.87840  0.07190  0.93640  1.0000 -0.7471125801
