# DDEC6 charges by PACMAN v1.1 (https://github.com/mtap-research/PACMAN-charge/)
data_2015[La][nan]3[ASR]7
_chemical_formula_sum              "La3 H36 C63 N3 O18"
_cell_length_a       14.6255
_cell_length_b       14.6255
_cell_length_c       14.6255
_cell_angle_alpha    111.656
_cell_angle_beta     111.656
_cell_angle_gamma    111.656

_symmetry_space_group_name_H-M    "P 1"
_symmetry_Int_Tables_number       1

loop_
  _symmetry_equiv_pos_as_xyz
  'x, y, z'

loop_
  _atom_site_type_symbol
  _atom_site_label
  _atom_site_symmetry_multiplicity
  _atom_site_fract_x
  _atom_site_fract_y
  _atom_site_fract_z
  _atom_site_occupancy
  _atom_site_charge
La  La1       1.0  0.68555  0.00000  0.31445  1.0000 1.8962721581
La  La2       1.0  1.00000  0.31445  0.68555  1.0000 1.8962721581
La  La3       1.0  0.31445  0.68555  0.00000  1.0000 1.8962721581
H   H1        1.0  0.83410  0.66840  0.15780  1.0000 0.1292695681
H   H2        1.0  0.66840  0.15780  0.83410  1.0000 0.1292695681
H   H3        1.0  0.15780  0.83410  0.66840  1.0000 0.1292695681
H   H4        1.0  0.16590  0.84220  0.33160  1.0000 0.1292695681
H   H5        1.0  0.33160  0.16590  0.84220  1.0000 0.1292695681
H   H6        1.0  0.84220  0.33160  0.16590  1.0000 0.1292695681
H   H7        1.0  0.72440  0.74830  0.14350  1.0000 0.1292695681
H   H8        1.0  0.74830  0.14350  0.72440  1.0000 0.1292695681
H   H9        1.0  0.14350  0.72440  0.74830  1.0000 0.1292695681
H   H10       1.0  0.27560  0.85650  0.25170  1.0000 0.1292695681
H   H11       1.0  0.25170  0.27560  0.85650  1.0000 0.1292695681
H   H12       1.0  0.85650  0.25170  0.27560  1.0000 0.1292695681
H   H13       1.0  0.50140  0.51210  0.16890  1.0000 0.1292695681
H   H14       1.0  0.51210  0.16890  0.50140  1.0000 0.1292695681
H   H15       1.0  0.16890  0.50140  0.51210  1.0000 0.1292695681
H   H16       1.0  0.49860  0.83110  0.48790  1.0000 0.1292695681
H   H17       1.0  0.48790  0.49860  0.83110  1.0000 0.1292695681
H   H18       1.0  0.83110  0.48790  0.49860  1.0000 0.1292695681
H   H19       1.0  0.61630  0.43420  0.18860  1.0000 0.1182267025
H   H20       1.0  0.43420  0.18860  0.61630  1.0000 0.1182267025
H   H21       1.0  0.18860  0.61630  0.43420  1.0000 0.1182267025
H   H22       1.0  0.38370  0.81140  0.56580  1.0000 0.1182267025
H   H23       1.0  0.56580  0.38370  0.81140  1.0000 0.1182267025
H   H24       1.0  0.81140  0.56580  0.38370  1.0000 0.1182267025
H   H25       1.0  0.72070  0.41870  0.96530  1.0000 0.1182267025
H   H26       1.0  0.41870  0.96530  0.72070  1.0000 0.1182267025
H   H27       1.0  0.96530  0.72070  0.41870  1.0000 0.1182267025
H   H28       1.0  0.27930  0.03470  0.58130  1.0000 0.1182267025
H   H29       1.0  0.58130  0.27930  0.03470  1.0000 0.1182267025
H   H30       1.0  0.03470  0.58130  0.27930  1.0000 0.1182267025
H   H31       1.0  0.81550  0.41380  0.86670  1.0000 0.1182267025
H   H32       1.0  0.41380  0.86670  0.81550  1.0000 0.1182267025
H   H33       1.0  0.86670  0.81550  0.41380  1.0000 0.1182267025
H   H34       1.0  0.18450  0.13330  0.58620  1.0000 0.1182267025
H   H35       1.0  0.58620  0.18450  0.13330  1.0000 0.1182267025
H   H36       1.0  0.13330  0.58620  0.18450  1.0000 0.1182267025
C   C1        1.0  0.74000  0.54620  0.17880  1.0000 0.1858236099
C   C2        1.0  0.54620  0.17880  0.74000  1.0000 0.1858236099
C   C3        1.0  0.17880  0.74000  0.54620  1.0000 0.1858236099
C   C4        1.0  0.26000  0.82120  0.45380  1.0000 0.1858236099
C   C5        1.0  0.45380  0.26000  0.82120  1.0000 0.1858236099
C   C6        1.0  0.82120  0.45380  0.26000  1.0000 0.1858236099
C   C7        1.0  0.76890  0.63830  0.16220  1.0000 -0.19736165
C   C8        1.0  0.63830  0.16220  0.76890  1.0000 -0.19736165
C   C9        1.0  0.16220  0.76890  0.63830  1.0000 -0.19736165
C   C10       1.0  0.23110  0.83780  0.36170  1.0000 -0.19736165
C   C11       1.0  0.36170  0.23110  0.83780  1.0000 -0.19736165
C   C12       1.0  0.83780  0.36170  0.23110  1.0000 -0.19736165
C   C13       1.0  0.70250  0.68540  0.15210  1.0000 -0.0766745974
C   C14       1.0  0.68540  0.15210  0.70250  1.0000 -0.0766745974
C   C15       1.0  0.15210  0.70250  0.68540  1.0000 -0.0766745974
C   C16       1.0  0.29750  0.84790  0.31460  1.0000 -0.0766745974
C   C17       1.0  0.31460  0.29750  0.84790  1.0000 -0.0766745974
C   C18       1.0  0.84790  0.31460  0.29750  1.0000 -0.0766745974
C   C19       1.0  0.60220  0.63840  0.15510  1.0000 -0.0410365669
C   C20       1.0  0.63840  0.15510  0.60220  1.0000 -0.0410365669
C   C21       1.0  0.15510  0.60220  0.63840  1.0000 -0.0410365669
C   C22       1.0  0.39780  0.84490  0.36160  1.0000 -0.0410365669
C   C23       1.0  0.36160  0.39780  0.84490  1.0000 -0.0410365669
C   C24       1.0  0.84490  0.36160  0.39780  1.0000 -0.0410365669
C   C25       1.0  0.56900  0.54400  0.16810  1.0000 -0.0766745974
C   C26       1.0  0.54400  0.16810  0.56900  1.0000 -0.0766745974
C   C27       1.0  0.16810  0.56900  0.54400  1.0000 -0.0766745974
C   C28       1.0  0.43100  0.83190  0.45600  1.0000 -0.0766745974
C   C29       1.0  0.45600  0.43100  0.83190  1.0000 -0.0766745974
C   C30       1.0  0.83190  0.45600  0.43100  1.0000 -0.0766745974
C   C31       1.0  0.63810  0.49720  0.18000  1.0000 -0.2160392647
C   C32       1.0  0.49720  0.18000  0.63810  1.0000 -0.2160392647
C   C33       1.0  0.18000  0.63810  0.49720  1.0000 -0.2160392647
C   C34       1.0  0.36190  0.82000  0.50280  1.0000 -0.2160392647
C   C35       1.0  0.50280  0.36190  0.82000  1.0000 -0.2160392647
C   C36       1.0  0.82000  0.50280  0.36190  1.0000 -0.2160392647
C   C37       1.0  0.52690  0.68530  0.14000  1.0000 0.5916691775
C   C38       1.0  0.68530  0.14000  0.52690  1.0000 0.5916691775
C   C39       1.0  0.14000  0.52690  0.68530  1.0000 0.5916691775
C   C40       1.0  0.47310  0.86000  0.31470  1.0000 0.5916691775
C   C41       1.0  0.31470  0.47310  0.86000  1.0000 0.5916691775
C   C42       1.0  0.86000  0.31470  0.47310  1.0000 0.5916691775
C   C43       1.0  0.86825  0.50000  0.13175  1.0000 0.1749966795
C   C44       1.0  0.50000  0.13175  0.86825  1.0000 0.1749966795
C   C45       1.0  0.13175  0.86825  0.50000  1.0000 0.1749966795
C   C46       1.0  0.80270  0.45060  0.00860  1.0000 -0.1917217369
C   C47       1.0  0.45060  0.00860  0.80270  1.0000 -0.1917217369
C   C48       1.0  0.00860  0.80270  0.45060  1.0000 -0.1917217369
C   C49       1.0  0.19730  0.99140  0.54940  1.0000 -0.1917217369
C   C50       1.0  0.54940  0.19730  0.99140  1.0000 -0.1917217369
C   C51       1.0  0.99140  0.54940  0.19730  1.0000 -0.1917217369
C   C52       1.0  0.85970  0.44870  0.94930  1.0000 -0.0867844468
C   C53       1.0  0.44870  0.94930  0.85970  1.0000 -0.0867844468
C   C54       1.0  0.94930  0.85970  0.44870  1.0000 -0.0867844468
C   C55       1.0  0.14030  0.05070  0.55130  1.0000 -0.0867844468
C   C56       1.0  0.55130  0.14030  0.05070  1.0000 -0.0867844468
C   C57       1.0  0.05070  0.55130  0.14030  1.0000 -0.0867844468
C   C58       1.0  0.98335  0.50000  0.01665  1.0000 -0.033791097
C   C59       1.0  0.50000  0.01665  0.98335  1.0000 -0.033791097
C   C60       1.0  0.01665  0.98335  0.50000  1.0000 -0.033791097
C   C61       1.0  0.04655  0.50000  0.95345  1.0000 0.6201021428
C   C62       1.0  0.50000  0.95345  0.04655  1.0000 0.6201021428
C   C63       1.0  0.95345  0.04655  0.50000  1.0000 0.6201021428
N   N1        1.0  0.80905  0.50000  0.19095  1.0000 -0.1622211134
N   N2        1.0  0.50000  0.19095  0.80905  1.0000 -0.1622211134
N   N3        1.0  0.19095  0.80905  0.50000  1.0000 -0.1622211134
O   O1        1.0  0.42480  0.62680  0.12090  1.0000 -0.5697057888
O   O2        1.0  0.62680  0.12090  0.42480  1.0000 -0.5697057888
O   O3        1.0  0.12090  0.42480  0.62680  1.0000 -0.5697057888
O   O4        1.0  0.57520  0.87910  0.37320  1.0000 -0.5697057888
O   O5        1.0  0.37320  0.57520  0.87910  1.0000 -0.5697057888
O   O6        1.0  0.87910  0.37320  0.57520  1.0000 -0.5697057888
O   O7        1.0  0.56460  0.78110  0.14210  1.0000 -0.6801486259
O   O8        1.0  0.78110  0.14210  0.56460  1.0000 -0.6801486259
O   O9        1.0  0.14210  0.56460  0.78110  1.0000 -0.6801486259
O   O10       1.0  0.43540  0.85790  0.21890  1.0000 -0.6801486259
O   O11       1.0  0.21890  0.43540  0.85790  1.0000 -0.6801486259
O   O12       1.0  0.85790  0.21890  0.43540  1.0000 -0.6801486259
O   O13       1.0  0.16040  0.57380  0.02030  1.0000 -0.6315137093
O   O14       1.0  0.57380  0.02030  0.16040  1.0000 -0.6315137093
O   O15       1.0  0.02030  0.16040  0.57380  1.0000 -0.6315137093
O   O16       1.0  0.83960  0.97970  0.42620  1.0000 -0.6315137093
O   O17       1.0  0.42620  0.83960  0.97970  1.0000 -0.6315137093
O   O18       1.0  0.97970  0.42620  0.83960  1.0000 -0.6315137093
