# DDEC6 charges by PACMAN v1.1 (https://github.com/mtap-research/PACMAN-charge/)
data_2015[Nd][nan]3[ASR]2
_chemical_formula_sum              "Nd8 H72 C144 O48"
_cell_length_a       12.8837
_cell_length_b       18.8575
_cell_length_c       21.8147
_cell_angle_alpha    90
_cell_angle_beta     90
_cell_angle_gamma    90

_symmetry_space_group_name_H-M    "P 1"
_symmetry_Int_Tables_number       1

loop_
  _symmetry_equiv_pos_as_xyz
  'x, y, z'

loop_
  _atom_site_type_symbol
  _atom_site_label
  _atom_site_symmetry_multiplicity
  _atom_site_fract_x
  _atom_site_fract_y
  _atom_site_fract_z
  _atom_site_occupancy
  _atom_site_charge
Nd  Nd1       1.0  0.74718  0.49467  0.75000  1.0000 2.1856402013
Nd  Nd2       1.0  0.24718  0.00533  0.25000  1.0000 2.1846021268
Nd  Nd3       1.0  0.25282  0.50533  0.25000  1.0000 2.1846021268
Nd  Nd4       1.0  0.75282  0.99467  0.75000  1.0000 2.1846021268
Nd  Nd5       1.0  0.65527  0.21465  0.75000  1.0000 2.1691371057
Nd  Nd6       1.0  0.15527  0.28535  0.25000  1.0000 2.1691371057
Nd  Nd7       1.0  0.34473  0.78535  0.25000  1.0000 2.1691371057
Nd  Nd8       1.0  0.84473  0.71465  0.75000  1.0000 2.1691371057
H   H1        1.0  0.68910  0.46960  0.56940  1.0000 0.1119079792
H   H2        1.0  0.18910  0.03040  0.43060  1.0000 0.1119079792
H   H3        1.0  0.31090  0.53040  0.06940  1.0000 0.1119079792
H   H4        1.0  0.81090  0.96960  0.93060  1.0000 0.1119079792
H   H5        1.0  0.31090  0.53040  0.43060  1.0000 0.1119079792
H   H6        1.0  0.81090  0.96960  0.56940  1.0000 0.1119079792
H   H7        1.0  0.68910  0.46960  0.93060  1.0000 0.1119079792
H   H8        1.0  0.18910  0.03040  0.06940  1.0000 0.1119079792
H   H9        1.0  0.61530  0.48470  0.47530  1.0000 0.1201965749
H   H10       1.0  0.11530  0.01530  0.52470  1.0000 0.1201965749
H   H11       1.0  0.38470  0.51530  0.97530  1.0000 0.1201965749
H   H12       1.0  0.88470  0.98470  0.02470  1.0000 0.1201965749
H   H13       1.0  0.38470  0.51530  0.52470  1.0000 0.1201965749
H   H14       1.0  0.88470  0.98470  0.47530  1.0000 0.1201965749
H   H15       1.0  0.61530  0.48470  0.02470  1.0000 0.1201965749
H   H16       1.0  0.11530  0.01530  0.97530  1.0000 0.1201965749
H   H17       1.0  0.48920  0.44510  0.39520  1.0000 0.1201965749
H   H18       1.0  0.98920  0.05490  0.60480  1.0000 0.1201965749
H   H19       1.0  0.51080  0.55490  0.89520  1.0000 0.1201965749
H   H20       1.0  0.01080  0.94510  0.10480  1.0000 0.1201965749
H   H21       1.0  0.51080  0.55490  0.60480  1.0000 0.1201965749
H   H22       1.0  0.01080  0.94510  0.39520  1.0000 0.1201965749
H   H23       1.0  0.48920  0.44510  0.10480  1.0000 0.1201965749
H   H24       1.0  0.98920  0.05490  0.89520  1.0000 0.1201965749
H   H25       1.0  0.34260  0.25690  0.41460  1.0000 0.1201965749
H   H26       1.0  0.84260  0.24310  0.58540  1.0000 0.1201965749
H   H27       1.0  0.65740  0.74310  0.91460  1.0000 0.1201965749
H   H28       1.0  0.15740  0.75690  0.08540  1.0000 0.1201965749
H   H29       1.0  0.65740  0.74310  0.58540  1.0000 0.1201965749
H   H30       1.0  0.15740  0.75690  0.41460  1.0000 0.1201965749
H   H31       1.0  0.34260  0.25690  0.08540  1.0000 0.1201965749
H   H32       1.0  0.84260  0.24310  0.91460  1.0000 0.1201965749
H   H33       1.0  0.42730  0.23630  0.50600  1.0000 0.1119079792
H   H34       1.0  0.92730  0.26370  0.49400  1.0000 0.1119079792
H   H35       1.0  0.57270  0.76370  0.00600  1.0000 0.1119079792
H   H36       1.0  0.07270  0.73630  0.99400  1.0000 0.1119079792
H   H37       1.0  0.57270  0.76370  0.49400  1.0000 0.1119079792
H   H38       1.0  0.07270  0.73630  0.50600  1.0000 0.1119079792
H   H39       1.0  0.42730  0.23630  0.99400  1.0000 0.1119079792
H   H40       1.0  0.92730  0.26370  0.00600  1.0000 0.1119079792
H   H41       1.0  0.55490  0.27690  0.58690  1.0000 0.1301372353
H   H42       1.0  0.05490  0.22310  0.41310  1.0000 0.1301372353
H   H43       1.0  0.44510  0.72310  0.08690  1.0000 0.1301372353
H   H44       1.0  0.94510  0.77690  0.91310  1.0000 0.1301372353
H   H45       1.0  0.44510  0.72310  0.41310  1.0000 0.1301372353
H   H46       1.0  0.94510  0.77690  0.58690  1.0000 0.1301372353
H   H47       1.0  0.55490  0.27690  0.91310  1.0000 0.1301372353
H   H48       1.0  0.05490  0.22310  0.08690  1.0000 0.1301372353
H   H49       1.0  0.63230  0.98610  0.59260  1.0000 0.1201965749
H   H50       1.0  0.13230  0.51390  0.40740  1.0000 0.1201965749
H   H51       1.0  0.36770  0.01390  0.09260  1.0000 0.1201965749
H   H52       1.0  0.86770  0.48610  0.90740  1.0000 0.1201965749
H   H53       1.0  0.36770  0.01390  0.40740  1.0000 0.1201965749
H   H54       1.0  0.86770  0.48610  0.59260  1.0000 0.1201965749
H   H55       1.0  0.63230  0.98610  0.90740  1.0000 0.1201965749
H   H56       1.0  0.13230  0.51390  0.09260  1.0000 0.1201965749
H   H57       1.0  0.35790  0.10200  0.49330  1.0000 0.1119079792
H   H58       1.0  0.85790  0.39800  0.50670  1.0000 0.1119079792
H   H59       1.0  0.64210  0.89800  0.99330  1.0000 0.1119079792
H   H60       1.0  0.14210  0.60200  0.00670  1.0000 0.1119079792
H   H61       1.0  0.64210  0.89800  0.50670  1.0000 0.1119079792
H   H62       1.0  0.14210  0.60200  0.49330  1.0000 0.1119079792
H   H63       1.0  0.35790  0.10200  0.00670  1.0000 0.1119079792
H   H64       1.0  0.85790  0.39800  0.99330  1.0000 0.1119079792
H   H65       1.0  0.42120  0.14500  0.58490  1.0000 0.1201965749
H   H66       1.0  0.92120  0.35500  0.41510  1.0000 0.1201965749
H   H67       1.0  0.57880  0.85500  0.08490  1.0000 0.1201965749
H   H68       1.0  0.07880  0.64500  0.91510  1.0000 0.1201965749
H   H69       1.0  0.57880  0.85500  0.41510  1.0000 0.1201965749
H   H70       1.0  0.07880  0.64500  0.58490  1.0000 0.1201965749
H   H71       1.0  0.42120  0.14500  0.91510  1.0000 0.1201965749
H   H72       1.0  0.92120  0.35500  0.08490  1.0000 0.1201965749
C   C1        1.0  0.63110  0.37060  0.58630  1.0000 -0.0275433581
C   C2        1.0  0.13110  0.12940  0.41370  1.0000 -0.0275433581
C   C3        1.0  0.36890  0.62940  0.08630  1.0000 -0.0275433581
C   C4        1.0  0.86890  0.87060  0.91370  1.0000 -0.0275433581
C   C5        1.0  0.36890  0.62940  0.41370  1.0000 -0.0275433581
C   C6        1.0  0.86890  0.87060  0.58630  1.0000 -0.0275433581
C   C7        1.0  0.63110  0.37060  0.91370  1.0000 -0.0275433581
C   C8        1.0  0.13110  0.12940  0.08630  1.0000 -0.0275433581
C   C9        1.0  0.64610  0.43340  0.55300  1.0000 -0.1162788939
C   C10       1.0  0.14610  0.06660  0.44700  1.0000 -0.1162788939
C   C11       1.0  0.35390  0.56660  0.05300  1.0000 -0.1162788939
C   C12       1.0  0.85390  0.93340  0.94700  1.0000 -0.1162788939
C   C13       1.0  0.35390  0.56660  0.44700  1.0000 -0.1162788939
C   C14       1.0  0.85390  0.93340  0.55300  1.0000 -0.1162788939
C   C15       1.0  0.64610  0.43340  0.94700  1.0000 -0.1162788939
C   C16       1.0  0.14610  0.06660  0.05300  1.0000 -0.1162788939
C   C17       1.0  0.60050  0.44290  0.49810  1.0000 -0.1407506164
C   C18       1.0  0.10050  0.05710  0.50190  1.0000 -0.1407506164
C   C19       1.0  0.39950  0.55710  0.99810  1.0000 -0.1407506164
C   C20       1.0  0.89950  0.94290  0.00190  1.0000 -0.1407506164
C   C21       1.0  0.39950  0.55710  0.50190  1.0000 -0.1407506164
C   C22       1.0  0.89950  0.94290  0.49810  1.0000 -0.1407506164
C   C23       1.0  0.60050  0.44290  0.00190  1.0000 -0.1407506164
C   C24       1.0  0.10050  0.05710  0.99810  1.0000 -0.1407506164
C   C25       1.0  0.53150  0.39240  0.47380  1.0000 0.0628540967
C   C26       1.0  0.03150  0.10760  0.52620  1.0000 0.0628540967
C   C27       1.0  0.46850  0.60760  0.97380  1.0000 0.0628540967
C   C28       1.0  0.96850  0.89240  0.02620  1.0000 0.0628540967
C   C29       1.0  0.46850  0.60760  0.52620  1.0000 0.0628540967
C   C30       1.0  0.96850  0.89240  0.47380  1.0000 0.0628540967
C   C31       1.0  0.53150  0.39240  0.02620  1.0000 0.0628540967
C   C32       1.0  0.03150  0.10760  0.97380  1.0000 0.0628540967
C   C33       1.0  0.47700  0.40310  0.41820  1.0000 -0.1529044021
C   C34       1.0  0.97700  0.09690  0.58180  1.0000 -0.1529044021
C   C35       1.0  0.52300  0.59690  0.91820  1.0000 -0.1529044021
C   C36       1.0  0.02300  0.90310  0.08180  1.0000 -0.1529044021
C   C37       1.0  0.52300  0.59690  0.58180  1.0000 -0.1529044021
C   C38       1.0  0.02300  0.90310  0.41820  1.0000 -0.1529044021
C   C39       1.0  0.47700  0.40310  0.08180  1.0000 -0.1529044021
C   C40       1.0  0.97700  0.09690  0.91820  1.0000 -0.1529044021
C   C41       1.0  0.40730  0.35440  0.39670  1.0000 -0.0145675294
C   C42       1.0  0.90730  0.14560  0.60330  1.0000 -0.0145675294
C   C43       1.0  0.59270  0.64560  0.89670  1.0000 -0.0145675294
C   C44       1.0  0.09270  0.85440  0.10330  1.0000 -0.0145675294
C   C45       1.0  0.59270  0.64560  0.60330  1.0000 -0.0145675294
C   C46       1.0  0.09270  0.85440  0.39670  1.0000 -0.0145675294
C   C47       1.0  0.40730  0.35440  0.10330  1.0000 -0.0145675294
C   C48       1.0  0.90730  0.14560  0.89670  1.0000 -0.0145675294
C   C49       1.0  0.38990  0.29120  0.43000  1.0000 -0.1083467981
C   C50       1.0  0.88990  0.20880  0.57000  1.0000 -0.1083467981
C   C51       1.0  0.61010  0.70880  0.93000  1.0000 -0.1083467981
C   C52       1.0  0.11010  0.79120  0.07000  1.0000 -0.1083467981
C   C53       1.0  0.61010  0.70880  0.57000  1.0000 -0.1083467981
C   C54       1.0  0.11010  0.79120  0.43000  1.0000 -0.1083467981
C   C55       1.0  0.38990  0.29120  0.07000  1.0000 -0.1083467981
C   C56       1.0  0.88990  0.20880  0.93000  1.0000 -0.1083467981
C   C57       1.0  0.44040  0.27900  0.48410  1.0000 -0.157361671
C   C58       1.0  0.94040  0.22100  0.51590  1.0000 -0.157361671
C   C59       1.0  0.55960  0.72100  0.98410  1.0000 -0.157361671
C   C60       1.0  0.05960  0.77900  0.01590  1.0000 -0.157361671
C   C61       1.0  0.55960  0.72100  0.51590  1.0000 -0.157361671
C   C62       1.0  0.05960  0.77900  0.48410  1.0000 -0.157361671
C   C63       1.0  0.44040  0.27900  0.01590  1.0000 -0.157361671
C   C64       1.0  0.94040  0.22100  0.98410  1.0000 -0.157361671
C   C65       1.0  0.51240  0.32930  0.50830  1.0000 0.074236222
C   C66       1.0  0.01240  0.17070  0.49170  1.0000 0.074236222
C   C67       1.0  0.48760  0.67070  0.00830  1.0000 0.074236222
C   C68       1.0  0.98760  0.82930  0.99170  1.0000 0.074236222
C   C69       1.0  0.48760  0.67070  0.49170  1.0000 0.074236222
C   C70       1.0  0.98760  0.82930  0.50830  1.0000 0.074236222
C   C71       1.0  0.51240  0.32930  0.99170  1.0000 0.074236222
C   C72       1.0  0.01240  0.17070  0.00830  1.0000 0.074236222
C   C73       1.0  0.56510  0.31940  0.56420  1.0000 -0.157361671
C   C74       1.0  0.06510  0.18060  0.43580  1.0000 -0.157361671
C   C75       1.0  0.43490  0.68060  0.06420  1.0000 -0.157361671
C   C76       1.0  0.93490  0.81940  0.93580  1.0000 -0.157361671
C   C77       1.0  0.43490  0.68060  0.43580  1.0000 -0.157361671
C   C78       1.0  0.93490  0.81940  0.56420  1.0000 -0.157361671
C   C79       1.0  0.56510  0.31940  0.93580  1.0000 -0.157361671
C   C80       1.0  0.06510  0.18060  0.06420  1.0000 -0.157361671
C   C81       1.0  0.68360  0.36270  0.64810  1.0000 0.649227992
C   C82       1.0  0.18360  0.13730  0.35190  1.0000 0.649227992
C   C83       1.0  0.31640  0.63730  0.14810  1.0000 0.649227992
C   C84       1.0  0.81640  0.86270  0.85190  1.0000 0.649227992
C   C85       1.0  0.31640  0.63730  0.35190  1.0000 0.649227992
C   C86       1.0  0.81640  0.86270  0.64810  1.0000 0.649227992
C   C87       1.0  0.68360  0.36270  0.85190  1.0000 0.649227992
C   C88       1.0  0.18360  0.13730  0.14810  1.0000 0.649227992
C   C89       1.0  0.34610  0.37000  0.33880  1.0000 0.649227992
C   C90       1.0  0.84610  0.13000  0.66120  1.0000 0.649227992
C   C91       1.0  0.65390  0.63000  0.83880  1.0000 0.649227992
C   C92       1.0  0.15390  0.87000  0.16120  1.0000 0.649227992
C   C93       1.0  0.65390  0.63000  0.66120  1.0000 0.649227992
C   C94       1.0  0.15390  0.87000  0.33880  1.0000 0.649227992
C   C95       1.0  0.34610  0.37000  0.16120  1.0000 0.649227992
C   C96       1.0  0.84610  0.13000  0.83880  1.0000 0.649227992
C   C97       1.0  0.53450  0.06950  0.59690  1.0000 -0.0167901098
C   C98       1.0  0.03450  0.43050  0.40310  1.0000 -0.0167901098
C   C99       1.0  0.46550  0.93050  0.09690  1.0000 -0.0167901098
C   C100      1.0  0.96550  0.56950  0.90310  1.0000 -0.0167901098
C   C101      1.0  0.46550  0.93050  0.40310  1.0000 -0.0167901098
C   C102      1.0  0.96550  0.56950  0.59690  1.0000 -0.0167901098
C   C103      1.0  0.53450  0.06950  0.90310  1.0000 -0.0167901098
C   C104      1.0  0.03450  0.43050  0.09690  1.0000 -0.0167901098
C   C105      1.0  0.57760  0.00960  0.57170  1.0000 -0.1529044021
C   C106      1.0  0.07760  0.49040  0.42830  1.0000 -0.1529044021
C   C107      1.0  0.42240  0.99040  0.07170  1.0000 -0.1529044021
C   C108      1.0  0.92240  0.50960  0.92830  1.0000 -0.1529044021
C   C109      1.0  0.42240  0.99040  0.42830  1.0000 -0.1529044021
C   C110      1.0  0.92240  0.50960  0.57170  1.0000 -0.1529044021
C   C111      1.0  0.57760  0.00960  0.92830  1.0000 -0.1529044021
C   C112      1.0  0.07760  0.49040  0.07170  1.0000 -0.1529044021
C   C113      1.0  0.54200  0.98260  0.51510  1.0000 0.0761131797
C   C114      1.0  0.04200  0.51740  0.48490  1.0000 0.0761131797
C   C115      1.0  0.45800  0.01740  0.01510  1.0000 0.0761131797
C   C116      1.0  0.95800  0.48260  0.98490  1.0000 0.0761131797
C   C117      1.0  0.45800  0.01740  0.48490  1.0000 0.0761131797
C   C118      1.0  0.95800  0.48260  0.51510  1.0000 0.0761131797
C   C119      1.0  0.54200  0.98260  0.98490  1.0000 0.0761131797
C   C120      1.0  0.04200  0.51740  0.01510  1.0000 0.0761131797
C   C121      1.0  0.41420  0.07840  0.51280  1.0000 -0.157361671
C   C122      1.0  0.91420  0.42160  0.48720  1.0000 -0.157361671
C   C123      1.0  0.58580  0.92160  0.01280  1.0000 -0.157361671
C   C124      1.0  0.08580  0.57840  0.98720  1.0000 -0.157361671
C   C125      1.0  0.58580  0.92160  0.48720  1.0000 -0.157361671
C   C126      1.0  0.08580  0.57840  0.51280  1.0000 -0.157361671
C   C127      1.0  0.41420  0.07840  0.98720  1.0000 -0.157361671
C   C128      1.0  0.91420  0.42160  0.01280  1.0000 -0.157361671
C   C129      1.0  0.45140  0.10390  0.56710  1.0000 -0.1083467981
C   C130      1.0  0.95140  0.39610  0.43290  1.0000 -0.1083467981
C   C131      1.0  0.54860  0.89610  0.06710  1.0000 -0.1083467981
C   C132      1.0  0.04860  0.60390  0.93290  1.0000 -0.1083467981
C   C133      1.0  0.54860  0.89610  0.43290  1.0000 -0.1083467981
C   C134      1.0  0.04860  0.60390  0.56710  1.0000 -0.1083467981
C   C135      1.0  0.45140  0.10390  0.93290  1.0000 -0.1083467981
C   C136      1.0  0.95140  0.39610  0.06710  1.0000 -0.1083467981
C   C137      1.0  0.57720  0.09830  0.65550  1.0000 0.6321918819
C   C138      1.0  0.07720  0.40170  0.34450  1.0000 0.6321918819
C   C139      1.0  0.42280  0.90170  0.15550  1.0000 0.6321918819
C   C140      1.0  0.92280  0.59830  0.84450  1.0000 0.6321918819
C   C141      1.0  0.42280  0.90170  0.34450  1.0000 0.6321918819
C   C142      1.0  0.92280  0.59830  0.65550  1.0000 0.6321918819
C   C143      1.0  0.57720  0.09830  0.84450  1.0000 0.6321918819
C   C144      1.0  0.07720  0.40170  0.15550  1.0000 0.6321918819
O   O1        1.0  0.73960  0.41258  0.66582  1.0000 -0.6871341612
O   O2        1.0  0.23960  0.08742  0.33418  1.0000 -0.6871341612
O   O3        1.0  0.26040  0.58742  0.16582  1.0000 -0.6871341612
O   O4        1.0  0.76040  0.91258  0.83418  1.0000 -0.6871341612
O   O5        1.0  0.26040  0.58742  0.33418  1.0000 -0.6871341612
O   O6        1.0  0.76040  0.91258  0.66582  1.0000 -0.6871341612
O   O7        1.0  0.73960  0.41258  0.83418  1.0000 -0.6871341612
O   O8        1.0  0.23960  0.08742  0.16582  1.0000 -0.6871341612
O   O9        1.0  0.66730  0.30651  0.67736  1.0000 -0.6871341612
O   O10       1.0  0.16730  0.19349  0.32264  1.0000 -0.6871341612
O   O11       1.0  0.33270  0.69349  0.17736  1.0000 -0.6871341612
O   O12       1.0  0.83270  0.80651  0.82264  1.0000 -0.6871341612
O   O13       1.0  0.33270  0.69349  0.32264  1.0000 -0.6871341612
O   O14       1.0  0.83270  0.80651  0.67736  1.0000 -0.6871341612
O   O15       1.0  0.66730  0.30651  0.82264  1.0000 -0.6871341612
O   O16       1.0  0.16730  0.19349  0.17736  1.0000 -0.6871341612
O   O17       1.0  0.35610  0.43080  0.31685  1.0000 -0.6600225415
O   O18       1.0  0.85610  0.06920  0.68315  1.0000 -0.6600225415
O   O19       1.0  0.64390  0.56920  0.81685  1.0000 -0.6600225415
O   O20       1.0  0.14390  0.93080  0.18315  1.0000 -0.6600225415
O   O21       1.0  0.64390  0.56920  0.68315  1.0000 -0.6600225415
O   O22       1.0  0.14390  0.93080  0.31685  1.0000 -0.6600225415
O   O23       1.0  0.35610  0.43080  0.18315  1.0000 -0.6600225415
O   O24       1.0  0.85610  0.06920  0.81685  1.0000 -0.6600225415
O   O25       1.0  0.29160  0.32030  0.31798  1.0000 -0.6736602035
O   O26       1.0  0.79160  0.17970  0.68202  1.0000 -0.6736602035
O   O27       1.0  0.70840  0.67970  0.81798  1.0000 -0.6736602035
O   O28       1.0  0.20840  0.82030  0.18202  1.0000 -0.6736602035
O   O29       1.0  0.70840  0.67970  0.68202  1.0000 -0.6736602035
O   O30       1.0  0.20840  0.82030  0.31798  1.0000 -0.6736602035
O   O31       1.0  0.29160  0.32030  0.18202  1.0000 -0.6736602035
O   O32       1.0  0.79160  0.17970  0.81798  1.0000 -0.6736602035
O   O33       1.0  0.64150  0.06260  0.68480  1.0000 -0.7092032578
O   O34       1.0  0.14150  0.43740  0.31520  1.0000 -0.7092032578
O   O35       1.0  0.35850  0.93740  0.18480  1.0000 -0.7092032578
O   O36       1.0  0.85850  0.56260  0.81520  1.0000 -0.7092032578
O   O37       1.0  0.35850  0.93740  0.31520  1.0000 -0.7092032578
O   O38       1.0  0.85850  0.56260  0.68480  1.0000 -0.7092032578
O   O39       1.0  0.64150  0.06260  0.81520  1.0000 -0.7092032578
O   O40       1.0  0.14150  0.43740  0.18480  1.0000 -0.7092032578
O   O41       1.0  0.54750  0.15890  0.67233  1.0000 -0.6600225415
O   O42       1.0  0.04750  0.34110  0.32767  1.0000 -0.6600225415
O   O43       1.0  0.45250  0.84110  0.17233  1.0000 -0.6600225415
O   O44       1.0  0.95250  0.65890  0.82767  1.0000 -0.6600225415
O   O45       1.0  0.45250  0.84110  0.32767  1.0000 -0.6600225415
O   O46       1.0  0.95250  0.65890  0.67233  1.0000 -0.6600225415
O   O47       1.0  0.54750  0.15890  0.82767  1.0000 -0.6600225415
O   O48       1.0  0.04750  0.34110  0.17233  1.0000 -0.6600225415
