# DDEC6 charges by PACMAN v1.1 (https://github.com/mtap-research/PACMAN-charge/)
data_2015[Mn][lvt]3[ASR]2
_chemical_formula_sum              "Mn8 H40 C72 N56"
_cell_length_a       17.1727
_cell_length_b       17.1727
_cell_length_c       17.1727
_cell_angle_alpha    110.031
_cell_angle_beta     110.031
_cell_angle_gamma    108.357

_symmetry_space_group_name_H-M    "P 1"
_symmetry_Int_Tables_number       1

loop_
  _symmetry_equiv_pos_as_xyz
  'x, y, z'

loop_
  _atom_site_type_symbol
  _atom_site_label
  _atom_site_symmetry_multiplicity
  _atom_site_fract_x
  _atom_site_fract_y
  _atom_site_fract_z
  _atom_site_occupancy
  _atom_site_charge
Mn  Mn1       1.0  0.41773  0.25686  0.36999  1.0000 0.6292651866
Mn  Mn2       1.0  0.88687  0.04774  0.63001  1.0000 0.6292651866
Mn  Mn3       1.0  0.00686  0.13687  0.33913  1.0000 0.6292651866
Mn  Mn4       1.0  0.79774  0.66773  0.66087  1.0000 0.6292651866
Mn  Mn5       1.0  0.33227  0.99314  0.13001  1.0000 0.6292651866
Mn  Mn6       1.0  0.86313  0.20226  0.86999  1.0000 0.6292651866
Mn  Mn7       1.0  0.74314  0.11313  0.16087  1.0000 0.6292651866
Mn  Mn8       1.0  0.95226  0.58227  0.83913  1.0000 0.6292651866
H   H1        1.0  0.96110  0.29450  0.46380  1.0000 0.1023304892
H   H2        1.0  0.83070  0.49730  0.53620  1.0000 0.1023304892
H   H3        1.0  0.04450  0.08070  0.83340  1.0000 0.1023304892
H   H4        1.0  0.24730  0.21110  0.16660  1.0000 0.1023304892
H   H5        1.0  0.78890  0.95550  0.03620  1.0000 0.1023304892
H   H6        1.0  0.91930  0.75270  0.96380  1.0000 0.1023304892
H   H7        1.0  0.70550  0.16930  0.66667  1.0000 0.1023304892
H   H8        1.0  0.50270  0.03890  0.33340  1.0000 0.1023304892
H   H9        1.0  0.03910  0.44090  0.59740  1.0000 0.1417991009
H   H10       1.0  0.84350  0.44170  0.40260  1.0000 0.1417991009
H   H11       1.0  0.19090  0.09350  0.90180  1.0000 0.1417991009
H   H12       1.0  0.19170  0.28910  0.09820  1.0000 0.1417991009
H   H13       1.0  0.71090  0.80910  0.90260  1.0000 0.1417991009
H   H14       1.0  0.90650  0.80830  0.09740  1.0000 0.1417991009
H   H15       1.0  0.55910  0.15650  0.59820  1.0000 0.1417991009
H   H16       1.0  0.55830  0.96090  0.40180  1.0000 0.1417991009
H   H17       1.0  0.20210  0.52850  0.67440  1.0000 0.1201216611
H   H18       1.0  0.85410  0.52770  0.32560  1.0000 0.1327801663
H   H19       1.0  0.27850  0.10410  0.82640  1.0000 0.1201216611
H   H20       1.0  0.27770  0.45210  0.17360  1.0000 0.1201216611
H   H21       1.0  0.54790  0.72150  0.82560  1.0000 0.1201216611
H   H22       1.0  0.89590  0.72230  0.17440  1.0000 0.1201216611
H   H23       1.0  0.47150  0.14590  0.67360  1.0000 0.1327801663
H   H24       1.0  0.47230  0.79790  0.32640  1.0000 0.1201216611
H   H25       1.0  0.28350  0.46560  0.61210  1.0000 0.1327801663
H   H26       1.0  0.85350  0.67140  0.38790  1.0000 0.1327801663
H   H27       1.0  0.21560  0.10350  0.68210  1.0000 0.1327801663
H   H28       1.0  0.42140  0.53350  0.31790  1.0000 0.1327801663
H   H29       1.0  0.46650  0.78440  0.88790  1.0000 0.1327801663
H   H30       1.0  0.89650  0.57860  0.11210  1.0000 0.1327801663
H   H31       1.0  0.53440  0.14650  0.81790  1.0000 0.1327801663
H   H32       1.0  0.32860  0.71650  0.18210  1.0000 0.1327801663
H   H33       1.0  0.12940  0.90930  0.13770  1.0000 0.1023304892
H   H34       1.0  0.77160  0.99170  0.86230  1.0000 0.1023304892
H   H35       1.0  0.65930  0.02160  0.27990  1.0000 0.1023304892
H   H36       1.0  0.74170  0.37940  0.72010  1.0000 0.1023304892
H   H37       1.0  0.62060  0.34070  0.36230  1.0000 0.1023304892
H   H38       1.0  0.97840  0.25830  0.63770  1.0000 0.1023304892
H   H39       1.0  0.09070  0.22840  0.22010  1.0000 0.1023304892
H   H40       1.0  0.00830  0.87060  0.77990  1.0000 0.1023304892
C   C1        1.0  0.02700  0.32930  0.49430  1.0000 0.0334854393
C   C2        1.0  0.83500  0.53270  0.50570  1.0000 0.0334854393
C   C3        1.0  0.07930  0.08500  0.80230  1.0000 0.0334854393
C   C4        1.0  0.28270  0.27700  0.19770  1.0000 0.0334854393
C   C5        1.0  0.72300  0.92070  0.00570  1.0000 0.0334854393
C   C6        1.0  0.91500  0.71730  0.99430  1.0000 0.0334854393
C   C7        1.0  0.67070  0.16500  0.69770  1.0000 0.0334854393
C   C8        1.0  0.46730  0.97300  0.30230  1.0000 0.0334854393
C   C9        1.0  0.07320  0.41710  0.57430  1.0000 -0.1606820755
C   C10       1.0  0.84280  0.49890  0.42570  1.0000 -0.1606820755
C   C11       1.0  0.16710  0.09280  0.84390  1.0000 -0.1606820755
C   C12       1.0  0.24890  0.32320  0.15610  1.0000 -0.1606820755
C   C13       1.0  0.67680  0.83290  0.92570  1.0000 -0.1606820755
C   C14       1.0  0.90720  0.75110  0.07430  1.0000 -0.1606820755
C   C15       1.0  0.58290  0.15720  0.65610  1.0000 -0.1606820755
C   C16       1.0  0.50110  0.92680  0.34390  1.0000 -0.1606820755
C   C17       1.0  0.16920  0.46890  0.61950  1.0000 -0.0565078792
C   C18       1.0  0.84940  0.54970  0.38050  1.0000 -0.0565078792
C   C19       1.0  0.21890  0.09940  0.79970  1.0000 -0.0565078792
C   C20       1.0  0.29970  0.41920  0.20030  1.0000 -0.0565078792
C   C21       1.0  0.58080  0.78110  0.88050  1.0000 -0.0565078792
C   C22       1.0  0.90060  0.70030  0.11950  1.0000 -0.0565078792
C   C23       1.0  0.53110  0.15060  0.70030  1.0000 -0.0565078792
C   C24       1.0  0.45030  0.83080  0.29970  1.0000 -0.0565078792
C   C25       1.0  0.21760  0.43150  0.58230  1.0000 -0.1606820755
C   C26       1.0  0.84920  0.63530  0.41770  1.0000 -0.1606820755
C   C27       1.0  0.18150  0.09920  0.71390  1.0000 -0.1606820755
C   C28       1.0  0.38530  0.46760  0.28610  1.0000 -0.1606820755
C   C29       1.0  0.53240  0.81850  0.91770  1.0000 -0.1606820755
C   C30       1.0  0.90080  0.61470  0.08230  1.0000 -0.1606820755
C   C31       1.0  0.56850  0.15080  0.78610  1.0000 -0.1606820755
C   C32       1.0  0.36470  0.78240  0.21390  1.0000 -0.1606820755
C   C33       1.0  0.16650  0.34320  0.50070  1.0000 0.1561901426
C   C34       1.0  0.84250  0.66580  0.49930  1.0000 0.1561901426
C   C35       1.0  0.09320  0.09250  0.67670  1.0000 0.1561901426
C   C36       1.0  0.41580  0.41650  0.32330  1.0000 0.1561901426
C   C37       1.0  0.58350  0.90680  0.99930  1.0000 0.1545808066
C   C38       1.0  0.90750  0.58420  0.00070  1.0000 0.1561901426
C   C39       1.0  0.65680  0.15750  0.82330  1.0000 0.1561901426
C   C40       1.0  0.33420  0.83350  0.17670  1.0000 0.1561901426
C   C41       1.0  0.21060  0.29710  0.45650  1.0000 0.2222051771
C   C42       1.0  0.84060  0.75410  0.54350  1.0000 0.2222051771
C   C43       1.0  0.04710  0.09060  0.58650  1.0000 0.2222051771
C   C44       1.0  0.50410  0.46060  0.41350  1.0000 0.2222051771
C   C45       1.0  0.53940  0.95290  0.04350  1.0000 0.2222051771
C   C46       1.0  0.90940  0.49590  0.95650  1.0000 0.2222051771
C   C47       1.0  0.70290  0.15940  0.91350  1.0000 0.2222051771
C   C48       1.0  0.24590  0.78940  0.08650  1.0000 0.2222051771
C   C49       1.0  0.22630  0.19320  0.36490  1.0000 0.2304462895
C   C50       1.0  0.82830  0.86140  0.63510  1.0000 0.2304462895
C   C51       1.0  0.94320  0.07830  0.46690  1.0000 0.2304462895
C   C52       1.0  0.61140  0.47630  0.53310  1.0000 0.2304462895
C   C53       1.0  0.52370  0.05680  0.13510  1.0000 0.2304462895
C   C54       1.0  0.92170  0.38860  0.86490  1.0000 0.2304462895
C   C55       1.0  0.80680  0.17170  0.03310  1.0000 0.2304462895
C   C56       1.0  0.13860  0.77370  0.96690  1.0000 0.2304462895
C   C57       1.0  0.21350  0.10880  0.29170  1.0000 0.2222051771
C   C58       1.0  0.81710  0.92180  0.70830  1.0000 0.2222051771
C   C59       1.0  0.85880  0.06710  0.39530  1.0000 0.2222051771
C   C60       1.0  0.67180  0.46350  0.60470  1.0000 0.2222051771
C   C61       1.0  0.53650  0.14120  0.20830  1.0000 0.2222051771
C   C62       1.0  0.93290  0.32820  0.79170  1.0000 0.2222051771
C   C63       1.0  0.89120  0.18290  0.10470  1.0000 0.2222051771
C   C64       1.0  0.07820  0.78650  0.89530  1.0000 0.2222051771
C   C65       1.0  0.16660  0.97370  0.18350  1.0000 0.1201216611
C   C66       1.0  0.79020  0.98310  0.81650  1.0000 0.1201216611
C   C67       1.0  0.72370  0.04020  0.30710  1.0000 0.1201216611
C   C68       1.0  0.73310  0.41660  0.69290  1.0000 0.1201216611
C   C69       1.0  0.58340  0.27630  0.31650  1.0000 0.1201216611
C   C70       1.0  0.95980  0.26690  0.68350  1.0000 0.1201216611
C   C71       1.0  0.02630  0.20980  0.19290  1.0000 0.1201216611
C   C72       1.0  0.01690  0.83340  0.80710  1.0000 0.1201216611
N   N1        1.0  0.07214  0.29114  0.45800  1.0000 -0.2077637652
N   N2        1.0  0.83314  0.61414  0.54200  1.0000 -0.1985651585
N   N3        1.0  0.04114  0.08314  0.71900  1.0000 -0.2077637652
N   N4        1.0  0.36414  0.32214  0.28100  1.0000 -0.1985651585
N   N5        1.0  0.67786  0.95886  0.04200  1.0000 -0.1985651585
N   N6        1.0  0.91686  0.63586  0.95800  1.0000 -0.2077637652
N   N7        1.0  0.70886  0.16686  0.78100  1.0000 -0.2077637652
N   N8        1.0  0.38586  0.92786  0.21900  1.0000 -0.1985651585
N   N9        1.0  0.31056  0.27186  0.41830  1.0000 -0.2077637652
N   N10       1.0  0.85356  0.89226  0.58170  1.0000 -0.2077637652
N   N11       1.0  0.02186  0.10356  0.46130  1.0000 -0.2077637652
N   N12       1.0  0.64226  0.56056  0.53870  1.0000 -0.2077637652
N   N13       1.0  0.43944  0.97814  0.08170  1.0000 -0.2077637652
N   N14       1.0  0.89644  0.35774  0.91830  1.0000 -0.2077637652
N   N15       1.0  0.72814  0.14644  0.03870  1.0000 -0.2077637652
N   N16       1.0  0.10774  0.68944  0.96130  1.0000 -0.2077637652
N   N17       1.0  0.30082  0.34032  0.47810  1.0000 -0.2566465016
N   N18       1.0  0.86222  0.82272  0.52190  1.0000 -0.2566465016
N   N19       1.0  0.09032  0.11222  0.53950  1.0000 -0.2566465016
N   N20       1.0  0.57272  0.55082  0.46050  1.0000 -0.2566465016
N   N21       1.0  0.44918  0.90968  0.02190  1.0000 -0.2566465016
N   N22       1.0  0.88778  0.42728  0.97810  1.0000 -0.2566465016
N   N23       1.0  0.65968  0.13778  0.96050  1.0000 -0.2566465016
N   N24       1.0  0.17728  0.69918  0.03950  1.0000 -0.2566465016
N   N25       1.0  0.16068  0.20529  0.38583  1.0000 -0.3592924986
N   N26       1.0  0.81946  0.77485  0.61417  1.0000 -0.3592924986
N   N27       1.0  0.95529  0.06946  0.54461  1.0000 -0.3592924986
N   N28       1.0  0.52485  0.41068  0.45539  1.0000 -0.3592924986
N   N29       1.0  0.58932  0.04471  0.11417  1.0000 -0.3592924986
N   N30       1.0  0.93054  0.47515  0.88583  1.0000 -0.3592924986
N   N31       1.0  0.79471  0.18054  0.95539  1.0000 -0.3592924986
N   N32       1.0  0.22515  0.83932  0.04461  1.0000 -0.3592924986
N   N33       1.0  0.28390  0.11593  0.27335  1.0000 -0.228664792
N   N34       1.0  0.84258  0.01055  0.72665  1.0000 -0.228664792
N   N35       1.0  0.86593  0.09258  0.33203  1.0000 -0.228664792
N   N36       1.0  0.76055  0.53390  0.66797  1.0000 -0.228664792
N   N37       1.0  0.46610  0.13407  0.22665  1.0000 -0.228664792
N   N38       1.0  0.90742  0.23945  0.77335  1.0000 -0.228664792
N   N39       1.0  0.88407  0.15742  0.16797  1.0000 -0.228664792
N   N40       1.0  0.98945  0.71610  0.83203  1.0000 -0.228664792
N   N41       1.0  0.25247  0.02657  0.20170  1.0000 -0.1943228048
N   N42       1.0  0.82487  0.05077  0.79830  1.0000 -0.1985651585
N   N43       1.0  0.77657  0.07487  0.27410  1.0000 -0.1985651585
N   N44       1.0  0.80077  0.50247  0.72590  1.0000 -0.1985651585
N   N45       1.0  0.49753  0.22343  0.29830  1.0000 -0.1985651585
N   N46       1.0  0.92513  0.19923  0.70170  1.0000 -0.1985651585
N   N47       1.0  0.97343  0.17513  0.22590  1.0000 -0.1985651585
N   N48       1.0  0.94923  0.74753  0.77410  1.0000 -0.1985651585
N   N49       1.0  0.13748  0.02148  0.23740  1.0000 -0.384647141
N   N50       1.0  0.78408  0.90008  0.76260  1.0000 -0.384647141
N   N51       1.0  0.77148  0.03408  0.38400  1.0000 -0.384647141
N   N52       1.0  0.65008  0.38748  0.61600  1.0000 -0.384647141
N   N53       1.0  0.61252  0.22852  0.26260  1.0000 -0.3852806788
N   N54       1.0  0.96592  0.34992  0.73740  1.0000 -0.384647141
N   N55       1.0  0.97852  0.21592  0.11600  1.0000 -0.384647141
N   N56       1.0  0.09992  0.86252  0.88400  1.0000 -0.3852806788
