# DDEC6 charges by PACMAN v1.1 (https://github.com/mtap-research/PACMAN-charge/)
data_2015[Cu][smn]3[ASR]1
_chemical_formula_sum              "Cu12 H72 C108 N18 O36"
_cell_length_a       20.9335
_cell_length_b       20.9335
_cell_length_c       20.9335
_cell_angle_alpha    115.808
_cell_angle_beta     115.808
_cell_angle_gamma    115.808

_symmetry_space_group_name_H-M    "P 1"
_symmetry_Int_Tables_number       1

loop_
  _symmetry_equiv_pos_as_xyz
  'x, y, z'

loop_
  _atom_site_type_symbol
  _atom_site_label
  _atom_site_symmetry_multiplicity
  _atom_site_fract_x
  _atom_site_fract_y
  _atom_site_fract_z
  _atom_site_occupancy
  _atom_site_charge
Cu  Cu1       1.0  0.92375  0.59538  0.75224  1.0000 0.6867577485
Cu  Cu2       1.0  0.59538  0.75224  0.92375  1.0000 0.6867577485
Cu  Cu3       1.0  0.75224  0.92375  0.59538  1.0000 0.6867577485
Cu  Cu4       1.0  0.07625  0.40462  0.24776  1.0000 0.6867577485
Cu  Cu5       1.0  0.40462  0.24776  0.07625  1.0000 0.6867577485
Cu  Cu6       1.0  0.24776  0.07625  0.40462  1.0000 0.6867577485
Cu  Cu7       1.0  0.01271  0.54775  0.65121  1.0000 0.7823822549
Cu  Cu8       1.0  0.54775  0.65121  0.01271  1.0000 0.7823822549
Cu  Cu9       1.0  0.65121  0.01271  0.54775  1.0000 0.7823822549
Cu  Cu10      1.0  0.98729  0.45225  0.34879  1.0000 0.7823822549
Cu  Cu11      1.0  0.45225  0.34879  0.98729  1.0000 0.7823822549
Cu  Cu12      1.0  0.34879  0.98729  0.45225  1.0000 0.7823822549
H   H1        1.0  0.83850  0.44280  0.75220  1.0000 0.0857625208
H   H2        1.0  0.44280  0.75220  0.83850  1.0000 0.0857625208
H   H3        1.0  0.75220  0.83850  0.44280  1.0000 0.0857625208
H   H4        1.0  0.16150  0.55720  0.24780  1.0000 0.0857625208
H   H5        1.0  0.55720  0.24780  0.16150  1.0000 0.0857625208
H   H6        1.0  0.24780  0.16150  0.55720  1.0000 0.0857625208
H   H7        1.0  0.66970  0.27970  0.65360  1.0000 0.1380078173
H   H8        1.0  0.27970  0.65360  0.66970  1.0000 0.1380078173
H   H9        1.0  0.65360  0.66970  0.27970  1.0000 0.1380078173
H   H10       1.0  0.33030  0.72030  0.34640  1.0000 0.1380078173
H   H11       1.0  0.72030  0.34640  0.33030  1.0000 0.1380078173
H   H12       1.0  0.34640  0.33030  0.72030  1.0000 0.1380078173
H   H13       1.0  0.52480  0.33060  0.51930  1.0000 0.1304879618
H   H14       1.0  0.33060  0.51930  0.52480  1.0000 0.1304879618
H   H15       1.0  0.51930  0.52480  0.33060  1.0000 0.1304879618
H   H16       1.0  0.47520  0.66940  0.48070  1.0000 0.1304879618
H   H17       1.0  0.66940  0.48070  0.47520  1.0000 0.1304879618
H   H18       1.0  0.48070  0.47520  0.66940  1.0000 0.1304879618
H   H19       1.0  0.69420  0.48520  0.61210  1.0000 0.1009975201
H   H20       1.0  0.48520  0.61210  0.69420  1.0000 0.1009975201
H   H21       1.0  0.61210  0.69420  0.48520  1.0000 0.1009975201
H   H22       1.0  0.30580  0.51480  0.38790  1.0000 0.1009975201
H   H23       1.0  0.51480  0.38790  0.30580  1.0000 0.1009975201
H   H24       1.0  0.38790  0.30580  0.51480  1.0000 0.1009975201
H   H25       1.0  0.10630  0.67550  0.94680  1.0000 0.1107697761
H   H26       1.0  0.67550  0.94680  0.10630  1.0000 0.1107697761
H   H27       1.0  0.94680  0.10630  0.67550  1.0000 0.1107697761
H   H28       1.0  0.89370  0.32450  0.05320  1.0000 0.1107697761
H   H29       1.0  0.32450  0.05320  0.89370  1.0000 0.1107697761
H   H30       1.0  0.05320  0.89370  0.32450  1.0000 0.1107697761
H   H31       1.0  0.21710  0.87180  0.79250  1.0000 0.1304879618
H   H32       1.0  0.87180  0.79250  0.21710  1.0000 0.1304879618
H   H33       1.0  0.79250  0.21710  0.87180  1.0000 0.1304879618
H   H34       1.0  0.78290  0.12820  0.20750  1.0000 0.1304879618
H   H35       1.0  0.12820  0.20750  0.78290  1.0000 0.1304879618
H   H36       1.0  0.20750  0.78290  0.12820  1.0000 0.1304879618
H   H37       1.0  0.17870  0.92010  0.97400  1.0000 0.1304879618
H   H38       1.0  0.92010  0.97400  0.17870  1.0000 0.1304879618
H   H39       1.0  0.97400  0.17870  0.92010  1.0000 0.1304879618
H   H40       1.0  0.82130  0.07990  0.02600  1.0000 0.1304879618
H   H41       1.0  0.07990  0.02600  0.82130  1.0000 0.1304879618
H   H42       1.0  0.02600  0.82130  0.07990  1.0000 0.1304879618
H   H43       1.0  0.92440  0.70570  0.89800  1.0000 0.1009975201
H   H44       1.0  0.70570  0.89800  0.92440  1.0000 0.1009975201
H   H45       1.0  0.89800  0.92440  0.70570  1.0000 0.1009975201
H   H46       1.0  0.07560  0.29430  0.10200  1.0000 0.1009975201
H   H47       1.0  0.29430  0.10200  0.07560  1.0000 0.1009975201
H   H48       1.0  0.10200  0.07560  0.29430  1.0000 0.1009975201
H   H49       1.0  0.85890  0.26280  0.75090  1.0000 0.1107697761
H   H50       1.0  0.26280  0.75090  0.85890  1.0000 0.1107697761
H   H51       1.0  0.75090  0.85890  0.26280  1.0000 0.1107697761
H   H52       1.0  0.14110  0.73720  0.24910  1.0000 0.1107697761
H   H53       1.0  0.73720  0.24910  0.14110  1.0000 0.1107697761
H   H54       1.0  0.24910  0.14110  0.73720  1.0000 0.1107697761
H   H55       1.0  0.95680  0.41420  0.79230  1.0000 0.1304879618
H   H56       1.0  0.41420  0.79230  0.95680  1.0000 0.1304879618
H   H57       1.0  0.79230  0.95680  0.41420  1.0000 0.1304879618
H   H58       1.0  0.04320  0.58580  0.20770  1.0000 0.1304879618
H   H59       1.0  0.58580  0.20770  0.04320  1.0000 0.1304879618
H   H60       1.0  0.20770  0.04320  0.58580  1.0000 0.1304879618
H   H61       1.0  0.73070  0.20160  0.46410  1.0000 0.1380078173
H   H62       1.0  0.20160  0.46410  0.73070  1.0000 0.1380078173
H   H63       1.0  0.46410  0.73070  0.20160  1.0000 0.1380078173
H   H64       1.0  0.26930  0.79840  0.53590  1.0000 0.1380078173
H   H65       1.0  0.79840  0.53590  0.26930  1.0000 0.1380078173
H   H66       1.0  0.53590  0.26930  0.79840  1.0000 0.1380078173
H   H67       1.0  0.63560  0.05680  0.43030  1.0000 0.1009975201
H   H68       1.0  0.05680  0.43030  0.63560  1.0000 0.1009975201
H   H69       1.0  0.43030  0.63560  0.05680  1.0000 0.1009975201
H   H70       1.0  0.36440  0.94320  0.56970  1.0000 0.1009975201
H   H71       1.0  0.94320  0.56970  0.36440  1.0000 0.1009975201
H   H72       1.0  0.56970  0.36440  0.94320  1.0000 0.1009975201
C   C1        1.0  0.77350  0.41760  0.70180  1.0000 0.0790130863
C   C2        1.0  0.41760  0.70180  0.77350  1.0000 0.0790130863
C   C3        1.0  0.70180  0.77350  0.41760  1.0000 0.0790130863
C   C4        1.0  0.22650  0.58240  0.29820  1.0000 0.0790130863
C   C5        1.0  0.58240  0.29820  0.22650  1.0000 0.0790130863
C   C6        1.0  0.29820  0.22650  0.58240  1.0000 0.0790130863
C   C7        1.0  0.67310  0.32090  0.64460  1.0000 -0.1681928285
C   C8        1.0  0.32090  0.64460  0.67310  1.0000 -0.1681928285
C   C9        1.0  0.64460  0.67310  0.32090  1.0000 -0.1681928285
C   C10       1.0  0.32690  0.67910  0.35540  1.0000 -0.1681928285
C   C11       1.0  0.67910  0.35540  0.32690  1.0000 -0.1681928285
C   C12       1.0  0.35540  0.32690  0.67910  1.0000 -0.1681928285
C   C13       1.0  0.57790  0.28670  0.57350  1.0000 0.0345839648
C   C14       1.0  0.28670  0.57350  0.57790  1.0000 0.0345839648
C   C15       1.0  0.57350  0.57790  0.28670  1.0000 0.0345839648
C   C16       1.0  0.42210  0.71330  0.42650  1.0000 0.0345839648
C   C17       1.0  0.71330  0.42650  0.42210  1.0000 0.0345839648
C   C18       1.0  0.42650  0.42210  0.71330  1.0000 0.0345839648
C   C19       1.0  0.58710  0.35020  0.56400  1.0000 -0.1615444483
C   C20       1.0  0.35020  0.56400  0.58710  1.0000 -0.1615444483
C   C21       1.0  0.56400  0.58710  0.35020  1.0000 -0.1615444483
C   C22       1.0  0.41290  0.64980  0.43600  1.0000 -0.1615444483
C   C23       1.0  0.64980  0.43600  0.41290  1.0000 -0.1615444483
C   C24       1.0  0.43600  0.41290  0.64980  1.0000 -0.1615444483
C   C25       1.0  0.68900  0.44330  0.62070  1.0000 0.0549702472
C   C26       1.0  0.44330  0.62070  0.68900  1.0000 0.0551291532
C   C27       1.0  0.62070  0.68900  0.44330  1.0000 0.0549702472
C   C28       1.0  0.31100  0.55670  0.37930  1.0000 0.0549702472
C   C29       1.0  0.55670  0.37930  0.31100  1.0000 0.0549702472
C   C30       1.0  0.37930  0.31100  0.55670  1.0000 0.0549702472
C   C31       1.0  0.81660  0.48790  0.53160  1.0000 0.5601113787
C   C32       1.0  0.48790  0.53160  0.81660  1.0000 0.5601113787
C   C33       1.0  0.53160  0.81660  0.48790  1.0000 0.5601113787
C   C34       1.0  0.18340  0.51210  0.46840  1.0000 0.5601113787
C   C35       1.0  0.51210  0.46840  0.18340  1.0000 0.5601113787
C   C36       1.0  0.46840  0.18340  0.51210  1.0000 0.5601113787
C   C37       1.0  0.08930  0.70460  0.97380  1.0000 0.0790130863
C   C38       1.0  0.70460  0.97380  0.08930  1.0000 0.0790130863
C   C39       1.0  0.97380  0.08930  0.70460  1.0000 0.0790130863
C   C40       1.0  0.91070  0.29540  0.02620  1.0000 0.0790130863
C   C41       1.0  0.29540  0.02620  0.91070  1.0000 0.0790130863
C   C42       1.0  0.02620  0.91070  0.29540  1.0000 0.0790130863
C   C43       1.0  0.23010  0.91700  0.84880  1.0000 -0.1615444483
C   C44       1.0  0.91700  0.84880  0.23010  1.0000 -0.1615444483
C   C45       1.0  0.84880  0.23010  0.91700  1.0000 -0.1615444483
C   C46       1.0  0.76990  0.08300  0.15120  1.0000 -0.1615444483
C   C47       1.0  0.08300  0.15120  0.76990  1.0000 -0.1615444483
C   C48       1.0  0.15120  0.76990  0.08300  1.0000 -0.1615444483
C   C49       1.0  0.18470  0.87610  0.87140  1.0000 0.0188289935
C   C50       1.0  0.87610  0.87140  0.18470  1.0000 0.0188289935
C   C51       1.0  0.87140  0.18470  0.87610  1.0000 0.0188289935
C   C52       1.0  0.81530  0.12390  0.12860  1.0000 0.0188289935
C   C53       1.0  0.12390  0.12860  0.81530  1.0000 0.0188289935
C   C54       1.0  0.12860  0.81530  0.12390  1.0000 0.0188289935
C   C55       1.0  0.20830  0.94570  0.95660  1.0000 -0.1615444483
C   C56       1.0  0.94570  0.95660  0.20830  1.0000 -0.1615444483
C   C57       1.0  0.95660  0.20830  0.94570  1.0000 -0.1615444483
C   C58       1.0  0.79170  0.05430  0.04340  1.0000 -0.1615444483
C   C59       1.0  0.05430  0.04340  0.79170  1.0000 -0.1615444483
C   C60       1.0  0.04340  0.79170  0.05430  1.0000 -0.1615444483
C   C61       1.0  0.98400  0.72360  0.94600  1.0000 0.0423859248
C   C62       1.0  0.72360  0.94600  0.98400  1.0000 0.0423859248
C   C63       1.0  0.94600  0.98400  0.72360  1.0000 0.0423859248
C   C64       1.0  0.01600  0.27640  0.05400  1.0000 0.0423859248
C   C65       1.0  0.27640  0.05400  0.01600  1.0000 0.0423859248
C   C66       1.0  0.05400  0.01600  0.27640  1.0000 0.0423859248
C   C67       1.0  0.10920  0.75700  0.80470  1.0000 0.5601113787
C   C68       1.0  0.75700  0.80470  0.10920  1.0000 0.5601113787
C   C69       1.0  0.80470  0.10920  0.75700  1.0000 0.5601113787
C   C70       1.0  0.89080  0.24300  0.19530  1.0000 0.5601113787
C   C71       1.0  0.24300  0.19530  0.89080  1.0000 0.5601113787
C   C72       1.0  0.19530  0.89080  0.24300  1.0000 0.5601113787
C   C73       1.0  0.83230  0.25050  0.69240  1.0000 0.0682747229
C   C74       1.0  0.25050  0.69240  0.83230  1.0000 0.0682747229
C   C75       1.0  0.69240  0.83230  0.25050  1.0000 0.0682747229
C   C76       1.0  0.16770  0.74950  0.30760  1.0000 0.0682747229
C   C77       1.0  0.74950  0.30760  0.16770  1.0000 0.0682747229
C   C78       1.0  0.30760  0.16770  0.74950  1.0000 0.0682747229
C   C79       1.0  0.89170  0.34140  0.71780  1.0000 -0.1681928285
C   C80       1.0  0.34140  0.71780  0.89170  1.0000 -0.1681928285
C   C81       1.0  0.71780  0.89170  0.34140  1.0000 -0.1681928285
C   C82       1.0  0.10830  0.65860  0.28220  1.0000 -0.1681928285
C   C83       1.0  0.65860  0.28220  0.10830  1.0000 -0.1681928285
C   C84       1.0  0.28220  0.10830  0.65860  1.0000 -0.1681928285
C   C85       1.0  0.85380  0.32330  0.63200  1.0000 0.0188289935
C   C86       1.0  0.32330  0.63200  0.85380  1.0000 0.0188289935
C   C87       1.0  0.63200  0.85380  0.32330  1.0000 0.0188289935
C   C88       1.0  0.14620  0.67670  0.36800  1.0000 0.0188289935
C   C89       1.0  0.67670  0.36800  0.14620  1.0000 0.0188289935
C   C90       1.0  0.36800  0.14620  0.67670  1.0000 0.0188289935
C   C91       1.0  0.75780  0.21600  0.52390  1.0000 -0.1615444483
C   C92       1.0  0.21600  0.52390  0.75780  1.0000 -0.1615444483
C   C93       1.0  0.52390  0.75780  0.21600  1.0000 -0.1615444483
C   C94       1.0  0.24220  0.78400  0.47610  1.0000 -0.1615444483
C   C95       1.0  0.78400  0.47610  0.24220  1.0000 -0.1615444483
C   C96       1.0  0.47610  0.24220  0.78400  1.0000 -0.1615444483
C   C97       1.0  0.70180  0.12980  0.50450  1.0000 0.0682747229
C   C98       1.0  0.12980  0.50450  0.70180  1.0000 0.0682747229
C   C99       1.0  0.50450  0.70180  0.12980  1.0000 0.0682747229
C   C100      1.0  0.29820  0.87020  0.49550  1.0000 0.0682747229
C   C101      1.0  0.87020  0.49550  0.29820  1.0000 0.0682747229
C   C102      1.0  0.49550  0.29820  0.87020  1.0000 0.0682747229
C   C103      1.0  0.91570  0.41980  0.65610  1.0000 0.5384510807
C   C104      1.0  0.41980  0.65610  0.91570  1.0000 0.5384510807
C   C105      1.0  0.65610  0.91570  0.41980  1.0000 0.5384510807
C   C106      1.0  0.08430  0.58020  0.34390  1.0000 0.5384510807
C   C107      1.0  0.58020  0.34390  0.08430  1.0000 0.5384510807
C   C108      1.0  0.34390  0.08430  0.58020  1.0000 0.5384510807
N   N1        1.0  0.78100  0.47570  0.68810  1.0000 -0.2384065786
N   N2        1.0  0.47570  0.68810  0.78100  1.0000 -0.2384065786
N   N3        1.0  0.68810  0.78100  0.47570  1.0000 -0.2384065786
N   N4        1.0  0.21900  0.52430  0.31190  1.0000 -0.2384065786
N   N5        1.0  0.52430  0.31190  0.21900  1.0000 -0.2384065786
N   N6        1.0  0.31190  0.21900  0.52430  1.0000 -0.2384065786
N   N7        1.0  0.00730  0.68170  0.90620  1.0000 -0.2314144546
N   N8        1.0  0.68170  0.90620  0.00730  1.0000 -0.2314144546
N   N9        1.0  0.90620  0.00730  0.68170  1.0000 -0.2314144546
N   N10       1.0  0.99270  0.31830  0.09380  1.0000 -0.2314144546
N   N11       1.0  0.31830  0.09380  0.99270  1.0000 -0.2314144546
N   N12       1.0  0.09380  0.99270  0.31830  1.0000 -0.2314144546
N   N13       1.0  0.73710  0.14480  0.58590  1.0000 -0.2561234185
N   N14       1.0  0.14480  0.58590  0.73710  1.0000 -0.2561234185
N   N15       1.0  0.58590  0.73710  0.14480  1.0000 -0.2561234185
N   N16       1.0  0.26290  0.85520  0.41410  1.0000 -0.2561234185
N   N17       1.0  0.85520  0.41410  0.26290  1.0000 -0.2561234185
N   N18       1.0  0.41410  0.26290  0.85520  1.0000 -0.2561234185
O   O1        1.0  0.88140  0.49360  0.53730  1.0000 -0.5209112713
O   O2        1.0  0.49360  0.53730  0.88140  1.0000 -0.5209112713
O   O3        1.0  0.53730  0.88140  0.49360  1.0000 -0.5209112713
O   O4        1.0  0.11860  0.50640  0.46270  1.0000 -0.5209112713
O   O5        1.0  0.50640  0.46270  0.11860  1.0000 -0.5209112713
O   O6        1.0  0.46270  0.11860  0.50640  1.0000 -0.5209112713
O   O7        1.0  0.82790  0.52720  0.60610  1.0000 -0.5466746041
O   O8        1.0  0.52720  0.60610  0.82790  1.0000 -0.5466746041
O   O9        1.0  0.60610  0.82790  0.52720  1.0000 -0.5466746041
O   O10       1.0  0.17210  0.47280  0.39390  1.0000 -0.5466746041
O   O11       1.0  0.47280  0.39390  0.17210  1.0000 -0.5466746041
O   O12       1.0  0.39390  0.17210  0.47280  1.0000 -0.5466746041
O   O13       1.0  0.05850  0.72440  0.82020  1.0000 -0.5391828218
O   O14       1.0  0.72440  0.82020  0.05850  1.0000 -0.5391828218
O   O15       1.0  0.82020  0.05850  0.72440  1.0000 -0.5391828218
O   O16       1.0  0.94150  0.27560  0.17980  1.0000 -0.5391828218
O   O17       1.0  0.27560  0.17980  0.94150  1.0000 -0.5391828218
O   O18       1.0  0.17980  0.94150  0.27560  1.0000 -0.5391828218
O   O19       1.0  0.10470  0.70170  0.74040  1.0000 -0.5391828218
O   O20       1.0  0.70170  0.74040  0.10470  1.0000 -0.5391828218
O   O21       1.0  0.74040  0.10470  0.70170  1.0000 -0.5391828218
O   O22       1.0  0.89530  0.29830  0.25960  1.0000 -0.5391828218
O   O23       1.0  0.29830  0.25960  0.89530  1.0000 -0.5391828218
O   O24       1.0  0.25960  0.89530  0.29830  1.0000 -0.5391828218
O   O25       1.0  0.96590  0.51070  0.74030  1.0000 -0.6249054917
O   O26       1.0  0.51070  0.74030  0.96590  1.0000 -0.6249054917
O   O27       1.0  0.74030  0.96590  0.51070  1.0000 -0.6249054917
O   O28       1.0  0.03410  0.48930  0.25970  1.0000 -0.6249054917
O   O29       1.0  0.48930  0.25970  0.03410  1.0000 -0.6249054917
O   O30       1.0  0.25970  0.03410  0.48930  1.0000 -0.6249054917
O   O31       1.0  0.91380  0.40330  0.58910  1.0000 -0.5209112713
O   O32       1.0  0.40330  0.58910  0.91380  1.0000 -0.5209112713
O   O33       1.0  0.58910  0.91380  0.40330  1.0000 -0.5209112713
O   O34       1.0  0.08620  0.59670  0.41090  1.0000 -0.5209112713
O   O35       1.0  0.59670  0.41090  0.08620  1.0000 -0.5209112713
O   O36       1.0  0.41090  0.08620  0.59670  1.0000 -0.5209112713
