# DDEC6 charges by PACMAN v1.1 (https://github.com/mtap-research/PACMAN-charge/)
data_2015[Cu][bcu]3[ASR]2
_chemical_formula_sum              "Cu8 P12 H44 C64 N8 O36"
_cell_length_a       15.0053
_cell_length_b       15.0053
_cell_length_c       18.8921
_cell_angle_alpha    90
_cell_angle_beta     90
_cell_angle_gamma    143.214

_symmetry_space_group_name_H-M    "P 1"
_symmetry_Int_Tables_number       1

loop_
  _symmetry_equiv_pos_as_xyz
  'x, y, z'

loop_
  _atom_site_type_symbol
  _atom_site_label
  _atom_site_symmetry_multiplicity
  _atom_site_fract_x
  _atom_site_fract_y
  _atom_site_fract_z
  _atom_site_occupancy
  _atom_site_charge
Cu  Cu1       1.0  0.04233  0.17327  0.92551  1.0000 0.9418870349
Cu  Cu2       1.0  0.45767  0.32673  0.42551  1.0000 0.9418870349
Cu  Cu3       1.0  0.67327  0.54233  0.57449  1.0000 0.9418870349
Cu  Cu4       1.0  0.82673  0.95767  0.07449  1.0000 0.9418870349
Cu  Cu5       1.0  0.95767  0.82673  0.07449  1.0000 0.9418870349
Cu  Cu6       1.0  0.54233  0.67327  0.57449  1.0000 0.9418870349
Cu  Cu7       1.0  0.32673  0.45767  0.42551  1.0000 0.9418870349
Cu  Cu8       1.0  0.17327  0.04233  0.92551  1.0000 0.9418870349
P   P1        1.0  0.36150  0.36150  0.55910  1.0000 1.2462451224
P   P2        1.0  0.13850  0.13850  0.05910  1.0000 1.2462451224
P   P3        1.0  0.86150  0.86150  0.94090  1.0000 1.2462451224
P   P4        1.0  0.63850  0.63850  0.44090  1.0000 1.2462451224
P   P5        1.0  0.95190  0.14490  0.76000  1.0000 1.2730876144
P   P6        1.0  0.54810  0.35510  0.26000  1.0000 1.2730876144
P   P7        1.0  0.64490  0.45190  0.74000  1.0000 1.2730876144
P   P8        1.0  0.85510  0.04810  0.24000  1.0000 1.2730876144
P   P9        1.0  0.04810  0.85510  0.24000  1.0000 1.2730876144
P   P10       1.0  0.45190  0.64490  0.74000  1.0000 1.2730876144
P   P11       1.0  0.35510  0.54810  0.26000  1.0000 1.2730876144
P   P12       1.0  0.14490  0.95190  0.76000  1.0000 1.2754190926
H   H1        1.0  0.01900  0.01900  0.79700  1.0000 0.1378993582
H   H2        1.0  0.48100  0.48100  0.29700  1.0000 0.1378993582
H   H3        1.0  0.51900  0.51900  0.70300  1.0000 0.1378993582
H   H4        1.0  0.98100  0.98100  0.20300  1.0000 0.1378993582
H   H5        1.0  0.14190  0.28410  0.63900  1.0000 0.1378993582
H   H6        1.0  0.35810  0.21590  0.13900  1.0000 0.1378993582
H   H7        1.0  0.78410  0.64190  0.86100  1.0000 0.1378993582
H   H8        1.0  0.71590  0.85810  0.36100  1.0000 0.1378993582
H   H9        1.0  0.85810  0.71590  0.36100  1.0000 0.1378993582
H   H10       1.0  0.64190  0.78410  0.86100  1.0000 0.1378993582
H   H11       1.0  0.21590  0.35810  0.13900  1.0000 0.1378993582
H   H12       1.0  0.28410  0.14190  0.63900  1.0000 0.1378993582
H   H13       1.0  0.19110  0.57090  0.04500  1.0000 0.1487850443
H   H14       1.0  0.30890  0.92910  0.54500  1.0000 0.1487850443
H   H15       1.0  0.07090  0.69110  0.45500  1.0000 0.1487850443
H   H16       1.0  0.42910  0.80890  0.95500  1.0000 0.1487850443
H   H17       1.0  0.80890  0.42910  0.95500  1.0000 0.1487850443
H   H18       1.0  0.69110  0.07090  0.45500  1.0000 0.1487850443
H   H19       1.0  0.92910  0.30890  0.54500  1.0000 0.1487850443
H   H20       1.0  0.57090  0.19110  0.04500  1.0000 0.1487850443
H   H21       1.0  0.18930  0.42070  0.01500  1.0000 0.1487850443
H   H22       1.0  0.31070  0.07930  0.51500  1.0000 0.1487850443
H   H23       1.0  0.92070  0.68930  0.48500  1.0000 0.1487850443
H   H24       1.0  0.57930  0.81070  0.98500  1.0000 0.1487850443
H   H25       1.0  0.81070  0.57930  0.98500  1.0000 0.1487850443
H   H26       1.0  0.68930  0.92070  0.48500  1.0000 0.1487850443
H   H27       1.0  0.07930  0.31070  0.51500  1.0000 0.1487850443
H   H28       1.0  0.42070  0.18930  0.01500  1.0000 0.1487850443
H   H29       1.0  0.83530  0.16670  0.90100  1.0000 0.1378993582
H   H30       1.0  0.66470  0.33333  0.40100  1.0000 0.1378993582
H   H31       1.0  0.66667  0.33530  0.59900  1.0000 0.1378993582
H   H32       1.0  0.83330  0.16470  0.09900  1.0000 0.1378993582
H   H33       1.0  0.16470  0.83330  0.09900  1.0000 0.1378993582
H   H34       1.0  0.33530  0.66667  0.59900  1.0000 0.1378993582
H   H35       1.0  0.33333  0.66470  0.40100  1.0000 0.1378993582
H   H36       1.0  0.16670  0.83530  0.90100  1.0000 0.1378993582
H   H37       1.0  0.83400  0.31800  0.92200  1.0000 0.1487850443
H   H38       1.0  0.66600  0.18200  0.42200  1.0000 0.1487850443
H   H39       1.0  0.81800  0.33400  0.57800  1.0000 0.1487850443
H   H40       1.0  0.68200  0.16600  0.07800  1.0000 0.1487850443
H   H41       1.0  0.16600  0.68200  0.07800  1.0000 0.1487850443
H   H42       1.0  0.33400  0.81800  0.57800  1.0000 0.1487850443
H   H43       1.0  0.18200  0.66600  0.42200  1.0000 0.1487850443
H   H44       1.0  0.31800  0.83400  0.92200  1.0000 0.1487850443
C   C1        1.0  0.24410  0.24410  0.63410  1.0000 -0.0999152037
C   C2        1.0  0.25590  0.25590  0.13410  1.0000 -0.0999152037
C   C3        1.0  0.74410  0.74410  0.86590  1.0000 -0.0999152037
C   C4        1.0  0.75590  0.75590  0.36590  1.0000 -0.0999152037
C   C5        1.0  0.06740  0.15320  0.72420  1.0000 -0.1140147434
C   C6        1.0  0.43260  0.34680  0.22420  1.0000 -0.1159148785
C   C7        1.0  0.65320  0.56740  0.77580  1.0000 -0.1140147434
C   C8        1.0  0.84680  0.93260  0.27580  1.0000 -0.1140147434
C   C9        1.0  0.93260  0.84680  0.27580  1.0000 -0.1140147434
C   C10       1.0  0.56740  0.65320  0.77580  1.0000 -0.1140147434
C   C11       1.0  0.34680  0.43260  0.22420  1.0000 -0.1140147434
C   C12       1.0  0.15320  0.06740  0.72420  1.0000 -0.1159148785
C   C13       1.0  0.06440  0.06440  0.75240  1.0000 -0.0157456297
C   C14       1.0  0.43560  0.43560  0.25240  1.0000 -0.0157456297
C   C15       1.0  0.56440  0.56440  0.74760  1.0000 -0.0157456297
C   C16       1.0  0.93560  0.93560  0.24760  1.0000 -0.0157456297
C   C17       1.0  0.15760  0.24280  0.66500  1.0000 -0.0308838847
C   C18       1.0  0.34240  0.25720  0.16500  1.0000 -0.0308838847
C   C19       1.0  0.74280  0.65760  0.83500  1.0000 -0.0308838847
C   C20       1.0  0.75720  0.84240  0.33500  1.0000 -0.0308838847
C   C21       1.0  0.84240  0.75720  0.33500  1.0000 -0.0308838847
C   C22       1.0  0.65760  0.74280  0.83500  1.0000 -0.0308838847
C   C23       1.0  0.25720  0.34240  0.16500  1.0000 -0.0308838847
C   C24       1.0  0.24280  0.15760  0.66500  1.0000 -0.0308838847
C   C25       1.0  0.00580  0.45720  0.98860  1.0000 0.1057836701
C   C26       1.0  0.49420  0.04280  0.48860  1.0000 0.1057836701
C   C27       1.0  0.95720  0.50580  0.51140  1.0000 0.1057836701
C   C28       1.0  0.54280  0.99420  0.01140  1.0000 0.1057836701
C   C29       1.0  0.99420  0.54280  0.01140  1.0000 0.1057836701
C   C30       1.0  0.50580  0.95720  0.51140  1.0000 0.1057836701
C   C31       1.0  0.04280  0.49420  0.48860  1.0000 0.1057836701
C   C32       1.0  0.45720  0.00580  0.98860  1.0000 0.1057836701
C   C33       1.0  0.10500  0.47800  0.02280  1.0000 -0.1915591109
C   C34       1.0  0.39500  0.02200  0.52280  1.0000 -0.1915591109
C   C35       1.0  0.97800  0.60500  0.47720  1.0000 -0.1915591109
C   C36       1.0  0.52200  0.89500  0.97720  1.0000 -0.1915591109
C   C37       1.0  0.89500  0.52200  0.97720  1.0000 -0.1915591109
C   C38       1.0  0.60500  0.97800  0.47720  1.0000 -0.1915591109
C   C39       1.0  0.02200  0.39500  0.52280  1.0000 -0.1915591109
C   C40       1.0  0.47800  0.10500  0.02280  1.0000 -0.1915591109
C   C41       1.0  0.10740  0.39040  0.00090  1.0000 0.1241079344
C   C42       1.0  0.39260  0.10960  0.50090  1.0000 0.1241079344
C   C43       1.0  0.89040  0.60740  0.49910  1.0000 0.1241079344
C   C44       1.0  0.60960  0.89260  0.99910  1.0000 0.1241079344
C   C45       1.0  0.89260  0.60960  0.99910  1.0000 0.1241079344
C   C46       1.0  0.60740  0.89040  0.49910  1.0000 0.1241079344
C   C47       1.0  0.10960  0.39260  0.50090  1.0000 0.1241079344
C   C48       1.0  0.39040  0.10740  0.00090  1.0000 0.1241079344
C   C49       1.0  0.92170  0.26230  0.91950  1.0000 0.1487850443
C   C50       1.0  0.57830  0.23770  0.41950  1.0000 0.1487850443
C   C51       1.0  0.76230  0.42170  0.58050  1.0000 0.1487850443
C   C52       1.0  0.73770  0.07830  0.08050  1.0000 0.1487850443
C   C53       1.0  0.07830  0.73770  0.08050  1.0000 0.1487850443
C   C54       1.0  0.42170  0.76230  0.58050  1.0000 0.1487850443
C   C55       1.0  0.23770  0.57830  0.41950  1.0000 0.1487850443
C   C56       1.0  0.26230  0.92170  0.91950  1.0000 0.1487850443
C   C57       1.0  0.91580  0.35140  0.93620  1.0000 -0.1801037352
C   C58       1.0  0.58420  0.14860  0.43620  1.0000 -0.1801037352
C   C59       1.0  0.85140  0.41580  0.56380  1.0000 -0.1801037352
C   C60       1.0  0.64860  0.08420  0.06380  1.0000 -0.1801037352
C   C61       1.0  0.08420  0.64860  0.06380  1.0000 -0.1801037352
C   C62       1.0  0.41580  0.85140  0.56380  1.0000 -0.1801037352
C   C63       1.0  0.14860  0.58420  0.43620  1.0000 -0.1801037352
C   C64       1.0  0.35140  0.91580  0.93620  1.0000 -0.1801037352
N   N1        1.0  0.01830  0.28710  0.95140  1.0000 -0.2156376178
N   N2        1.0  0.48170  0.21290  0.45140  1.0000 -0.2156376178
N   N3        1.0  0.78710  0.51830  0.54860  1.0000 -0.2156376178
N   N4        1.0  0.71290  0.98170  0.04860  1.0000 -0.2145776983
N   N5        1.0  0.98170  0.71290  0.04860  1.0000 -0.2145776983
N   N6        1.0  0.51830  0.78710  0.54860  1.0000 -0.2156376178
N   N7        1.0  0.21290  0.48170  0.45140  1.0000 -0.2156376178
N   N8        1.0  0.28710  0.01830  0.95140  1.0000 -0.2156376178
O   O1        1.0  0.51880  0.51880  0.58290  1.0000 -0.7277356173
O   O2        1.0  0.98120  0.98120  0.08290  1.0000 -0.7277356173
O   O3        1.0  0.01880  0.01880  0.91710  1.0000 -0.7277356173
O   O4        1.0  0.48120  0.48120  0.41710  1.0000 -0.7277356173
O   O5        1.0  0.37210  0.28310  0.52070  1.0000 -0.7620445947
O   O6        1.0  0.12790  0.21690  0.02070  1.0000 -0.7620445947
O   O7        1.0  0.78310  0.87210  0.97930  1.0000 -0.7620445947
O   O8        1.0  0.71690  0.62790  0.47930  1.0000 -0.7620445947
O   O9        1.0  0.62790  0.71690  0.47930  1.0000 -0.7620445947
O   O10       1.0  0.87210  0.78310  0.97930  1.0000 -0.7620445947
O   O11       1.0  0.21690  0.12790  0.02070  1.0000 -0.7620445947
O   O12       1.0  0.28310  0.37210  0.52070  1.0000 -0.7620445947
O   O13       1.0  0.93000  0.09900  0.83910  1.0000 -0.7693499561
O   O14       1.0  0.57000  0.40100  0.33910  1.0000 -0.7693499561
O   O15       1.0  0.59900  0.43000  0.66090  1.0000 -0.7693499561
O   O16       1.0  0.90100  0.07000  0.16090  1.0000 -0.7693499561
O   O17       1.0  0.07000  0.90100  0.16090  1.0000 -0.7693499561
O   O18       1.0  0.43000  0.59900  0.66090  1.0000 -0.7693499561
O   O19       1.0  0.40100  0.57000  0.33910  1.0000 -0.7693499561
O   O20       1.0  0.09900  0.93000  0.83910  1.0000 -0.7693499561
O   O21       1.0  0.79630  0.02310  0.72070  1.0000 -0.6613334502
O   O22       1.0  0.70370  0.47690  0.22070  1.0000 -0.6613334502
O   O23       1.0  0.52310  0.29630  0.77930  1.0000 -0.6613334502
O   O24       1.0  0.97690  0.20370  0.27930  1.0000 -0.6613334502
O   O25       1.0  0.20370  0.97690  0.27930  1.0000 -0.6613334502
O   O26       1.0  0.29630  0.52310  0.77930  1.0000 -0.6613334502
O   O27       1.0  0.47690  0.70370  0.22070  1.0000 -0.6613334502
O   O28       1.0  0.02310  0.79630  0.72070  1.0000 -0.6613334502
O   O29       1.0  0.03060  0.30060  0.74960  1.0000 -0.6613334502
O   O30       1.0  0.46940  0.19940  0.24960  1.0000 -0.6613334502
O   O31       1.0  0.80060  0.53060  0.75040  1.0000 -0.6613334502
O   O32       1.0  0.69940  0.96940  0.25040  1.0000 -0.6613334502
O   O33       1.0  0.96940  0.69940  0.25040  1.0000 -0.6613334502
O   O34       1.0  0.53060  0.80060  0.75040  1.0000 -0.6613334502
O   O35       1.0  0.19940  0.46940  0.24960  1.0000 -0.6613334502
O   O36       1.0  0.30060  0.03060  0.74960  1.0000 -0.6613334502
