# DDEC6 charges by PACMAN v1.1 (https://github.com/mtap-research/PACMAN-charge/)
data_2015[Cu][pcu]3[ASR]3
_chemical_formula_sum              "Cu8 H52 C64 N8 Cl4 O36"
_cell_length_a       8.697
_cell_length_b       25.05
_cell_length_c       12.7308
_cell_angle_alpha    90
_cell_angle_beta     117.506
_cell_angle_gamma    90

_symmetry_space_group_name_H-M    "P 1"
_symmetry_Int_Tables_number       1

loop_
  _symmetry_equiv_pos_as_xyz
  'x, y, z'

loop_
  _atom_site_type_symbol
  _atom_site_label
  _atom_site_symmetry_multiplicity
  _atom_site_fract_x
  _atom_site_fract_y
  _atom_site_fract_z
  _atom_site_occupancy
  _atom_site_charge
Cu  Cu1       1.0  0.98428  0.03319  0.39635  1.0000 0.9302965377
Cu  Cu2       1.0  0.01572  0.53319  0.10365  1.0000 0.9302965377
Cu  Cu3       1.0  0.01572  0.96681  0.60365  1.0000 0.9302965377
Cu  Cu4       1.0  0.98428  0.46681  0.89635  1.0000 0.9302965377
Cu  Cu5       1.0  0.86986  0.08485  0.59479  1.0000 0.9576259379
Cu  Cu6       1.0  0.13014  0.58485  0.90521  1.0000 0.9576259379
Cu  Cu7       1.0  0.13014  0.91515  0.40521  1.0000 0.9576259379
Cu  Cu8       1.0  0.86986  0.41515  0.09479  1.0000 0.9576259379
H   H1        1.0  0.15430  0.05670  0.60880  1.0000 0.383397748
H   H2        1.0  0.84570  0.55670  0.89120  1.0000 0.383397748
H   H3        1.0  0.84570  0.94330  0.39120  1.0000 0.383397748
H   H4        1.0  0.15430  0.44330  0.10880  1.0000 0.383397748
H   H5        1.0  0.22620  0.07560  0.19410  1.0000 0.1391118561
H   H6        1.0  0.77380  0.57560  0.30590  1.0000 0.1391118561
H   H7        1.0  0.77380  0.92440  0.80590  1.0000 0.1391118561
H   H8        1.0  0.22620  0.42440  0.69410  1.0000 0.1391118561
H   H9        1.0  0.07660  0.08070  0.99020  1.0000 0.1496109081
H   H10       1.0  0.92340  0.58070  0.50980  1.0000 0.1496109081
H   H11       1.0  0.92340  0.91930  0.00980  1.0000 0.1496109081
H   H12       1.0  0.07660  0.41930  0.49020  1.0000 0.1496109081
H   H13       1.0  0.33060  0.95060  0.97170  1.0000 0.1496109081
H   H14       1.0  0.66940  0.45060  0.52830  1.0000 0.1496109081
H   H15       1.0  0.66940  0.04940  0.02830  1.0000 0.1496109081
H   H16       1.0  0.33060  0.54940  0.47170  1.0000 0.1496109081
H   H17       1.0  0.47570  0.94830  0.17570  1.0000 0.1391118561
H   H18       1.0  0.52430  0.44830  0.32430  1.0000 0.1391118561
H   H19       1.0  0.52430  0.05170  0.82430  1.0000 0.1391118561
H   H20       1.0  0.47570  0.55170  0.67570  1.0000 0.1391118561
H   H21       1.0  0.37210  0.02210  0.36200  1.0000 0.159603325
H   H22       1.0  0.62790  0.52210  0.13800  1.0000 0.159603325
H   H23       1.0  0.62790  0.97790  0.63800  1.0000 0.159603325
H   H24       1.0  0.37210  0.47790  0.86200  1.0000 0.159603325
H   H25       1.0  0.46160  0.96910  0.35400  1.0000 0.1685855661
H   H26       1.0  0.53840  0.46910  0.14600  1.0000 0.1685855661
H   H27       1.0  0.53840  0.03090  0.64600  1.0000 0.1685855661
H   H28       1.0  0.46160  0.53090  0.85400  1.0000 0.1685855661
H   H29       1.0  0.17760  0.28690  0.93320  1.0000 0.1391118561
H   H30       1.0  0.82240  0.78690  0.56680  1.0000 0.1391118561
H   H31       1.0  0.82240  0.71310  0.06680  1.0000 0.1391118561
H   H32       1.0  0.17760  0.21310  0.43320  1.0000 0.1391118561
H   H33       1.0  0.05210  0.22260  0.78880  1.0000 0.1496109081
H   H34       1.0  0.94790  0.72260  0.71120  1.0000 0.1496109081
H   H35       1.0  0.94790  0.77740  0.21120  1.0000 0.1496109081
H   H36       1.0  0.05210  0.27740  0.28880  1.0000 0.1496109081
H   H37       1.0  0.52310  0.16030  0.88600  1.0000 0.1391118561
H   H38       1.0  0.47690  0.66030  0.61400  1.0000 0.1391118561
H   H39       1.0  0.47690  0.83970  0.11400  1.0000 0.1391118561
H   H40       1.0  0.52310  0.33970  0.38600  1.0000 0.1391118561
H   H41       1.0  0.63960  0.22670  0.02630  1.0000 0.1286705577
H   H42       1.0  0.36040  0.72670  0.47370  1.0000 0.1286705577
H   H43       1.0  0.36040  0.77330  0.97370  1.0000 0.1286705577
H   H44       1.0  0.63960  0.27330  0.52630  1.0000 0.1286705577
H   H45       1.0  0.41060  0.32660  0.08320  1.0000 0.159603325
H   H46       1.0  0.58940  0.82660  0.41680  1.0000 0.159603325
H   H47       1.0  0.58940  0.67340  0.91680  1.0000 0.159603325
H   H48       1.0  0.41060  0.17340  0.58320  1.0000 0.159603325
H   H49       1.0  0.57020  0.28940  0.15610  1.0000 0.1496109081
H   H50       1.0  0.42980  0.78940  0.34390  1.0000 0.1496109081
H   H51       1.0  0.42980  0.71060  0.84390  1.0000 0.1496109081
H   H52       1.0  0.57020  0.21060  0.65610  1.0000 0.1496109081
C   C1        1.0  0.24530  0.05014  0.14820  1.0000 0.0407152088
C   C2        1.0  0.75470  0.55014  0.35180  1.0000 0.0407152088
C   C3        1.0  0.75470  0.94986  0.85180  1.0000 0.0407152088
C   C4        1.0  0.24530  0.44986  0.64820  1.0000 0.0407152088
C   C5        1.0  0.15540  0.05315  0.02640  1.0000 -0.1522251616
C   C6        1.0  0.84460  0.55315  0.47360  1.0000 -0.1522251616
C   C7        1.0  0.84460  0.94685  0.97360  1.0000 -0.1522251616
C   C8        1.0  0.15540  0.44685  0.52640  1.0000 -0.1522251616
C   C9        1.0  0.18310  0.01499  0.95840  1.0000 0.0343534288
C   C10       1.0  0.81690  0.51499  0.54160  1.0000 0.0407152088
C   C11       1.0  0.81690  0.98501  0.04160  1.0000 0.0343534288
C   C12       1.0  0.18310  0.48501  0.45840  1.0000 0.0343534288
C   C13       1.0  0.30630  0.97591  0.01540  1.0000 -0.1564173501
C   C14       1.0  0.69370  0.47591  0.48460  1.0000 -0.1564173501
C   C15       1.0  0.69370  0.02409  0.98460  1.0000 -0.1564173501
C   C16       1.0  0.30630  0.52409  0.51540  1.0000 -0.1564173501
C   C17       1.0  0.39320  0.97468  0.13740  1.0000 0.0523991904
C   C18       1.0  0.60680  0.47468  0.36260  1.0000 0.0523991904
C   C19       1.0  0.60680  0.02532  0.86260  1.0000 0.0523991904
C   C20       1.0  0.39320  0.52532  0.63740  1.0000 0.0523991904
C   C21       1.0  0.44650  0.00653  0.33220  1.0000 -0.2565704609
C   C22       1.0  0.55350  0.50653  0.16780  1.0000 -0.2565704609
C   C23       1.0  0.55350  0.99347  0.66780  1.0000 -0.2565704609
C   C24       1.0  0.44650  0.49347  0.83220  1.0000 -0.2565704609
C   C25       1.0  0.62250  0.03409  0.39100  1.0000 0.6231800739
C   C26       1.0  0.37750  0.53409  0.10900  1.0000 0.6231800739
C   C27       1.0  0.37750  0.96591  0.60900  1.0000 0.6231800739
C   C28       1.0  0.62250  0.46591  0.89100  1.0000 0.6231800739
C   C29       1.0  0.07450  0.01485  0.82390  1.0000 0.5528381367
C   C30       1.0  0.92550  0.51485  0.67610  1.0000 0.5528381367
C   C31       1.0  0.92550  0.98515  0.17610  1.0000 0.5528381367
C   C32       1.0  0.07450  0.48515  0.32390  1.0000 0.5528381367
C   C33       1.0  0.24670  0.26132  0.92250  1.0000 0.0186133136
C   C34       1.0  0.75330  0.76132  0.57750  1.0000 0.0186133136
C   C35       1.0  0.75330  0.73868  0.07750  1.0000 0.0186133136
C   C36       1.0  0.24670  0.23868  0.42250  1.0000 0.0186133136
C   C37       1.0  0.17150  0.22277  0.83670  1.0000 -0.1349126722
C   C38       1.0  0.82850  0.72277  0.66330  1.0000 -0.1354210253
C   C39       1.0  0.82850  0.77723  0.16330  1.0000 -0.1354210253
C   C40       1.0  0.17150  0.27723  0.33670  1.0000 -0.1354210253
C   C41       1.0  0.27380  0.18431  0.82180  1.0000 0.0343534288
C   C42       1.0  0.72620  0.68431  0.67820  1.0000 0.0343534288
C   C43       1.0  0.72620  0.81569  0.17820  1.0000 0.0343534288
C   C44       1.0  0.27380  0.31569  0.32180  1.0000 0.0407152088
C   C45       1.0  0.45160  0.18577  0.89410  1.0000 -0.1564173501
C   C46       1.0  0.54840  0.68577  0.60590  1.0000 -0.1564173501
C   C47       1.0  0.54840  0.81423  0.10590  1.0000 -0.1564173501
C   C48       1.0  0.45160  0.31423  0.39410  1.0000 -0.1564173501
C   C49       1.0  0.52050  0.22544  0.97790  1.0000 0.0186133136
C   C50       1.0  0.47950  0.72544  0.52210  1.0000 0.0186133136
C   C51       1.0  0.47950  0.77456  0.02210  1.0000 0.0186133136
C   C52       1.0  0.52050  0.27456  0.47790  1.0000 0.0186133136
C   C53       1.0  0.50010  0.30504  0.07870  1.0000 -0.2658963229
C   C54       1.0  0.49990  0.80504  0.42130  1.0000 -0.2658963229
C   C55       1.0  0.49990  0.69496  0.92130  1.0000 -0.2658963229
C   C56       1.0  0.50010  0.19496  0.57870  1.0000 -0.2658963229
C   C57       1.0  0.61390  0.34056  0.04510  1.0000 0.5976425831
C   C58       1.0  0.38610  0.84056  0.45490  1.0000 0.5976425831
C   C59       1.0  0.38610  0.65944  0.95490  1.0000 0.5976425831
C   C60       1.0  0.61390  0.15944  0.54510  1.0000 0.5976425831
C   C61       1.0  0.19320  0.14025  0.73000  1.0000 0.5528381367
C   C62       1.0  0.80680  0.64025  0.77000  1.0000 0.5528381367
C   C63       1.0  0.80680  0.85975  0.27000  1.0000 0.5528381367
C   C64       1.0  0.19320  0.35975  0.23000  1.0000 0.5528381367
N   N1        1.0  0.35986  0.01098  0.20106  1.0000 0.1391118561
N   N2        1.0  0.64014  0.51098  0.29894  1.0000 0.1391118561
N   N3        1.0  0.64014  0.98902  0.79894  1.0000 0.1391118561
N   N4        1.0  0.35986  0.48902  0.70106  1.0000 0.1391118561
N   N5        1.0  0.41900  0.26219  0.99070  1.0000 0.1286705577
N   N6        1.0  0.58100  0.76219  0.50930  1.0000 0.1286705577
N   N7        1.0  0.58100  0.73781  0.00930  1.0000 0.1286705577
N   N8        1.0  0.41900  0.23781  0.49070  1.0000 0.1286705577
Cl  Cl1       1.0  0.15475  0.10140  0.39586  1.0000 -0.5626240398
Cl  Cl2       1.0  0.84525  0.60140  0.10414  1.0000 -0.5626240398
Cl  Cl3       1.0  0.84525  0.89860  0.60414  1.0000 -0.5626240398
Cl  Cl4       1.0  0.15475  0.39860  0.89586  1.0000 -0.5626240398
O   O1        1.0  0.68893  0.05262  0.33223  1.0000 -0.5366356428
O   O2        1.0  0.31107  0.55262  0.16777  1.0000 -0.5310721334
O   O3        1.0  0.31107  0.94738  0.66777  1.0000 -0.5366356428
O   O4        1.0  0.68893  0.44738  0.83223  1.0000 -0.5366356428
O   O5        1.0  0.68782  0.03370  0.50302  1.0000 -0.5626240398
O   O6        1.0  0.31218  0.53370  0.99698  1.0000 -0.5626240398
O   O7        1.0  0.31218  0.96630  0.49698  1.0000 -0.5626240398
O   O8        1.0  0.68782  0.46630  0.00302  1.0000 -0.5626240398
O   O9        1.0  0.11319  0.97848  0.77249  1.0000 -0.516171741
O   O10       1.0  0.88681  0.47848  0.72751  1.0000 -0.516171741
O   O11       1.0  0.88681  0.02152  0.22751  1.0000 -0.516171741
O   O12       1.0  0.11319  0.52152  0.27249  1.0000 -0.516171741
O   O13       1.0  0.95947  0.04856  0.77867  1.0000 -0.5481587823
O   O14       1.0  0.04053  0.54856  0.72133  1.0000 -0.5481587823
O   O15       1.0  0.04053  0.95144  0.22133  1.0000 -0.5481587823
O   O16       1.0  0.95947  0.45144  0.27867  1.0000 -0.5481587823
O   O17       1.0  0.70026  0.37437  0.12476  1.0000 -0.5366356428
O   O18       1.0  0.29974  0.87437  0.37524  1.0000 -0.5366356428
O   O19       1.0  0.29974  0.62563  0.87524  1.0000 -0.5366356428
O   O20       1.0  0.70026  0.12563  0.62476  1.0000 -0.5366356428
O   O21       1.0  0.61730  0.33427  0.95090  1.0000 -0.5366356428
O   O22       1.0  0.38270  0.83427  0.54910  1.0000 -0.5366356428
O   O23       1.0  0.38270  0.66573  0.04910  1.0000 -0.5366356428
O   O24       1.0  0.61730  0.16573  0.45090  1.0000 -0.5366356428
O   O25       1.0  0.03040  0.14424  0.66800  1.0000 -0.5366356428
O   O26       1.0  0.96960  0.64424  0.83200  1.0000 -0.5366356428
O   O27       1.0  0.96960  0.85576  0.33200  1.0000 -0.5366356428
O   O28       1.0  0.03040  0.35576  0.16800  1.0000 -0.5366356428
O   O29       1.0  0.28870  0.10552  0.72370  1.0000 -0.5310721334
O   O30       1.0  0.71130  0.60552  0.77630  1.0000 -0.5310721334
O   O31       1.0  0.71130  0.89448  0.27630  1.0000 -0.5310721334
O   O32       1.0  0.28870  0.39448  0.22370  1.0000 -0.5310721334
O   O33       1.0  0.03598  0.04340  0.56178  1.0000 -0.8505611594
O   O34       1.0  0.96402  0.54340  0.93822  1.0000 -0.8505611594
O   O35       1.0  0.96402  0.95660  0.43822  1.0000 -0.8505611594
O   O36       1.0  0.03598  0.45660  0.06178  1.0000 -0.8505611594
