# DDEC6 charges by PACMAN v1.1 (https://github.com/mtap-research/PACMAN-charge/)
data_2015[Cu][rob]3[ASR]1
_chemical_formula_sum              "Cu4 H44 C44 N4 O16"
_cell_length_a       13.8125
_cell_length_b       13.8125
_cell_length_c       8.5771
_cell_angle_alpha    89.9298
_cell_angle_beta     90.0702
_cell_angle_gamma    122.685

_symmetry_space_group_name_H-M    "P 1"
_symmetry_Int_Tables_number       1

loop_
  _symmetry_equiv_pos_as_xyz
  'x, y, z'

loop_
  _atom_site_type_symbol
  _atom_site_label
  _atom_site_symmetry_multiplicity
  _atom_site_fract_x
  _atom_site_fract_y
  _atom_site_fract_z
  _atom_site_occupancy
  _atom_site_charge
Cu  Cu1       1.0  0.00148  0.41058  0.44992  1.0000 0.7478466047
Cu  Cu2       1.0  0.41058  0.00148  0.05008  1.0000 0.7478466047
Cu  Cu3       1.0  0.99852  0.58942  0.55008  1.0000 0.7478466047
Cu  Cu4       1.0  0.58942  0.99852  0.94992  1.0000 0.7478466047
H   H1        1.0  0.84360  0.57060  0.09210  1.0000 0.1274951722
H   H2        1.0  0.57060  0.84360  0.40790  1.0000 0.1274951722
H   H3        1.0  0.15640  0.42940  0.90790  1.0000 0.1274951722
H   H4        1.0  0.42940  0.15640  0.59210  1.0000 0.1274951722
H   H5        1.0  0.95030  0.57910  0.00500  1.0000 0.1397282444
H   H6        1.0  0.57910  0.95030  0.49500  1.0000 0.1397282444
H   H7        1.0  0.04970  0.42090  0.99500  1.0000 0.1397282444
H   H8        1.0  0.42090  0.04970  0.50500  1.0000 0.1397282444
H   H9        1.0  0.65940  0.37000  0.13280  1.0000 0.1274951722
H   H10       1.0  0.37000  0.65940  0.36720  1.0000 0.1274951722
H   H11       1.0  0.34060  0.63000  0.86720  1.0000 0.1274951722
H   H12       1.0  0.63000  0.34060  0.63280  1.0000 0.1274951722
H   H13       1.0  0.73820  0.33720  0.22510  1.0000 0.1397282444
H   H14       1.0  0.33720  0.73820  0.27490  1.0000 0.1397282444
H   H15       1.0  0.26180  0.66280  0.77490  1.0000 0.1397282444
H   H16       1.0  0.66280  0.26180  0.72510  1.0000 0.1397282444
H   H17       1.0  0.14500  0.21400  0.10170  1.0000 0.1274951722
H   H18       1.0  0.21400  0.14500  0.39830  1.0000 0.1274951722
H   H19       1.0  0.85500  0.78600  0.89830  1.0000 0.1274951722
H   H20       1.0  0.78600  0.85500  0.60170  1.0000 0.1274951722
H   H21       1.0  0.82260  0.16160  0.34860  1.0000 0.1125296292
H   H22       1.0  0.16160  0.82260  0.15140  1.0000 0.1125296292
H   H23       1.0  0.17740  0.83840  0.65140  1.0000 0.1125296292
H   H24       1.0  0.83840  0.17740  0.84860  1.0000 0.1125296292
H   H25       1.0  0.85020  0.37560  0.99180  1.0000 0.0996423227
H   H26       1.0  0.37560  0.85020  0.50820  1.0000 0.0996423227
H   H27       1.0  0.14980  0.62440  0.00820  1.0000 0.0996423227
H   H28       1.0  0.62440  0.14980  0.49180  1.0000 0.0996423227
H   H29       1.0  0.77530  0.41830  0.91010  1.0000 0.0929667962
H   H30       1.0  0.41830  0.77530  0.58990  1.0000 0.0929667962
H   H31       1.0  0.22470  0.58170  0.08990  1.0000 0.0929667962
H   H32       1.0  0.58170  0.22470  0.41010  1.0000 0.0929667962
H   H33       1.0  0.15490  0.35210  0.26510  1.0000 0.1125296292
H   H34       1.0  0.35210  0.15490  0.23490  1.0000 0.1125296292
H   H35       1.0  0.84510  0.64790  0.73490  1.0000 0.1125296292
H   H36       1.0  0.64790  0.84510  0.76510  1.0000 0.1125296292
H   H37       1.0  0.88170  0.93910  0.01450  1.0000 0.1157971335
H   H38       1.0  0.93910  0.88170  0.48550  1.0000 0.1157971335
H   H39       1.0  0.11830  0.06090  0.98550  1.0000 0.1157971335
H   H40       1.0  0.06090  0.11830  0.51450  1.0000 0.1157971335
H   H41       1.0  0.80230  0.01730  0.18790  1.0000 0.1397282444
H   H42       1.0  0.01730  0.80230  0.31210  1.0000 0.1397282444
H   H43       1.0  0.19770  0.98270  0.81210  1.0000 0.1397282444
H   H44       1.0  0.98270  0.19770  0.68790  1.0000 0.1397282444
C   C1        1.0  0.88666  0.53262  0.07920  1.0000 -0.3281928512
C   C2        1.0  0.53262  0.88666  0.42080  1.0000 -0.3281928512
C   C3        1.0  0.11334  0.46738  0.92080  1.0000 -0.3281928512
C   C4        1.0  0.46738  0.11334  0.57920  1.0000 -0.3281928512
C   C5        1.0  0.70633  0.33591  0.12120  1.0000 -0.3246940958
C   C6        1.0  0.33591  0.70633  0.37880  1.0000 -0.3246940958
C   C7        1.0  0.29367  0.66409  0.87880  1.0000 -0.3246940958
C   C8        1.0  0.66409  0.29367  0.62120  1.0000 -0.3246940958
C   C9        1.0  0.93665  0.52953  0.23550  1.0000 0.6238842321
C   C10       1.0  0.52953  0.93665  0.26450  1.0000 0.6238842321
C   C11       1.0  0.06335  0.47047  0.76450  1.0000 0.6238842321
C   C12       1.0  0.47047  0.06335  0.73550  1.0000 0.6238842321
C   C13       1.0  0.07761  0.20035  0.15240  1.0000 -0.208893987
C   C14       1.0  0.20035  0.07761  0.34760  1.0000 -0.208893987
C   C15       1.0  0.92239  0.79965  0.84760  1.0000 -0.208893987
C   C16       1.0  0.79965  0.92239  0.65240  1.0000 -0.208893987
C   C17       1.0  0.62792  0.21168  0.07100  1.0000 0.6238842321
C   C18       1.0  0.21168  0.62792  0.42900  1.0000 0.6238842321
C   C19       1.0  0.37208  0.78832  0.92900  1.0000 0.6238842321
C   C20       1.0  0.78832  0.37208  0.57100  1.0000 0.6238842321
C   C21       1.0  0.88892  0.17154  0.29910  1.0000 0.0996423227
C   C22       1.0  0.17154  0.88892  0.20090  1.0000 0.0996423227
C   C23       1.0  0.11108  0.82846  0.70090  1.0000 0.0996423227
C   C24       1.0  0.82846  0.11108  0.79910  1.0000 0.0996423227
C   C25       1.0  0.80610  0.41190  0.01120  1.0000 -0.0970044552
C   C26       1.0  0.41190  0.80610  0.48880  1.0000 -0.0970044552
C   C27       1.0  0.19390  0.58810  0.98880  1.0000 -0.0970044552
C   C28       1.0  0.58810  0.19390  0.51120  1.0000 -0.0970044552
C   C29       1.0  0.08260  0.28240  0.25020  1.0000 0.0802143676
C   C30       1.0  0.28240  0.08260  0.24980  1.0000 0.0802143676
C   C31       1.0  0.91740  0.71760  0.74980  1.0000 0.0802143676
C   C32       1.0  0.71760  0.91740  0.75020  1.0000 0.0802143676
C   C33       1.0  0.97160  0.09660  0.12890  1.0000 0.1526932878
C   C34       1.0  0.09660  0.97160  0.37110  1.0000 0.1526932878
C   C35       1.0  0.02840  0.90340  0.87110  1.0000 0.1526932878
C   C36       1.0  0.90340  0.02840  0.62890  1.0000 0.1526932878
C   C37       1.0  0.95794  0.00238  0.03230  1.0000 -0.1446149635
C   C38       1.0  0.00238  0.95794  0.46770  1.0000 -0.1446149635
C   C39       1.0  0.04206  0.99762  0.96770  1.0000 -0.1446149635
C   C40       1.0  0.99762  0.04206  0.53230  1.0000 -0.1446149635
C   C41       1.0  0.87624  0.08486  0.20310  1.0000 -0.1956015217
C   C42       1.0  0.08486  0.87624  0.29690  1.0000 -0.1956015217
C   C43       1.0  0.12376  0.91514  0.79690  1.0000 -0.1956015217
C   C44       1.0  0.91514  0.12376  0.70310  1.0000 -0.1956015217
N   N1        1.0  0.99095  0.26887  0.32494  1.0000 -0.2458901989
N   N2        1.0  0.26887  0.99095  0.17506  1.0000 -0.2458901989
N   N3        1.0  0.00905  0.73113  0.67506  1.0000 -0.2458901989
N   N4        1.0  0.73113  0.00905  0.82494  1.0000 -0.2458901989
O   O1        1.0  0.96070  0.45452  0.25285  1.0000 -0.523112117
O   O2        1.0  0.45452  0.96070  0.24715  1.0000 -0.523112117
O   O3        1.0  0.03930  0.54548  0.74715  1.0000 -0.523112117
O   O4        1.0  0.54548  0.03930  0.75285  1.0000 -0.523112117
O   O5        1.0  0.52217  0.16565  0.09440  1.0000 -0.5288585709
O   O6        1.0  0.16565  0.52217  0.40560  1.0000 -0.5288585709
O   O7        1.0  0.47783  0.83435  0.90560  1.0000 -0.5288585709
O   O8        1.0  0.83435  0.47783  0.59440  1.0000 -0.5288585709
O   O9        1.0  0.67404  0.16218  0.01334  1.0000 -0.5288585709
O   O10       1.0  0.16218  0.67404  0.48666  1.0000 -0.5288585709
O   O11       1.0  0.32596  0.83782  0.98666  1.0000 -0.5288585709
O   O12       1.0  0.83782  0.32596  0.51334  1.0000 -0.5288585709
O   O13       1.0  0.95021  0.60149  0.33773  1.0000 -0.5375794756
O   O14       1.0  0.60149  0.95021  0.16227  1.0000 -0.5375794756
O   O15       1.0  0.04979  0.39851  0.66227  1.0000 -0.5375794756
O   O16       1.0  0.39851  0.04979  0.83773  1.0000 -0.5375794756
