# DDEC6 charges by PACMAN v1.1 (https://github.com/mtap-research/PACMAN-charge/)
data_2015[CoV][nan]3[ASR]1
_chemical_formula_sum              "V12 Co8 H24 C40 N16 O46"
_cell_length_a       13.9703
_cell_length_b       13.9703
_cell_length_c       13.9703
_cell_angle_alpha    101.474
_cell_angle_beta     101.474
_cell_angle_gamma    127.025

_symmetry_space_group_name_H-M    "P 1"
_symmetry_Int_Tables_number       1

loop_
  _symmetry_equiv_pos_as_xyz
  'x, y, z'

loop_
  _atom_site_type_symbol
  _atom_site_label
  _atom_site_symmetry_multiplicity
  _atom_site_fract_x
  _atom_site_fract_y
  _atom_site_fract_z
  _atom_site_occupancy
  _atom_site_charge
V   V1        1.0  0.24993  0.45814  0.49769  1.0000 1.9511963787
V   V2        1.0  0.96045  0.75224  0.50231  1.0000 1.9511963787
V   V3        1.0  0.75224  0.24993  0.79179  1.0000 1.9511963787
V   V4        1.0  0.45814  0.96045  0.20821  1.0000 1.9511963787
V   V5        1.0  0.17705  0.67819  0.20348  1.0000 1.9511963787
V   V6        1.0  0.47471  0.97357  0.79652  1.0000 1.9511963787
V   V7        1.0  0.97357  0.17705  0.49886  1.0000 1.9511963787
V   V8        1.0  0.67819  0.47471  0.50114  1.0000 1.9511963787
V   V9        1.0  0.24496  0.67871  0.62355  1.0000 1.7887037061
V   V10       1.0  0.05516  0.62141  0.37645  1.0000 1.7848343315
V   V11       1.0  0.62141  0.24496  0.56625  1.0000 1.7887037061
V   V12       1.0  0.67871  0.05516  0.43375  1.0000 1.7887037061
Co  Co1       1.0  0.20842  0.44112  0.22982  1.0000 1.0036548736
Co  Co2       1.0  0.21130  0.97860  0.77018  1.0000 1.0036548736
Co  Co3       1.0  0.97860  0.20842  0.76730  1.0000 1.0036548736
Co  Co4       1.0  0.44112  0.21130  0.23270  1.0000 1.0036548736
Co  Co5       1.0  0.54091  0.87351  0.00124  1.0000 0.9889137062
Co  Co6       1.0  0.87227  0.53967  0.99876  1.0000 0.9889137062
Co  Co7       1.0  0.53967  0.54091  0.66740  1.0000 0.9889137062
Co  Co8       1.0  0.87351  0.87227  0.33260  1.0000 0.9889137062
H   H1        1.0  0.96580  0.28930  0.30670  1.0000 0.1275698754
H   H2        1.0  0.98260  0.65910  0.69330  1.0000 0.1275698754
H   H3        1.0  0.65910  0.96580  0.67650  1.0000 0.1275698754
H   H4        1.0  0.28930  0.98260  0.32350  1.0000 0.1275698754
H   H5        1.0  0.73420  0.08860  0.21560  1.0000 0.1086884538
H   H6        1.0  0.87300  0.51860  0.78440  1.0000 0.1086884538
H   H7        1.0  0.51860  0.73420  0.64560  1.0000 0.1086884538
H   H8        1.0  0.08860  0.87300  0.35440  1.0000 0.1086884538
H   H9        1.0  0.75770  0.04460  0.93490  1.0000 0.1086884538
H   H10       1.0  0.10970  0.82280  0.06510  1.0000 0.1086884538
H   H11       1.0  0.82280  0.75770  0.71310  1.0000 0.1086884538
H   H12       1.0  0.04460  0.10970  0.28690  1.0000 0.1086884538
H   H13       1.0  0.71030  0.69800  0.44310  1.0000 0.078273933
H   H14       1.0  0.25490  0.26720  0.55690  1.0000 0.078273933
H   H15       1.0  0.26720  0.71030  0.01230  1.0000 0.078273933
H   H16       1.0  0.69800  0.25490  0.98770  1.0000 0.078273933
H   H17       1.0  0.46910  0.55270  0.40020  1.0000 0.1275698754
H   H18       1.0  0.15250  0.06890  0.59980  1.0000 0.1275698754
H   H19       1.0  0.06890  0.46910  0.91640  1.0000 0.1275698754
H   H20       1.0  0.55270  0.15250  0.08360  1.0000 0.1275698754
H   H21       1.0  0.41850  0.64450  0.16520  1.0000 0.135158843
H   H22       1.0  0.47930  0.25330  0.83480  1.0000 0.135158843
H   H23       1.0  0.25330  0.41850  0.77400  1.0000 0.135158843
H   H24       1.0  0.64450  0.47930  0.22600  1.0000 0.135158843
C   C1        1.0  0.92660  0.24150  0.23230  1.0000 0.047755801
C   C2        1.0  0.00920  0.69430  0.76770  1.0000 0.047755801
C   C3        1.0  0.69430  0.92660  0.68510  1.0000 0.047755801
C   C4        1.0  0.24150  0.00920  0.31490  1.0000 0.047755801
C   C5        1.0  0.79660  0.12640  0.18300  1.0000 0.047755801
C   C6        1.0  0.94340  0.61360  0.81700  1.0000 0.047755801
C   C7        1.0  0.61360  0.79660  0.67020  1.0000 0.047755801
C   C8        1.0  0.12640  0.94340  0.32980  1.0000 0.047755801
C   C9        1.0  0.81060  0.10410  0.02010  1.0000 0.0448888565
C   C10       1.0  0.08400  0.79050  0.97990  1.0000 0.0448888565
C   C11       1.0  0.79050  0.81060  0.70650  1.0000 0.0448888565
C   C12       1.0  0.10410  0.08400  0.29350  1.0000 0.0448888565
C   C13       1.0  0.94090  0.21810  0.07020  1.0000 0.047755801
C   C14       1.0  0.14790  0.87070  0.92980  1.0000 0.047755801
C   C15       1.0  0.87070  0.94090  0.72280  1.0000 0.047755801
C   C16       1.0  0.21810  0.14790  0.27720  1.0000 0.047755801
C   C17       1.0  0.02690  0.27020  0.00970  1.0000 0.557070023
C   C18       1.0  0.26050  0.01720  0.99030  1.0000 0.557070023
C   C19       1.0  0.01720  0.02690  0.75670  1.0000 0.557070023
C   C20       1.0  0.27020  0.26050  0.24330  1.0000 0.557070023
C   C21       1.0  0.63390  0.68920  0.38710  1.0000 0.078273933
C   C22       1.0  0.30210  0.24680  0.61290  1.0000 0.078273933
C   C23       1.0  0.24680  0.63390  0.94470  1.0000 0.078273933
C   C24       1.0  0.68920  0.30210  0.05530  1.0000 0.078273933
C   C25       1.0  0.49950  0.60010  0.36100  1.0000 0.0315407138
C   C26       1.0  0.23910  0.13850  0.63900  1.0000 0.0315407138
C   C27       1.0  0.13850  0.49950  0.89940  1.0000 0.0315407138
C   C28       1.0  0.60010  0.23910  0.10060  1.0000 0.0315407138
C   C29       1.0  0.46490  0.65120  0.21950  1.0000 0.0561274929
C   C30       1.0  0.43170  0.24540  0.78050  1.0000 0.0561274929
C   C31       1.0  0.24540  0.46490  0.81370  1.0000 0.0561274929
C   C32       1.0  0.65120  0.43170  0.18630  1.0000 0.0561274929
C   C33       1.0  0.59720  0.73830  0.24530  1.0000 0.047755801
C   C34       1.0  0.49300  0.35190  0.75470  1.0000 0.047755801
C   C35       1.0  0.35190  0.59720  0.85890  1.0000 0.047755801
C   C36       1.0  0.73830  0.49300  0.14110  1.0000 0.047755801
C   C37       1.0  0.65820  0.82040  0.18240  1.0000 0.557070023
C   C38       1.0  0.63800  0.47580  0.81760  1.0000 0.557070023
C   C39       1.0  0.47580  0.65820  0.83780  1.0000 0.557070023
C   C40       1.0  0.82040  0.63800  0.16220  1.0000 0.557070023
N   N1        1.0  0.00070  0.28880  0.17770  1.0000 -0.2334560615
N   N2        1.0  0.11110  0.82300  0.82230  1.0000 -0.2334560615
N   N3        1.0  0.82300  0.00070  0.71190  1.0000 -0.2334560615
N   N4        1.0  0.28880  0.11110  0.28810  1.0000 -0.2334560615
N   N5        1.0  0.73730  0.05630  0.07640  1.0000 -0.2174273332
N   N6        1.0  0.97990  0.66090  0.92360  1.0000 -0.2174273332
N   N7        1.0  0.66090  0.73730  0.68100  1.0000 -0.2174273332
N   N8        1.0  0.05630  0.97990  0.31900  1.0000 -0.2174273332
N   N9        1.0  0.68230  0.75720  0.32910  1.0000 -0.237089639
N   N10       1.0  0.42810  0.35320  0.67090  1.0000 -0.237089639
N   N11       1.0  0.35320  0.68230  0.92510  1.0000 -0.237089639
N   N12       1.0  0.75720  0.42810  0.07490  1.0000 -0.237089639
N   N13       1.0  0.41380  0.58010  0.27550  1.0000 -0.19039935
N   N14       1.0  0.30460  0.13830  0.72450  1.0000 -0.19039935
N   N15       1.0  0.13830  0.41380  0.83370  1.0000 -0.19039935
N   N16       1.0  0.58010  0.30460  0.16630  1.0000 -0.19039935
O   O1        1.0  0.14770  0.36580  0.06370  1.0000 -0.5366308627
O   O2        1.0  0.30210  0.08400  0.93630  1.0000 -0.5366308627
O   O3        1.0  0.08400  0.14770  0.78190  1.0000 -0.5366308627
O   O4        1.0  0.36580  0.30210  0.21810  1.0000 -0.5366308627
O   O5        1.0  0.96600  0.21070  0.91050  1.0000 -0.5652887163
O   O6        1.0  0.30020  0.05550  0.08950  1.0000 -0.5652887163
O   O7        1.0  0.05550  0.96600  0.75530  1.0000 -0.5652887163
O   O8        1.0  0.21070  0.30020  0.24470  1.0000 -0.564586514
O   O9        1.0  0.77880  0.89050  0.21030  1.0000 -0.5335380373
O   O10       1.0  0.68020  0.56850  0.78970  1.0000 -0.5335380373
O   O11       1.0  0.56850  0.77880  0.88830  1.0000 -0.5335380373
O   O12       1.0  0.89050  0.68020  0.11170  1.0000 -0.5335380373
O   O13       1.0  0.57860  0.80860  0.11000  1.0000 -0.5519568262
O   O14       1.0  0.69860  0.46860  0.89000  1.0000 -0.5519568262
O   O15       1.0  0.46860  0.57860  0.77000  1.0000 -0.5519568262
O   O16       1.0  0.80860  0.69860  0.23000  1.0000 -0.5519568262
O   O17       1.0  0.23190  0.48920  0.39090  1.0000 -0.8770509002
O   O18       1.0  0.09830  0.84100  0.60910  1.0000 -0.8770509002
O   O19       1.0  0.84100  0.23190  0.74270  1.0000 -0.8770509002
O   O20       1.0  0.48920  0.09830  0.25730  1.0000 -0.8770509002
O   O21       1.0  0.48120  0.94520  0.09760  1.0000 -0.8302122888
O   O22       1.0  0.84760  0.38360  0.90240  1.0000 -0.8302122888
O   O23       1.0  0.38360  0.48120  0.53600  1.0000 -0.8302122888
O   O24       1.0  0.94520  0.84760  0.46400  1.0000 -0.8302122888
O   O25       1.0  0.26720  0.56720  0.60740  1.0000 -0.9776005087
O   O26       1.0  0.95980  0.65980  0.39260  1.0000 -0.9776005087
O   O27       1.0  0.65980  0.26720  0.70000  1.0000 -0.9776005087
O   O28       1.0  0.56720  0.95980  0.30000  1.0000 -0.9776005087
O   O29       1.0  0.10940  0.29590  0.47330  1.0000 -1.0014587132
O   O30       1.0  0.82260  0.63610  0.52670  1.0000 -1.0014587132
O   O31       1.0  0.63610  0.10940  0.81350  1.0000 -1.0014587132
O   O32       1.0  0.29590  0.82260  0.18650  1.0000 -1.0014587132
O   O33       1.0  0.49050  0.93600  0.89790  1.0000 -0.8302122888
O   O34       1.0  0.03810  0.59260  0.10210  1.0000 -0.8302122888
O   O35       1.0  0.59260  0.49050  0.55450  1.0000 -0.8302122888
O   O36       1.0  0.93600  0.03810  0.44550  1.0000 -0.8302122888
O   O37       1.0  0.21440  0.58820  0.21280  1.0000 -0.8488532541
O   O38       1.0  0.37540  0.00160  0.78720  1.0000 -0.8488532541
O   O39       1.0  0.00160  0.21440  0.62620  1.0000 -0.8488532541
O   O40       1.0  0.58820  0.37540  0.37380  1.0000 -0.8488532541
O   O41       1.0  0.16100  0.72680  0.32600  1.0000 -0.9740630327
O   O42       1.0  0.40080  0.83500  0.67400  1.0000 -0.9740630327
O   O43       1.0  0.83500  0.16100  0.43420  1.0000 -0.9740630327
O   O44       1.0  0.72680  0.40080  0.56580  1.0000 -0.9740630327
O   O45       1.0  0.13830  0.63830  0.50000  1.0000 -0.9591582356
O   O46       1.0  0.63830  0.13830  0.50000  1.0000 -0.9591582356
