# DDEC6 charges by PACMAN v1.1 (https://github.com/mtap-research/PACMAN-charge/)
data_2015[Zn][ths]3[ASR]2
_chemical_formula_sum              "Zn12 H96 C144 I24 N48"
_cell_length_a       18.6017
_cell_length_b       18.6017
_cell_length_c       34.931
_cell_angle_alpha    75.0735
_cell_angle_beta     104.926
_cell_angle_gamma    134.483

_symmetry_space_group_name_H-M    "P 1"
_symmetry_Int_Tables_number       1

loop_
  _symmetry_equiv_pos_as_xyz
  'x, y, z'

loop_
  _atom_site_type_symbol
  _atom_site_label
  _atom_site_symmetry_multiplicity
  _atom_site_fract_x
  _atom_site_fract_y
  _atom_site_fract_z
  _atom_site_occupancy
  _atom_site_charge
Zn  Zn1       1.0  0.52486  0.24280  0.57496  1.0000 0.4588899895
Zn  Zn2       1.0  0.75720  0.47514  0.07496  1.0000 0.4588899895
Zn  Zn3       1.0  0.31902  0.99538  0.76128  1.0000 0.4396123066
Zn  Zn4       1.0  0.00462  0.68098  0.26128  1.0000 0.4396123066
Zn  Zn5       1.0  0.79746  0.02852  0.93744  1.0000 0.4656061754
Zn  Zn6       1.0  0.97148  0.20254  0.43744  1.0000 0.4656061754
Zn  Zn7       1.0  0.24280  0.52486  0.92504  1.0000 0.4588899895
Zn  Zn8       1.0  0.47514  0.75720  0.42504  1.0000 0.4588899895
Zn  Zn9       1.0  0.99538  0.31902  0.73872  1.0000 0.4396123066
Zn  Zn10      1.0  0.68098  0.00462  0.23872  1.0000 0.4396123066
Zn  Zn11      1.0  0.02852  0.79746  0.56256  1.0000 0.4656061754
Zn  Zn12      1.0  0.20254  0.97148  0.06256  1.0000 0.4588899895
H   H1        1.0  0.50930  0.16350  0.66260  1.0000 0.1097350307
H   H2        1.0  0.83650  0.49070  0.16260  1.0000 0.1097350307
H   H3        1.0  0.60890  0.21170  0.72310  1.0000 0.131715155
H   H4        1.0  0.78830  0.39110  0.22310  1.0000 0.131715155
H   H5        1.0  0.82230  0.49230  0.66810  1.0000 0.131715155
H   H6        1.0  0.50770  0.17770  0.16810  1.0000 0.131715155
H   H7        1.0  0.72060  0.43520  0.60900  1.0000 0.1034414393
H   H8        1.0  0.56480  0.27940  0.10900  1.0000 0.1034414393
H   H9        1.0  0.24320  0.80540  0.81980  1.0000 0.1097350307
H   H10       1.0  0.19460  0.75680  0.31980  1.0000 0.1097350307
H   H11       1.0  0.10510  0.63350  0.82680  1.0000 0.1373890275
H   H12       1.0  0.36650  0.89490  0.32680  1.0000 0.1373890275
H   H13       1.0  0.97400  0.67020  0.72080  1.0000 0.1373890275
H   H14       1.0  0.32980  0.02600  0.22080  1.0000 0.1373890275
H   H15       1.0  0.11420  0.84340  0.71760  1.0000 0.1034414393
H   H16       1.0  0.15660  0.88580  0.21760  1.0000 0.1034414393
H   H17       1.0  0.94720  0.25800  0.91800  1.0000 0.1097350307
H   H18       1.0  0.74200  0.05280  0.41800  1.0000 0.1097350307
H   H19       1.0  0.97010  0.38110  0.86940  1.0000 0.131715155
H   H20       1.0  0.61890  0.02990  0.36940  1.0000 0.131715155
H   H21       1.0  0.70670  0.15930  0.80830  1.0000 0.1229256019
H   H22       1.0  0.84070  0.29330  0.30830  1.0000 0.1229256019
H   H23       1.0  0.68850  0.04150  0.86030  1.0000 0.1034414393
H   H24       1.0  0.95850  0.31150  0.36030  1.0000 0.1034414393
H   H25       1.0  0.15810  0.94510  0.79890  1.0000 0.1034414393
H   H26       1.0  0.05490  0.84190  0.29890  1.0000 0.1034414393
H   H27       1.0  0.14110  0.98770  0.85090  1.0000 0.1373890275
H   H28       1.0  0.01230  0.85890  0.35090  1.0000 0.1373890275
H   H29       1.0  0.44760  0.20800  0.86820  1.0000 0.1373890275
H   H30       1.0  0.79200  0.55240  0.36820  1.0000 0.1373890275
H   H31       1.0  0.45440  0.15900  0.81550  1.0000 0.1097350307
H   H32       1.0  0.84100  0.54560  0.31550  1.0000 0.1097350307
H   H33       1.0  0.99090  0.10330  0.99270  1.0000 0.1034414393
H   H34       1.0  0.89670  0.00910  0.49270  1.0000 0.1097350307
H   H35       1.0  0.13970  0.14210  0.99150  1.0000 0.1373890275
H   H36       1.0  0.85790  0.86030  0.49150  1.0000 0.1373890275
H   H37       1.0  0.03940  0.06620  0.87850  1.0000 0.1373890275
H   H38       1.0  0.93380  0.96060  0.37850  1.0000 0.1373890275
H   H39       1.0  0.89550  0.03010  0.88350  1.0000 0.1097350307
H   H40       1.0  0.96990  0.10450  0.38350  1.0000 0.1097350307
H   H41       1.0  0.56930  0.43710  0.04440  1.0000 0.1097350307
H   H42       1.0  0.56290  0.43070  0.54440  1.0000 0.1034414393
H   H43       1.0  0.41670  0.33333  0.00360  1.0000 0.1373890275
H   H44       1.0  0.66667  0.58330  0.50360  1.0000 0.1373890275
H   H45       1.0  0.51880  0.22140  0.97490  1.0000 0.131715155
H   H46       1.0  0.77860  0.48120  0.47490  1.0000 0.1373890275
H   H47       1.0  0.66330  0.32030  0.01990  1.0000 0.1034414393
H   H48       1.0  0.67970  0.33670  0.51990  1.0000 0.1034414393
H   H49       1.0  0.16350  0.50930  0.83740  1.0000 0.1097350307
H   H50       1.0  0.49070  0.83650  0.33740  1.0000 0.1097350307
H   H51       1.0  0.21170  0.60890  0.77690  1.0000 0.131715155
H   H52       1.0  0.39110  0.78830  0.27690  1.0000 0.131715155
H   H53       1.0  0.49230  0.82230  0.83190  1.0000 0.131715155
H   H54       1.0  0.17770  0.50770  0.33190  1.0000 0.131715155
H   H55       1.0  0.43520  0.72060  0.89100  1.0000 0.1034414393
H   H56       1.0  0.27940  0.56480  0.39100  1.0000 0.1034414393
H   H57       1.0  0.80540  0.24320  0.68020  1.0000 0.1097350307
H   H58       1.0  0.75680  0.19460  0.18020  1.0000 0.1097350307
H   H59       1.0  0.63350  0.10510  0.67320  1.0000 0.1373890275
H   H60       1.0  0.89490  0.36650  0.17320  1.0000 0.1373890275
H   H61       1.0  0.67020  0.97400  0.77920  1.0000 0.1373890275
H   H62       1.0  0.02600  0.32980  0.27920  1.0000 0.1373890275
H   H63       1.0  0.84340  0.11420  0.78240  1.0000 0.1034414393
H   H64       1.0  0.88580  0.15660  0.28240  1.0000 0.1034414393
H   H65       1.0  0.25800  0.94720  0.58200  1.0000 0.1097350307
H   H66       1.0  0.05280  0.74200  0.08200  1.0000 0.1097350307
H   H67       1.0  0.38110  0.97010  0.63060  1.0000 0.131715155
H   H68       1.0  0.02990  0.61890  0.13060  1.0000 0.131715155
H   H69       1.0  0.15930  0.70670  0.69170  1.0000 0.1229256019
H   H70       1.0  0.29330  0.84070  0.19170  1.0000 0.1229256019
H   H71       1.0  0.04150  0.68850  0.63970  1.0000 0.1034414393
H   H72       1.0  0.31150  0.95850  0.13970  1.0000 0.1034414393
H   H73       1.0  0.94510  0.15810  0.70110  1.0000 0.1034414393
H   H74       1.0  0.84190  0.05490  0.20110  1.0000 0.1034414393
H   H75       1.0  0.98770  0.14110  0.64910  1.0000 0.1373890275
H   H76       1.0  0.85890  0.01230  0.14910  1.0000 0.1373890275
H   H77       1.0  0.20800  0.44760  0.63180  1.0000 0.1373890275
H   H78       1.0  0.55240  0.79200  0.13180  1.0000 0.1373890275
H   H79       1.0  0.15900  0.45440  0.68450  1.0000 0.1097350307
H   H80       1.0  0.54560  0.84100  0.18450  1.0000 0.1097350307
H   H81       1.0  0.10330  0.99090  0.50730  1.0000 0.1034414393
H   H82       1.0  0.00910  0.89670  0.00730  1.0000 0.1034414393
H   H83       1.0  0.14210  0.13970  0.50850  1.0000 0.1373890275
H   H84       1.0  0.86030  0.85790  0.00850  1.0000 0.1373890275
H   H85       1.0  0.06620  0.03940  0.62150  1.0000 0.1373890275
H   H86       1.0  0.96060  0.93380  0.12150  1.0000 0.1373890275
H   H87       1.0  0.03010  0.89550  0.61650  1.0000 0.1097350307
H   H88       1.0  0.10450  0.96990  0.11650  1.0000 0.1097350307
H   H89       1.0  0.43710  0.56930  0.45560  1.0000 0.1034414393
H   H90       1.0  0.43070  0.56290  0.95560  1.0000 0.1034414393
H   H91       1.0  0.33333  0.41670  0.49640  1.0000 0.1373890275
H   H92       1.0  0.58330  0.66667  0.99640  1.0000 0.1373890275
H   H93       1.0  0.22140  0.51880  0.52510  1.0000 0.1373890275
H   H94       1.0  0.48120  0.77860  0.02510  1.0000 0.1373890275
H   H95       1.0  0.32030  0.66330  0.48010  1.0000 0.1034414393
H   H96       1.0  0.33670  0.67970  0.98010  1.0000 0.1034414393
C   C1        1.0  0.57460  0.23000  0.66360  1.0000 0.0793989891
C   C2        1.0  0.77000  0.42540  0.16360  1.0000 0.0793989891
C   C3        1.0  0.63290  0.25930  0.69990  1.0000 -0.1498681065
C   C4        1.0  0.74070  0.36710  0.19990  1.0000 -0.1498681065
C   C5        1.0  0.72610  0.35730  0.70290  1.0000 0.0560497352
C   C6        1.0  0.64270  0.27390  0.20290  1.0000 0.0560497352
C   C7        1.0  0.75900  0.42420  0.66760  1.0000 -0.1391458387
C   C8        1.0  0.57580  0.24100  0.16760  1.0000 -0.1391458387
C   C9        1.0  0.69820  0.38920  0.63270  1.0000 0.0793989891
C   C10       1.0  0.61080  0.30180  0.13270  1.0000 0.0793989891
C   C11       1.0  0.18720  0.77720  0.79970  1.0000 0.0793989891
C   C12       1.0  0.22280  0.81280  0.29970  1.0000 0.0697960082
C   C13       1.0  0.10610  0.67510  0.80410  1.0000 -0.1602057591
C   C14       1.0  0.32490  0.89390  0.30410  1.0000 -0.1602057591
C   C15       1.0  0.02340  0.63300  0.77380  1.0000 0.0793989891
C   C16       1.0  0.36700  0.97660  0.27380  1.0000 0.0793989891
C   C17       1.0  0.02840  0.69700  0.74160  1.0000 -0.1498681065
C   C18       1.0  0.30300  0.97160  0.24160  1.0000 -0.1498681065
C   C19       1.0  0.11240  0.79980  0.73960  1.0000 0.0697960082
C   C20       1.0  0.20020  0.88760  0.23960  1.0000 0.0697960082
C   C21       1.0  0.89760  0.23760  0.89560  1.0000 0.0881201392
C   C22       1.0  0.76240  0.10240  0.39560  1.0000 0.0881201392
C   C23       1.0  0.91180  0.31160  0.86660  1.0000 -0.1391458387
C   C24       1.0  0.68840  0.08820  0.36660  1.0000 -0.1391458387
C   C25       1.0  0.84110  0.28450  0.83380  1.0000 0.0541720167
C   C26       1.0  0.71550  0.15890  0.33380  1.0000 0.0541720167
C   C27       1.0  0.75640  0.18120  0.83080  1.0000 -0.1498681065
C   C28       1.0  0.81880  0.24360  0.33080  1.0000 -0.1498681065
C   C29       1.0  0.74720  0.11140  0.86180  1.0000 0.0793989891
C   C30       1.0  0.88860  0.25280  0.36180  1.0000 0.0793989891
C   C31       1.0  0.79410  0.39190  0.74030  1.0000 0.3685242254
C   C32       1.0  0.60810  0.20590  0.24030  1.0000 0.3639218881
C   C33       1.0  0.93420  0.52000  0.77420  1.0000 0.3685242254
C   C34       1.0  0.48000  0.06580  0.27420  1.0000 0.3685242254
C   C35       1.0  0.85180  0.35940  0.80110  1.0000 0.3685242254
C   C36       1.0  0.64060  0.14820  0.30110  1.0000 0.3685242254
C   C37       1.0  0.21760  0.99780  0.81380  1.0000 0.0793989891
C   C38       1.0  0.00220  0.78240  0.31380  1.0000 0.0793989891
C   C39       1.0  0.20650  0.02310  0.84450  1.0000 -0.1498681065
C   C40       1.0  0.97690  0.79350  0.34450  1.0000 -0.1498681065
C   C41       1.0  0.29220  0.10060  0.86540  1.0000 0.0697960082
C   C42       1.0  0.89940  0.70780  0.36540  1.0000 0.0697960082
C   C43       1.0  0.38710  0.15290  0.85460  1.0000 -0.1391458387
C   C44       1.0  0.84710  0.61290  0.35460  1.0000 -0.1391458387
C   C45       1.0  0.39020  0.12240  0.82350  1.0000 0.0793989891
C   C46       1.0  0.87760  0.60980  0.32350  1.0000 0.0793989891
C   C47       1.0  0.00140  0.09600  0.96930  1.0000 0.0793989891
C   C48       1.0  0.90400  0.99860  0.46930  1.0000 0.0793989891
C   C49       1.0  0.09020  0.11900  0.96890  1.0000 -0.1391458387
C   C50       1.0  0.88100  0.90980  0.46890  1.0000 -0.1391458387
C   C51       1.0  0.10510  0.10790  0.93550  1.0000 0.0697960082
C   C52       1.0  0.89210  0.89490  0.43550  1.0000 0.0697960082
C   C53       1.0  0.03080  0.07420  0.90230  1.0000 -0.1391458387
C   C54       1.0  0.92580  0.96920  0.40230  1.0000 -0.1391458387
C   C55       1.0  0.94620  0.05360  0.90560  1.0000 0.0793989891
C   C56       1.0  0.94640  0.05380  0.40560  1.0000 0.0793989891
C   C57       1.0  0.55760  0.39120  0.03060  1.0000 0.0881201392
C   C58       1.0  0.60880  0.44240  0.53060  1.0000 0.0881201392
C   C59       1.0  0.46710  0.33110  0.00560  1.0000 -0.1391458387
C   C60       1.0  0.66890  0.53290  0.50560  1.0000 -0.1391458387
C   C61       1.0  0.45240  0.26940  0.98400  1.0000 0.0697960082
C   C62       1.0  0.73060  0.54760  0.48400  1.0000 0.0697960082
C   C63       1.0  0.52740  0.26440  0.98920  1.0000 -0.1286386512
C   C64       1.0  0.73560  0.47260  0.48920  1.0000 -0.1286386512
C   C65       1.0  0.61350  0.32390  0.01580  1.0000 0.0793989891
C   C66       1.0  0.67610  0.38650  0.51580  1.0000 0.0793989891
C   C67       1.0  0.28710  0.12950  0.90000  1.0000 0.3639218881
C   C68       1.0  0.87050  0.71290  0.40000  1.0000 0.3685242254
C   C69       1.0  0.20040  0.13340  0.93240  1.0000 0.3798213825
C   C70       1.0  0.86660  0.79960  0.43240  1.0000 0.3798213825
C   C71       1.0  0.36040  0.20800  0.95470  1.0000 0.3685242254
C   C72       1.0  0.79200  0.63960  0.45470  1.0000 0.3639218881
C   C73       1.0  0.23000  0.57460  0.83640  1.0000 0.0793989891
C   C74       1.0  0.42540  0.77000  0.33640  1.0000 0.0793989891
C   C75       1.0  0.25930  0.63290  0.80010  1.0000 -0.1498681065
C   C76       1.0  0.36710  0.74070  0.30010  1.0000 -0.1498681065
C   C77       1.0  0.35730  0.72610  0.79710  1.0000 0.0560497352
C   C78       1.0  0.27390  0.64270  0.29710  1.0000 0.0560497352
C   C79       1.0  0.42420  0.75900  0.83240  1.0000 -0.1391458387
C   C80       1.0  0.24100  0.57580  0.33240  1.0000 -0.1391458387
C   C81       1.0  0.38920  0.69820  0.86730  1.0000 0.0793989891
C   C82       1.0  0.30180  0.61080  0.36730  1.0000 0.0793989891
C   C83       1.0  0.77720  0.18720  0.70030  1.0000 0.0793989891
C   C84       1.0  0.81280  0.22280  0.20030  1.0000 0.0793989891
C   C85       1.0  0.67510  0.10610  0.69590  1.0000 -0.1602057591
C   C86       1.0  0.89390  0.32490  0.19590  1.0000 -0.1602057591
C   C87       1.0  0.63300  0.02340  0.72620  1.0000 0.0793989891
C   C88       1.0  0.97660  0.36700  0.22620  1.0000 0.0793989891
C   C89       1.0  0.69700  0.02840  0.75840  1.0000 -0.1498681065
C   C90       1.0  0.97160  0.30300  0.25840  1.0000 -0.1498681065
C   C91       1.0  0.79980  0.11240  0.76040  1.0000 0.0697960082
C   C92       1.0  0.88760  0.20020  0.26040  1.0000 0.0697960082
C   C93       1.0  0.23760  0.89760  0.60440  1.0000 0.0881201392
C   C94       1.0  0.10240  0.76240  0.10440  1.0000 0.0881201392
C   C95       1.0  0.31160  0.91180  0.63340  1.0000 -0.1391458387
C   C96       1.0  0.08820  0.68840  0.13340  1.0000 -0.1391458387
C   C97       1.0  0.28450  0.84110  0.66620  1.0000 0.0541720167
C   C98       1.0  0.15890  0.71550  0.16620  1.0000 0.0541720167
C   C99       1.0  0.18120  0.75640  0.66920  1.0000 -0.1498681065
C   C100      1.0  0.24360  0.81880  0.16920  1.0000 -0.1498681065
C   C101      1.0  0.11140  0.74720  0.63820  1.0000 0.0793989891
C   C102      1.0  0.25280  0.88860  0.13820  1.0000 0.0793989891
C   C103      1.0  0.39190  0.79410  0.75970  1.0000 0.3685242254
C   C104      1.0  0.20590  0.60810  0.25970  1.0000 0.3685242254
C   C105      1.0  0.52000  0.93420  0.72580  1.0000 0.3685242254
C   C106      1.0  0.06580  0.48000  0.22580  1.0000 0.3685242254
C   C107      1.0  0.35940  0.85180  0.69890  1.0000 0.3685242254
C   C108      1.0  0.14820  0.64060  0.19890  1.0000 0.3685242254
C   C109      1.0  0.99780  0.21760  0.68620  1.0000 0.0793989891
C   C110      1.0  0.78240  0.00220  0.18620  1.0000 0.0793989891
C   C111      1.0  0.02310  0.20650  0.65550  1.0000 -0.1498681065
C   C112      1.0  0.79350  0.97690  0.15550  1.0000 -0.1498681065
C   C113      1.0  0.10060  0.29220  0.63460  1.0000 0.0697960082
C   C114      1.0  0.70780  0.89940  0.13460  1.0000 0.0697960082
C   C115      1.0  0.15290  0.38710  0.64540  1.0000 -0.1391458387
C   C116      1.0  0.61290  0.84710  0.14540  1.0000 -0.1391458387
C   C117      1.0  0.12240  0.39020  0.67650  1.0000 0.0793989891
C   C118      1.0  0.60980  0.87760  0.17650  1.0000 0.0793989891
C   C119      1.0  0.09600  0.00140  0.53070  1.0000 0.0793989891
C   C120      1.0  0.99860  0.90400  0.03070  1.0000 0.0793989891
C   C121      1.0  0.11900  0.09020  0.53110  1.0000 -0.1391458387
C   C122      1.0  0.90980  0.88100  0.03110  1.0000 -0.1391458387
C   C123      1.0  0.10790  0.10510  0.56450  1.0000 0.0697960082
C   C124      1.0  0.89490  0.89210  0.06450  1.0000 0.0697960082
C   C125      1.0  0.07420  0.03080  0.59770  1.0000 -0.1391458387
C   C126      1.0  0.96920  0.92580  0.09770  1.0000 -0.1391458387
C   C127      1.0  0.05360  0.94620  0.59440  1.0000 0.0793989891
C   C128      1.0  0.05380  0.94640  0.09440  1.0000 0.0793989891
C   C129      1.0  0.39120  0.55760  0.46940  1.0000 0.0881201392
C   C130      1.0  0.44240  0.60880  0.96940  1.0000 0.0881201392
C   C131      1.0  0.33110  0.46710  0.49440  1.0000 -0.1391458387
C   C132      1.0  0.53290  0.66890  0.99440  1.0000 -0.1391458387
C   C133      1.0  0.26940  0.45240  0.51600  1.0000 0.0697960082
C   C134      1.0  0.54760  0.73060  0.01600  1.0000 0.0697960082
C   C135      1.0  0.26440  0.52740  0.51080  1.0000 -0.1286386512
C   C136      1.0  0.47260  0.73560  0.01080  1.0000 -0.1286386512
C   C137      1.0  0.32390  0.61350  0.48420  1.0000 0.0793989891
C   C138      1.0  0.38650  0.67610  0.98420  1.0000 0.0793989891
C   C139      1.0  0.12950  0.28710  0.60000  1.0000 0.3685242254
C   C140      1.0  0.71290  0.87050  0.10000  1.0000 0.3685242254
C   C141      1.0  0.13340  0.20040  0.56760  1.0000 0.3798213825
C   C142      1.0  0.79960  0.86660  0.06760  1.0000 0.3798213825
C   C143      1.0  0.20800  0.36040  0.54530  1.0000 0.3685242254
C   C144      1.0  0.63960  0.79200  0.04530  1.0000 0.3639218881
I   I1        1.0  0.36349  0.20129  0.57318  1.0000 -0.4290107444
I   I2        1.0  0.79871  0.63651  0.07318  1.0000 -0.4290107444
I   I3        1.0  0.53124  0.11644  0.56510  1.0000 -0.4572663133
I   I4        1.0  0.88356  0.46876  0.06510  1.0000 -0.4572663133
I   I5        1.0  0.47578  0.02186  0.78872  1.0000 -0.4290107444
I   I6        1.0  0.97814  0.52422  0.28872  1.0000 -0.4290107444
I   I7        1.0  0.29953  0.06633  0.69128  1.0000 -0.4290107444
I   I8        1.0  0.93367  0.70047  0.19128  1.0000 -0.4236275628
I   I9        1.0  0.78960  0.06136  0.00127  1.0000 -0.4494049873
I   I10       1.0  0.93864  0.21040  0.50127  1.0000 -0.4494049873
I   I11       1.0  0.66500  0.86254  0.90662  1.0000 -0.4572663133
I   I12       1.0  0.13746  0.33500  0.40662  1.0000 -0.4572663133
I   I13       1.0  0.20129  0.36349  0.92682  1.0000 -0.4290107444
I   I14       1.0  0.63651  0.79871  0.42682  1.0000 -0.4290107444
I   I15       1.0  0.11644  0.53124  0.93490  1.0000 -0.4494049873
I   I16       1.0  0.46876  0.88356  0.43490  1.0000 -0.4494049873
I   I17       1.0  0.02186  0.47578  0.71128  1.0000 -0.4290107444
I   I18       1.0  0.52422  0.97814  0.21128  1.0000 -0.4290107444
I   I19       1.0  0.06633  0.29953  0.80872  1.0000 -0.4290107444
I   I20       1.0  0.70047  0.93367  0.30872  1.0000 -0.4236275628
I   I21       1.0  0.06136  0.78960  0.49873  1.0000 -0.4494049873
I   I22       1.0  0.21040  0.93864  0.99873  1.0000 -0.4494049873
I   I23       1.0  0.86254  0.66500  0.59338  1.0000 -0.4572663133
I   I24       1.0  0.33500  0.13746  0.09338  1.0000 -0.4572663133
N   N1        1.0  0.60770  0.29290  0.62980  1.0000 -0.1833128308
N   N2        1.0  0.70710  0.39230  0.12980  1.0000 -0.1833128308
N   N3        1.0  0.19260  0.84000  0.76840  1.0000 -0.1906558896
N   N4        1.0  0.16000  0.80740  0.26840  1.0000 -0.1906558896
N   N5        1.0  0.81660  0.13740  0.89350  1.0000 -0.1906558896
N   N6        1.0  0.86260  0.18340  0.39350  1.0000 -0.1906558896
N   N7        1.0  0.86800  0.49200  0.74230  1.0000 -0.3929260994
N   N8        1.0  0.50800  0.13200  0.24230  1.0000 -0.3929260994
N   N9        1.0  0.93260  0.45960  0.80550  1.0000 -0.3929260994
N   N10       1.0  0.54040  0.06740  0.30550  1.0000 -0.3929260994
N   N11       1.0  0.78180  0.32180  0.76900  1.0000 -0.3784952238
N   N12       1.0  0.67820  0.21820  0.26900  1.0000 -0.3784952238
N   N13       1.0  0.30770  0.04390  0.80410  1.0000 -0.1906558896
N   N14       1.0  0.95610  0.69230  0.30410  1.0000 -0.1833128308
N   N15       1.0  0.93020  0.06400  0.93810  1.0000 -0.1906558896
N   N16       1.0  0.93600  0.06980  0.43810  1.0000 -0.1833128308
N   N17       1.0  0.62790  0.38690  0.03600  1.0000 -0.1906558896
N   N18       1.0  0.61310  0.37210  0.53600  1.0000 -0.1906558896
N   N19       1.0  0.19940  0.10140  0.90200  1.0000 -0.3984599858
N   N20       1.0  0.89860  0.80060  0.40200  1.0000 -0.3984599858
N   N21       1.0  0.27960  0.18880  0.95970  1.0000 -0.3784952238
N   N22       1.0  0.81120  0.72040  0.45970  1.0000 -0.3784952238
N   N23       1.0  0.36910  0.18110  0.92580  1.0000 -0.3929260994
N   N24       1.0  0.81890  0.63090  0.42580  1.0000 -0.3929260994
N   N25       1.0  0.29290  0.60770  0.87020  1.0000 -0.1833128308
N   N26       1.0  0.39230  0.70710  0.37020  1.0000 -0.1833128308
N   N27       1.0  0.84000  0.19260  0.73160  1.0000 -0.1906558896
N   N28       1.0  0.80740  0.16000  0.23160  1.0000 -0.1906558896
N   N29       1.0  0.13740  0.81660  0.60650  1.0000 -0.1906558896
N   N30       1.0  0.18340  0.86260  0.10650  1.0000 -0.1906558896
N   N31       1.0  0.49200  0.86800  0.75770  1.0000 -0.3929260994
N   N32       1.0  0.13200  0.50800  0.25770  1.0000 -0.3929260994
N   N33       1.0  0.45960  0.93260  0.69450  1.0000 -0.3929260994
N   N34       1.0  0.06740  0.54040  0.19450  1.0000 -0.3929260994
N   N35       1.0  0.32180  0.78180  0.73100  1.0000 -0.3784952238
N   N36       1.0  0.21820  0.67820  0.23100  1.0000 -0.3784952238
N   N37       1.0  0.04390  0.30770  0.69590  1.0000 -0.1833128308
N   N38       1.0  0.69230  0.95610  0.19590  1.0000 -0.1833128308
N   N39       1.0  0.06400  0.93020  0.56190  1.0000 -0.1833128308
N   N40       1.0  0.06980  0.93600  0.06190  1.0000 -0.1906558896
N   N41       1.0  0.38690  0.62790  0.46400  1.0000 -0.1906558896
N   N42       1.0  0.37210  0.61310  0.96400  1.0000 -0.1906558896
N   N43       1.0  0.10140  0.19940  0.59800  1.0000 -0.3984599858
N   N44       1.0  0.80060  0.89860  0.09800  1.0000 -0.3984599858
N   N45       1.0  0.18880  0.27960  0.54030  1.0000 -0.3784952238
N   N46       1.0  0.72040  0.81120  0.04030  1.0000 -0.3784952238
N   N47       1.0  0.18110  0.36910  0.57420  1.0000 -0.3929260994
N   N48       1.0  0.63090  0.81890  0.07420  1.0000 -0.3929260994
