# DDEC6 charges by PACMAN v1.1 (https://github.com/mtap-research/PACMAN-charge/)
data_2015[SiZr][flu]3[ASR]1
_chemical_formula_sum              "Zr6 Si2 H32 C56 O24"
_cell_length_a       17.9771
_cell_length_b       17.9771
_cell_length_c       17.9771
_cell_angle_alpha    129.884
_cell_angle_beta     129.884
_cell_angle_gamma    73.5929

_symmetry_space_group_name_H-M    "P 1"
_symmetry_Int_Tables_number       1

loop_
  _symmetry_equiv_pos_as_xyz
  'x, y, z'

loop_
  _atom_site_type_symbol
  _atom_site_label
  _atom_site_symmetry_multiplicity
  _atom_site_fract_x
  _atom_site_fract_y
  _atom_site_fract_z
  _atom_site_occupancy
  _atom_site_charge
Zr  Zr1       1.0  0.55007  0.34321  0.89328  1.0000 2.4693056729
Zr  Zr2       1.0  0.44993  0.65679  0.10672  1.0000 2.4693056729
Zr  Zr3       1.0  0.34321  0.44993  0.79314  1.0000 2.4693056729
Zr  Zr4       1.0  0.65679  0.55007  0.20686  1.0000 2.4693056729
Zr  Zr5       1.0  0.41457  0.41457  0.00000  1.0000 2.3617071297
Zr  Zr6       1.0  0.58543  0.58543  0.00000  1.0000 2.3617071297
Si  Si1       1.0  0.25000  0.75000  0.50000  1.0000 0.6321439597
Si  Si2       1.0  0.75000  0.25000  0.50000  1.0000 0.6194680121
H   H1        1.0  0.21480  0.94120  0.65080  1.0000 0.1022875164
H   H2        1.0  0.29040  0.56400  0.34920  1.0000 0.1022875164
H   H3        1.0  0.94120  0.29040  0.72640  1.0000 0.106172054
H   H4        1.0  0.56400  0.21480  0.27360  1.0000 0.106172054
H   H5        1.0  0.78520  0.05880  0.34920  1.0000 0.106172054
H   H6        1.0  0.70960  0.43600  0.65080  1.0000 0.106172054
H   H7        1.0  0.05880  0.70960  0.27360  1.0000 0.106172054
H   H8        1.0  0.43600  0.78520  0.72640  1.0000 0.106172054
H   H9        1.0  0.28730  0.10620  0.78710  1.0000 0.1203643169
H   H10       1.0  0.31910  0.50020  0.21290  1.0000 0.1203643169
H   H11       1.0  0.10620  0.31910  0.81890  1.0000 0.1203643169
H   H12       1.0  0.50020  0.28730  0.18110  1.0000 0.1203643169
H   H13       1.0  0.71270  0.89380  0.21290  1.0000 0.1203643169
H   H14       1.0  0.68090  0.49980  0.78710  1.0000 0.1203643169
H   H15       1.0  0.89380  0.68090  0.18110  1.0000 0.1203643169
H   H16       1.0  0.49980  0.71270  0.81890  1.0000 0.1203643169
H   H17       1.0  0.50100  0.02990  0.75370  1.0000 0.1022875164
H   H18       1.0  0.27620  0.74730  0.24630  1.0000 0.1022875164
H   H19       1.0  0.02990  0.27620  0.52890  1.0000 0.1022875164
H   H20       1.0  0.74730  0.50100  0.47110  1.0000 0.1022875164
H   H21       1.0  0.49900  0.97010  0.24630  1.0000 0.1022875164
H   H22       1.0  0.72380  0.25270  0.75370  1.0000 0.1022875164
H   H23       1.0  0.97010  0.72380  0.47110  1.0000 0.1022875164
H   H24       1.0  0.25270  0.49900  0.52890  1.0000 0.1022875164
H   H25       1.0  0.43140  0.86580  0.62520  1.0000 0.106172054
H   H26       1.0  0.24060  0.80620  0.37480  1.0000 0.106172054
H   H27       1.0  0.86580  0.24060  0.43440  1.0000 0.106172054
H   H28       1.0  0.80620  0.43140  0.56560  1.0000 0.106172054
H   H29       1.0  0.56860  0.13420  0.37480  1.0000 0.106172054
H   H30       1.0  0.75940  0.19380  0.62520  1.0000 0.106172054
H   H31       1.0  0.13420  0.75940  0.56560  1.0000 0.106172054
H   H32       1.0  0.19380  0.56860  0.43440  1.0000 0.106172054
C   C1        1.0  0.27277  0.95857  0.67120  1.0000 -0.1094048757
C   C2        1.0  0.28737  0.60157  0.32880  1.0000 -0.1094048757
C   C3        1.0  0.95857  0.28737  0.68580  1.0000 -0.1094048757
C   C4        1.0  0.60157  0.27277  0.31420  1.0000 -0.1094048757
C   C5        1.0  0.72723  0.04143  0.32880  1.0000 -0.1094048757
C   C6        1.0  0.71263  0.39843  0.67120  1.0000 -0.1094048757
C   C7        1.0  0.04143  0.71263  0.31420  1.0000 -0.1094048757
C   C8        1.0  0.39843  0.72723  0.68580  1.0000 -0.1094048757
C   C9        1.0  0.31548  0.05798  0.75210  1.0000 -0.0902549492
C   C10       1.0  0.30588  0.56338  0.24790  1.0000 -0.0902549492
C   C11       1.0  0.05798  0.30588  0.74250  1.0000 -0.0902549492
C   C12       1.0  0.56338  0.31548  0.25750  1.0000 -0.0902549492
C   C13       1.0  0.68452  0.94202  0.24790  1.0000 -0.0902549492
C   C14       1.0  0.69412  0.43662  0.75210  1.0000 -0.0902549492
C   C15       1.0  0.94202  0.69412  0.25750  1.0000 -0.0902549492
C   C16       1.0  0.43662  0.68452  0.74250  1.0000 -0.0902549492
C   C17       1.0  0.40029  0.08598  0.78121  1.0000 -0.0532719174
C   C18       1.0  0.30477  0.61908  0.21879  1.0000 -0.0532719174
C   C19       1.0  0.08598  0.30477  0.68569  1.0000 -0.0532719174
C   C20       1.0  0.61908  0.40029  0.31431  1.0000 -0.0532719174
C   C21       1.0  0.59971  0.91402  0.21879  1.0000 -0.0532719174
C   C22       1.0  0.69523  0.38092  0.78121  1.0000 -0.0532719174
C   C23       1.0  0.91402  0.69523  0.31431  1.0000 -0.0532719174
C   C24       1.0  0.38092  0.59971  0.68569  1.0000 -0.0532719174
C   C25       1.0  0.44291  0.01271  0.73320  1.0000 -0.0968816409
C   C26       1.0  0.27951  0.70971  0.26680  1.0000 -0.0968816409
C   C27       1.0  0.01271  0.27951  0.56980  1.0000 -0.0968816409
C   C28       1.0  0.70971  0.44291  0.43020  1.0000 -0.0968816409
C   C29       1.0  0.55709  0.98729  0.26680  1.0000 -0.0968816409
C   C30       1.0  0.72049  0.29029  0.73320  1.0000 -0.0968816409
C   C31       1.0  0.98729  0.72049  0.43020  1.0000 -0.0968816409
C   C32       1.0  0.29029  0.55709  0.56980  1.0000 -0.0968816409
C   C33       1.0  0.40051  0.91411  0.65520  1.0000 -0.1094048757
C   C34       1.0  0.25891  0.74531  0.34480  1.0000 -0.1094048757
C   C35       1.0  0.91411  0.25891  0.51360  1.0000 -0.1094048757
C   C36       1.0  0.74531  0.40051  0.48640  1.0000 -0.1094048757
C   C37       1.0  0.59949  0.08589  0.34480  1.0000 -0.1094048757
C   C38       1.0  0.74109  0.25469  0.65520  1.0000 -0.1094048757
C   C39       1.0  0.08589  0.74109  0.48640  1.0000 -0.1094048757
C   C40       1.0  0.25469  0.59949  0.51360  1.0000 -0.1094048757
C   C41       1.0  0.31298  0.88483  0.62011  1.0000 -0.2078587178
C   C42       1.0  0.26472  0.69287  0.37989  1.0000 -0.2078587178
C   C43       1.0  0.88483  0.26472  0.57185  1.0000 -0.2078587178
C   C44       1.0  0.69287  0.31298  0.42815  1.0000 -0.2078587178
C   C45       1.0  0.68702  0.11517  0.37989  1.0000 -0.2078587178
C   C46       1.0  0.73528  0.30713  0.62011  1.0000 -0.2078587178
C   C47       1.0  0.11517  0.73528  0.42815  1.0000 -0.2078587178
C   C48       1.0  0.30713  0.68702  0.57185  1.0000 -0.2078587178
C   C49       1.0  0.43949  0.19181  0.85494  1.0000 0.6321439597
C   C50       1.0  0.33687  0.58455  0.14506  1.0000 0.6321439597
C   C51       1.0  0.19181  0.33687  0.75232  1.0000 0.6321439597
C   C52       1.0  0.58455  0.43949  0.24768  1.0000 0.6321439597
C   C53       1.0  0.56051  0.80819  0.14506  1.0000 0.6321439597
C   C54       1.0  0.66313  0.41545  0.85494  1.0000 0.6321439597
C   C55       1.0  0.80819  0.66313  0.24768  1.0000 0.6321439597
C   C56       1.0  0.41545  0.56051  0.75232  1.0000 0.6321439597
O   O1        1.0  0.49791  0.21042  0.84967  1.0000 -0.6170449214
O   O2        1.0  0.36075  0.64824  0.15033  1.0000 -0.6170449214
O   O3        1.0  0.21042  0.36075  0.71251  1.0000 -0.6170449214
O   O4        1.0  0.64824  0.49791  0.28749  1.0000 -0.6134805892
O   O5        1.0  0.50209  0.78958  0.15033  1.0000 -0.6170449214
O   O6        1.0  0.63925  0.35176  0.84967  1.0000 -0.6170449214
O   O7        1.0  0.78958  0.63925  0.28749  1.0000 -0.6170449214
O   O8        1.0  0.35176  0.50209  0.71251  1.0000 -0.6170449214
O   O9        1.0  0.40889  0.25674  0.91531  1.0000 -0.5865381374
O   O10       1.0  0.34143  0.49358  0.08469  1.0000 -0.5848447893
O   O11       1.0  0.25674  0.34143  0.84785  1.0000 -0.5865381374
O   O12       1.0  0.49358  0.40889  0.15215  1.0000 -0.5848447893
O   O13       1.0  0.59111  0.74326  0.08469  1.0000 -0.5865381374
O   O14       1.0  0.65857  0.50642  0.91531  1.0000 -0.5865381374
O   O15       1.0  0.74326  0.65857  0.15215  1.0000 -0.5865381374
O   O16       1.0  0.50642  0.59111  0.84785  1.0000 -0.5865381374
O   O17       1.0  0.48762  0.43816  0.84302  1.0000 -1.1723901047
O   O18       1.0  0.59514  0.64460  0.15698  1.0000 -1.1723901047
O   O19       1.0  0.43816  0.59514  0.95054  1.0000 -1.181219897
O   O20       1.0  0.64460  0.48762  0.04946  1.0000 -1.181219897
O   O21       1.0  0.51238  0.56184  0.15698  1.0000 -1.181219897
O   O22       1.0  0.40486  0.35540  0.84302  1.0000 -1.1723901047
O   O23       1.0  0.56184  0.40486  0.04946  1.0000 -1.181219897
O   O24       1.0  0.35540  0.51238  0.95054  1.0000 -1.181219897
