# DDEC6 charges by PACMAN v1.1 (https://github.com/mtap-research/PACMAN-charge/)
data_2015[Zn][bnn]3[ASR]2
_chemical_formula_sum              "Zn10 H76 C72 N4 O36"
_cell_length_a       13.6546
_cell_length_b       14.2126
_cell_length_c       14.6377
_cell_angle_alpha    103.943
_cell_angle_beta     86.39
_cell_angle_gamma    112.09

_symmetry_space_group_name_H-M    "P 1"
_symmetry_Int_Tables_number       1

loop_
  _symmetry_equiv_pos_as_xyz
  'x, y, z'

loop_
  _atom_site_type_symbol
  _atom_site_label
  _atom_site_symmetry_multiplicity
  _atom_site_fract_x
  _atom_site_fract_y
  _atom_site_fract_z
  _atom_site_occupancy
  _atom_site_charge
Zn  Zn1       1.0  0.33469  0.14237  0.77075  1.0000 0.9100417352
Zn  Zn2       1.0  0.66531  0.85763  0.22925  1.0000 0.9100417352
Zn  Zn3       1.0  0.98419  0.37062  0.85875  1.0000 0.8408326065
Zn  Zn4       1.0  0.01581  0.62938  0.14125  1.0000 0.8408326065
Zn  Zn5       1.0  0.14957  0.24347  0.77590  1.0000 0.9212614452
Zn  Zn6       1.0  0.85043  0.75653  0.22410  1.0000 0.9212614452
Zn  Zn7       1.0  0.73857  0.23310  0.89188  1.0000 0.9388682699
Zn  Zn8       1.0  0.26143  0.76690  0.10812  1.0000 0.9388682699
Zn  Zn9       1.0  0.48836  0.05299  0.87258  1.0000 0.8242733335
Zn  Zn10      1.0  0.51164  0.94701  0.12742  1.0000 0.8242733335
H   H1        1.0  0.13300  0.54800  0.97080  1.0000 0.3310703492
H   H2        1.0  0.86700  0.45200  0.02920  1.0000 0.3310703492
H   H3        1.0  0.36300  0.92900  0.98400  1.0000 0.3310703492
H   H4        1.0  0.63700  0.07100  0.01600  1.0000 0.3310703492
H   H5        1.0  0.34550  0.53690  0.92390  1.0000 0.120118608
H   H6        1.0  0.65450  0.46310  0.07610  1.0000 0.120118608
H   H7        1.0  0.24750  0.96060  0.48900  1.0000 0.120118608
H   H8        1.0  0.75250  0.03940  0.51100  1.0000 0.120118608
H   H9        1.0  0.86750  0.53120  0.90960  1.0000 0.0992893792
H   H10       1.0  0.13250  0.46880  0.09040  1.0000 0.0992893792
H   H11       1.0  0.75420  0.44970  0.87410  1.0000 0.0992893792
H   H12       1.0  0.24580  0.55030  0.12590  1.0000 0.0992893792
H   H13       1.0  0.83290  0.06770  0.06110  1.0000 0.120118608
H   H14       1.0  0.16710  0.93230  0.93890  1.0000 0.120118608
H   H15       1.0  0.64480  0.93970  0.89170  1.0000 0.0992893792
H   H16       1.0  0.35520  0.06030  0.10830  1.0000 0.0992893792
H   H17       1.0  0.73820  0.01200  0.84230  1.0000 0.1106542475
H   H18       1.0  0.26180  0.98800  0.15770  1.0000 0.1106542475
H   H19       1.0  0.07070  0.92220  0.26550  1.0000 0.120118608
H   H20       1.0  0.92930  0.07780  0.73450  1.0000 0.120118608
H   H21       1.0  0.81660  0.39170  0.72940  1.0000 0.129036144
H   H22       1.0  0.18340  0.60830  0.27060  1.0000 0.129036144
H   H23       1.0  0.85950  0.51410  0.74870  1.0000 0.1106542475
H   H24       1.0  0.14050  0.48590  0.25130  1.0000 0.1106542475
H   H25       1.0  0.28700  0.84110  0.81740  1.0000 0.0992893792
H   H26       1.0  0.71300  0.15890  0.18260  1.0000 0.0992893792
H   H27       1.0  0.30460  0.78550  0.89220  1.0000 0.0992893792
H   H28       1.0  0.69540  0.21450  0.10780  1.0000 0.0992893792
H   H29       1.0  0.07980  0.31040  0.61710  1.0000 0.1106542475
H   H30       1.0  0.92020  0.68960  0.38290  1.0000 0.1106542475
H   H31       1.0  0.14790  0.41770  0.68370  1.0000 0.0919174558
H   H32       1.0  0.85210  0.58230  0.31630  1.0000 0.0919174558
H   H33       1.0  0.53730  0.05800  0.65540  1.0000 0.1106542475
H   H34       1.0  0.46270  0.94200  0.34460  1.0000 0.1106542475
H   H35       1.0  0.41970  0.02740  0.62330  1.0000 0.1106542475
H   H36       1.0  0.58030  0.97260  0.37670  1.0000 0.1106542475
H   H37       1.0  0.19100  0.17450  0.11590  1.0000 0.1106542475
H   H38       1.0  0.80900  0.82550  0.88410  1.0000 0.1106542475
H   H39       1.0  0.46590  0.88090  0.62450  1.0000 0.120118608
H   H40       1.0  0.53410  0.11910  0.37550  1.0000 0.120118608
H   H41       1.0  0.36410  0.88120  0.68080  1.0000 0.120118608
H   H42       1.0  0.63590  0.11880  0.31920  1.0000 0.120118608
H   H43       1.0  0.12960  0.25670  0.03320  1.0000 0.120118608
H   H44       1.0  0.87040  0.74330  0.96680  1.0000 0.120118608
H   H45       1.0  0.08520  0.14570  0.49460  1.0000 0.120118608
H   H46       1.0  0.91480  0.85430  0.50540  1.0000 0.120118608
H   H47       1.0  0.64710  0.73800  0.96320  1.0000 0.120118608
H   H48       1.0  0.35290  0.26200  0.03680  1.0000 0.120118608
H   H49       1.0  0.01930  0.05590  0.34630  1.0000 0.1106542475
H   H50       1.0  0.98070  0.94410  0.65370  1.0000 0.1106542475
H   H51       1.0  0.07790  0.02480  0.15910  1.0000 0.120118608
H   H52       1.0  0.92210  0.97520  0.84090  1.0000 0.120118608
H   H53       1.0  0.63340  0.97830  0.71250  1.0000 0.1106542475
H   H54       1.0  0.36660  0.02170  0.28750  1.0000 0.1106542475
H   H55       1.0  0.61120  0.86890  0.73340  1.0000 0.120118608
H   H56       1.0  0.38880  0.13110  0.26660  1.0000 0.120118608
H   H57       1.0  0.57820  0.43910  0.82980  1.0000 0.120118608
H   H58       1.0  0.42180  0.56090  0.17020  1.0000 0.120118608
H   H59       1.0  0.47860  0.81510  0.84680  1.0000 0.1106542475
H   H60       1.0  0.52140  0.18490  0.15320  1.0000 0.1106542475
H   H61       1.0  0.40740  0.76370  0.75420  1.0000 0.1106542475
H   H62       1.0  0.59260  0.23630  0.24580  1.0000 0.1106542475
H   H63       1.0  0.19080  0.54580  0.80770  1.0000 0.0992893792
H   H64       1.0  0.80920  0.45420  0.19230  1.0000 0.0992893792
H   H65       1.0  0.18490  0.64510  0.88030  1.0000 0.0992893792
H   H66       1.0  0.81510  0.35490  0.11970  1.0000 0.0992893792
H   H67       1.0  0.08100  0.59540  0.73980  1.0000 0.1106542475
H   H68       1.0  0.91900  0.40460  0.26020  1.0000 0.1106542475
H   H69       1.0  0.02000  0.61110  0.83300  1.0000 0.1106542475
H   H70       1.0  0.98000  0.38890  0.16700  1.0000 0.1106542475
H   H71       1.0  0.01510  0.44820  0.62590  1.0000 0.0992893792
H   H72       1.0  0.98490  0.55180  0.37410  1.0000 0.0992893792
H   H73       1.0  0.92960  0.34390  0.64300  1.0000 0.120118608
H   H74       1.0  0.07040  0.65610  0.35700  1.0000 0.120118608
H   H75       1.0  0.69940  0.60430  0.88080  1.0000 0.1106542475
H   H76       1.0  0.30060  0.39570  0.11920  1.0000 0.1106542475
C   C1        1.0  0.86810  0.93850  0.14960  1.0000 0.5904149767
C   C2        1.0  0.13190  0.06150  0.85040  1.0000 0.5904149767
C   C3        1.0  0.93300  0.22680  0.98370  1.0000 0.5740088677
C   C4        1.0  0.06700  0.77320  0.01630  1.0000 0.5740088677
C   C5        1.0  0.41740  0.55040  0.91700  1.0000 -0.1074967639
C   C6        1.0  0.58260  0.44960  0.08300  1.0000 -0.1074967639
C   C7        1.0  0.20330  0.98110  0.45930  1.0000 -0.1191747034
C   C8        1.0  0.79670  0.01890  0.54070  1.0000 -0.1191747034
C   C9        1.0  0.37010  0.36150  0.83750  1.0000 0.5904149767
C   C10       1.0  0.62990  0.63850  0.16250  1.0000 0.5904149767
C   C11       1.0  0.82900  0.46190  0.87140  1.0000 -0.0215635934
C   C12       1.0  0.17100  0.53810  0.12860  1.0000 -0.0215635934
C   C13       1.0  0.90530  0.08780  0.07070  1.0000 -0.1191747034
C   C14       1.0  0.09470  0.91220  0.92930  1.0000 -0.1191747034
C   C15       1.0  0.66270  0.98940  0.85230  1.0000 -0.0034881222
C   C16       1.0  0.33730  0.01060  0.14770  1.0000 -0.0034881222
C   C17       1.0  0.09730  0.95770  0.32630  1.0000 -0.1074967639
C   C18       1.0  0.90270  0.04230  0.67370  1.0000 -0.1074967639
C   C19       1.0  0.16690  0.93030  0.36790  1.0000 -0.0310681629
C   C20       1.0  0.83310  0.06970  0.63210  1.0000 -0.0310681629
C   C21       1.0  0.86370  0.45590  0.76960  1.0000 -0.1678001858
C   C22       1.0  0.13630  0.54410  0.23040  1.0000 -0.163562024
C   C23       1.0  0.33850  0.84160  0.86040  1.0000 -0.0215635934
C   C24       1.0  0.66150  0.15840  0.13960  1.0000 -0.0215635934
C   C25       1.0  0.07940  0.36080  0.67500  1.0000 -0.0034881222
C   C26       1.0  0.92060  0.63920  0.32500  1.0000 -0.0034881222
C   C27       1.0  0.46420  0.02770  0.67250  1.0000 0.0055608583
C   C28       1.0  0.53580  0.97230  0.32750  1.0000 0.0055608583
C   C29       1.0  0.94390  0.03230  0.11690  1.0000 -0.0310681629
C   C30       1.0  0.05610  0.96770  0.88310  1.0000 -0.0310681629
C   C31       1.0  0.11880  0.15040  0.10230  1.0000 -0.0980818167
C   C32       1.0  0.88120  0.84960  0.89770  1.0000 -0.0980818167
C   C33       1.0  0.44000  0.91750  0.67920  1.0000 -0.1678001858
C   C34       1.0  0.56000  0.08250  0.32080  1.0000 -0.1678001858
C   C35       1.0  0.08220  0.20100  0.05550  1.0000 -0.0980818167
C   C36       1.0  0.91780  0.79900  0.94450  1.0000 -0.0980818167
C   C37       1.0  0.17340  0.06340  0.50720  1.0000 -0.0310681629
C   C38       1.0  0.82660  0.93660  0.49280  1.0000 -0.0310681629
C   C39       1.0  0.49110  0.65080  0.95170  1.0000 -0.039566684
C   C40       1.0  0.50890  0.34920  0.04830  1.0000 -0.039566684
C   C41       1.0  0.20540  0.84740  0.31130  1.0000 0.5576389289
C   C42       1.0  0.79460  0.15260  0.68870  1.0000 0.5576389289
C   C43       1.0  0.97450  0.17170  0.03980  1.0000 -0.0310681629
C   C44       1.0  0.02550  0.82830  0.96020  1.0000 -0.0310681629
C   C45       1.0  0.45000  0.47250  0.87340  1.0000 -0.0215635934
C   C46       1.0  0.55000  0.52750  0.12660  1.0000 -0.0215635934
C   C47       1.0  0.10510  0.09080  0.46330  1.0000 -0.0980818167
C   C48       1.0  0.89490  0.90920  0.53670  1.0000 -0.0980818167
C   C49       1.0  0.59720  0.67150  0.93970  1.0000 -0.0980818167
C   C50       1.0  0.40280  0.32850  0.06030  1.0000 -0.0980818167
C   C51       1.0  0.06670  0.03790  0.37470  1.0000 -0.0980818167
C   C52       1.0  0.93330  0.96210  0.62530  1.0000 -0.0980818167
C   C53       1.0  0.05130  0.06260  0.13090  1.0000 -0.0980818167
C   C54       1.0  0.94870  0.93740  0.86910  1.0000 -0.0980818167
C   C55       1.0  0.60350  0.93550  0.75740  1.0000 -0.1678001858
C   C56       1.0  0.39650  0.06450  0.24260  1.0000 -0.1678001858
C   C57       1.0  0.55600  0.49270  0.86020  1.0000 -0.0941311413
C   C58       1.0  0.44400  0.50730  0.13980  1.0000 -0.0941311413
C   C59       1.0  0.43260  0.82540  0.80550  1.0000 -0.1678001858
C   C60       1.0  0.56740  0.17460  0.19450  1.0000 -0.1678001858
C   C61       1.0  0.14450  0.57310  0.84920  1.0000 -0.0215635934
C   C62       1.0  0.85550  0.42690  0.15080  1.0000 -0.0215635934
C   C63       1.0  0.05430  0.56730  0.79450  1.0000 -0.1678001858
C   C64       1.0  0.94570  0.43270  0.20550  1.0000 -0.1678001858
C   C65       1.0  0.21260  0.11880  0.60760  1.0000 0.5904149767
C   C66       1.0  0.78740  0.88120  0.39240  1.0000 0.5904149767
C   C67       1.0  0.45400  0.73490  0.00350  1.0000 0.5740088677
C   C68       1.0  0.54600  0.26510  0.99650  1.0000 0.5740088677
C   C69       1.0  0.99410  0.40180  0.66860  1.0000 -0.163562024
C   C70       1.0  0.00590  0.59820  0.33140  1.0000 -0.163562024
C   C71       1.0  0.62810  0.59090  0.89170  1.0000 -0.1074967639
C   C72       1.0  0.37190  0.40910  0.10830  1.0000 -0.1074967639
N   N1        1.0  0.49220  0.91880  0.76760  1.0000 -0.0649726385
N   N2        1.0  0.50780  0.08120  0.23240  1.0000 -0.0649726385
N   N3        1.0  0.97350  0.45900  0.76200  1.0000 -0.0679729128
N   N4        1.0  0.02650  0.54100  0.23800  1.0000 -0.0679729128
O   O1        1.0  0.18270  0.81850  0.22390  1.0000 -0.5897958521
O   O2        1.0  0.81730  0.18150  0.77610  1.0000 -0.5897958521
O   O3        1.0  0.63820  0.07730  0.89980  1.0000 -0.5821329499
O   O4        1.0  0.36180  0.92270  0.10020  1.0000 -0.5821329499
O   O5        1.0  0.35590  0.71550  0.00750  1.0000 -0.5688287163
O   O6        1.0  0.64410  0.28450  0.99250  1.0000 -0.5688287163
O   O7        1.0  0.84880  0.38530  0.90840  1.0000 -0.5897958521
O   O8        1.0  0.15120  0.61470  0.09160  1.0000 -0.5897958521
O   O9        1.0  0.25760  0.81460  0.35510  1.0000 -0.5897958521
O   O10       1.0  0.74240  0.18540  0.64490  1.0000 -0.5897958521
O   O11       1.0  0.10240  0.51140  0.91830  1.0000 -0.4595419014
O   O12       1.0  0.89760  0.48860  0.08170  1.0000 -0.4595419014
O   O13       1.0  0.06030  0.31180  0.75360  1.0000 -0.5821329499
O   O14       1.0  0.93970  0.68820  0.24640  1.0000 -0.5821329499
O   O15       1.0  0.00460  0.28810  0.94040  1.0000 -0.5619497368
O   O16       1.0  0.99540  0.71190  0.05960  1.0000 -0.5619497368
O   O17       1.0  0.52570  0.82090  0.04110  1.0000 -0.5436524296
O   O18       1.0  0.47430  0.17910  0.95890  1.0000 -0.5436524296
O   O19       1.0  0.90640  0.88460  0.17980  1.0000 -0.5619497368
O   O20       1.0  0.09360  0.11540  0.82020  1.0000 -0.5619497368
O   O21       1.0  0.40690  0.29250  0.80200  1.0000 -0.5493485574
O   O22       1.0  0.59310  0.70750  0.19800  1.0000 -0.5493485574
O   O23       1.0  0.83820  0.20860  0.98170  1.0000 -0.5190104389
O   O24       1.0  0.16180  0.79140  0.01830  1.0000 -0.5190104389
O   O25       1.0  0.37630  0.94080  0.92880  1.0000 -0.4719149017
O   O26       1.0  0.62370  0.05920  0.07120  1.0000 -0.4719149017
O   O27       1.0  0.44740  0.09010  0.75860  1.0000 -0.5619497368
O   O28       1.0  0.55260  0.90990  0.24140  1.0000 -0.5619497368
O   O29       1.0  0.18900  0.19590  0.64460  1.0000 -0.5493485574
O   O30       1.0  0.81100  0.80410  0.35540  1.0000 -0.5493485574
O   O31       1.0  0.27400  0.34870  0.84730  1.0000 -0.5619497368
O   O32       1.0  0.72600  0.65130  0.15270  1.0000 -0.5619497368
O   O33       1.0  0.77060  0.92110  0.14400  1.0000 -0.5493485574
O   O34       1.0  0.22940  0.07890  0.85600  1.0000 -0.5493485574
O   O35       1.0  0.26380  0.08060  0.64710  1.0000 -0.5688287163
O   O36       1.0  0.73620  0.91940  0.35290  1.0000 -0.5688287163
