# DDEC6 charges by PACMAN v1.1 (https://github.com/mtap-research/PACMAN-charge/)
data_2015[La][nan]3[ASR]5
_chemical_formula_sum              "La3 H36 C63 N3 O18"
_cell_length_a       14.67
_cell_length_b       14.67
_cell_length_c       14.67
_cell_angle_alpha    111.448
_cell_angle_beta     111.448
_cell_angle_gamma    111.448

_symmetry_space_group_name_H-M    "P 1"
_symmetry_Int_Tables_number       1

loop_
  _symmetry_equiv_pos_as_xyz
  'x, y, z'

loop_
  _atom_site_type_symbol
  _atom_site_label
  _atom_site_symmetry_multiplicity
  _atom_site_fract_x
  _atom_site_fract_y
  _atom_site_fract_z
  _atom_site_occupancy
  _atom_site_charge
La  La1       1.0  0.50000  0.81569  0.18430  1.0000 1.9156455124
La  La2       1.0  0.81569  0.18430  0.50000  1.0000 1.9156455124
La  La3       1.0  0.18430  0.50000  0.81569  1.0000 1.9156455124
H   H1        1.0  0.34390  0.83040  0.66550  1.0000 0.1305537459
H   H2        1.0  0.83040  0.66550  0.34390  1.0000 0.1305537459
H   H3        1.0  0.66550  0.34390  0.83040  1.0000 0.1305537459
H   H4        1.0  0.65610  0.33450  0.16960  1.0000 0.1305537459
H   H5        1.0  0.16960  0.65610  0.33450  1.0000 0.1305537459
H   H6        1.0  0.33450  0.16960  0.65610  1.0000 0.1305537459
H   H7        1.0  0.35730  0.75270  0.77750  1.0000 0.1305537459
H   H8        1.0  0.75270  0.77750  0.35730  1.0000 0.1305537459
H   H9        1.0  0.77750  0.35730  0.75270  1.0000 0.1305537459
H   H10       1.0  0.64270  0.22250  0.24730  1.0000 0.1305537459
H   H11       1.0  0.24730  0.64270  0.22250  1.0000 0.1305537459
H   H12       1.0  0.22250  0.24730  0.64270  1.0000 0.1305537459
H   H13       1.0  0.31560  0.06630  0.88420  1.0000 0.1225593735
H   H14       1.0  0.06630  0.88420  0.31560  1.0000 0.1225593735
H   H15       1.0  0.88420  0.31560  0.06630  1.0000 0.1225593735
H   H16       1.0  0.68440  0.11580  0.93370  1.0000 0.1225593735
H   H17       1.0  0.93370  0.68440  0.11580  1.0000 0.1225593735
H   H18       1.0  0.11580  0.93370  0.68440  1.0000 0.1225593735
H   H19       1.0  0.33440  0.98700  0.99990  1.0000 0.1225593735
H   H20       1.0  0.98700  0.99990  0.33440  1.0000 0.1225593735
H   H21       1.0  0.99990  0.33440  0.98700  1.0000 0.1225593735
H   H22       1.0  0.66560  0.00010  0.01300  1.0000 0.1225593735
H   H23       1.0  0.01300  0.66560  0.00010  1.0000 0.1225593735
H   H24       1.0  0.00010  0.01300  0.66560  1.0000 0.1225593735
H   H25       1.0  0.53130  0.08160  0.77440  1.0000 0.1225593735
H   H26       1.0  0.08160  0.77440  0.53130  1.0000 0.1225593735
H   H27       1.0  0.77440  0.53130  0.08160  1.0000 0.1225593735
H   H28       1.0  0.46870  0.22560  0.91840  1.0000 0.1225593735
H   H29       1.0  0.91840  0.46870  0.22560  1.0000 0.1225593735
H   H30       1.0  0.22560  0.91840  0.46870  1.0000 0.1225593735
H   H31       1.0  0.62690  0.08920  0.68290  1.0000 0.1225593735
H   H32       1.0  0.08920  0.68290  0.62690  1.0000 0.1225593735
H   H33       1.0  0.68290  0.62690  0.08920  1.0000 0.1225593735
H   H34       1.0  0.37310  0.31710  0.91080  1.0000 0.1225593735
H   H35       1.0  0.91080  0.37310  0.31710  1.0000 0.1225593735
H   H36       1.0  0.31710  0.91080  0.37310  1.0000 0.1225593735
C   C1        1.0  0.32360  0.95420  0.75820  1.0000 0.1912479722
C   C2        1.0  0.95420  0.75820  0.32360  1.0000 0.1912479722
C   C3        1.0  0.75820  0.32360  0.95420  1.0000 0.1912479722
C   C4        1.0  0.67640  0.24180  0.04580  1.0000 0.1912479722
C   C5        1.0  0.04580  0.67640  0.24180  1.0000 0.1912479722
C   C6        1.0  0.24180  0.04580  0.67640  1.0000 0.1912479722
C   C7        1.0  0.33940  0.86140  0.73020  1.0000 -0.1998598601
C   C8        1.0  0.86140  0.73020  0.33940  1.0000 -0.1998598601
C   C9        1.0  0.73020  0.33940  0.86140  1.0000 -0.1998598601
C   C10       1.0  0.66060  0.26980  0.13860  1.0000 -0.1998598601
C   C11       1.0  0.13860  0.66060  0.26980  1.0000 -0.1998598601
C   C12       1.0  0.26980  0.13860  0.66060  1.0000 -0.1998598601
C   C13       1.0  0.34840  0.81540  0.79900  1.0000 -0.0682224197
C   C14       1.0  0.81540  0.79900  0.34840  1.0000 -0.0682224197
C   C15       1.0  0.79900  0.34840  0.81540  1.0000 -0.0682224197
C   C16       1.0  0.65160  0.20100  0.18460  1.0000 -0.0682224197
C   C17       1.0  0.18460  0.65160  0.20100  1.0000 -0.0682224197
C   C18       1.0  0.20100  0.18460  0.65160  1.0000 -0.0682224197
C   C19       1.0  0.34490  0.85740  0.89340  1.0000 -0.0574591732
C   C20       1.0  0.85740  0.89340  0.34490  1.0000 -0.0574591732
C   C21       1.0  0.89340  0.34490  0.85740  1.0000 -0.0574591732
C   C22       1.0  0.65510  0.10660  0.14260  1.0000 -0.0574591732
C   C23       1.0  0.14260  0.65510  0.10660  1.0000 -0.0574591732
C   C24       1.0  0.10660  0.14260  0.65510  1.0000 -0.0574591732
C   C25       1.0  0.32310  0.00290  0.86180  1.0000 -0.2302740863
C   C26       1.0  0.00290  0.86180  0.32310  1.0000 -0.2302740863
C   C27       1.0  0.86180  0.32310  0.00290  1.0000 -0.2302740863
C   C28       1.0  0.67690  0.13820  0.99710  1.0000 -0.2302740863
C   C29       1.0  0.99710  0.67690  0.13820  1.0000 -0.2302740863
C   C30       1.0  0.13820  0.99710  0.67690  1.0000 -0.2302740863
C   C31       1.0  0.33420  0.95540  0.93210  1.0000 -0.0682224197
C   C32       1.0  0.95540  0.93210  0.33420  1.0000 -0.0682224197
C   C33       1.0  0.93210  0.33420  0.95540  1.0000 -0.0682224197
C   C34       1.0  0.66580  0.06790  0.04460  1.0000 -0.0682224197
C   C35       1.0  0.04460  0.66580  0.06790  1.0000 -0.0682224197
C   C36       1.0  0.06790  0.04460  0.66580  1.0000 -0.0682224197
C   C37       1.0  0.35800  0.81290  0.96980  1.0000 0.5933449491
C   C38       1.0  0.81290  0.96980  0.35800  1.0000 0.5933449491
C   C39       1.0  0.96980  0.35800  0.81290  1.0000 0.5933449491
C   C40       1.0  0.64200  0.03020  0.18710  1.0000 0.5933449491
C   C41       1.0  0.18710  0.64200  0.03020  1.0000 0.5933449491
C   C42       1.0  0.03020  0.18710  0.64200  1.0000 0.5933449491
C   C43       1.0  0.37050  0.00000  0.62950  1.0000 0.1476644301
C   C44       1.0  0.00000  0.62950  0.37050  1.0000 0.1476644301
C   C45       1.0  0.62950  0.37050  0.00000  1.0000 0.1476644301
C   C46       1.0  0.48850  0.04930  0.69290  1.0000 -0.1616861299
C   C47       1.0  0.04930  0.69290  0.48850  1.0000 -0.1616861299
C   C48       1.0  0.69290  0.48850  0.04930  1.0000 -0.1616861299
C   C49       1.0  0.51150  0.30710  0.95070  1.0000 -0.1616861299
C   C50       1.0  0.95070  0.51150  0.30710  1.0000 -0.1616861299
C   C51       1.0  0.30710  0.95070  0.51150  1.0000 -0.1616861299
C   C52       1.0  0.54440  0.05150  0.63750  1.0000 -0.089998372
C   C53       1.0  0.05150  0.63750  0.54440  1.0000 -0.089998372
C   C54       1.0  0.63750  0.54440  0.05150  1.0000 -0.089998372
C   C55       1.0  0.45560  0.36250  0.94850  1.0000 -0.089998372
C   C56       1.0  0.94850  0.45560  0.36250  1.0000 -0.089998372
C   C57       1.0  0.36250  0.94850  0.45560  1.0000 -0.089998372
C   C58       1.0  0.48390  0.00000  0.51610  1.0000 -0.0373666747
C   C59       1.0  0.00000  0.51610  0.48390  1.0000 -0.0373666747
C   C60       1.0  0.51610  0.48390  0.00000  1.0000 -0.0373666747
C   C61       1.0  0.54570  0.00000  0.45430  1.0000 0.6301144087
C   C62       1.0  0.00000  0.45430  0.54570  1.0000 0.6301144087
C   C63       1.0  0.45430  0.54570  0.00000  1.0000 0.6301144087
N   N1        1.0  0.31160  0.00000  0.68840  1.0000 -0.1699490672
N   N2        1.0  0.00000  0.68840  0.31160  1.0000 -0.1699490672
N   N3        1.0  0.68840  0.31160  0.00000  1.0000 -0.1699490672
O   O1        1.0  0.38030  0.87420  0.07370  1.0000 -0.5879669662
O   O2        1.0  0.87420  0.07370  0.38030  1.0000 -0.5879669662
O   O3        1.0  0.07370  0.38030  0.87420  1.0000 -0.5879669662
O   O4        1.0  0.61970  0.92630  0.12580  1.0000 -0.5879669662
O   O5        1.0  0.12580  0.61970  0.92630  1.0000 -0.5879669662
O   O6        1.0  0.92630  0.12580  0.61970  1.0000 -0.5879669662
O   O7        1.0  0.35440  0.71620  0.93060  1.0000 -0.6852656281
O   O8        1.0  0.71620  0.93060  0.35440  1.0000 -0.6852656281
O   O9        1.0  0.93060  0.35440  0.71620  1.0000 -0.6852656281
O   O10       1.0  0.64560  0.06940  0.28380  1.0000 -0.6852656281
O   O11       1.0  0.28380  0.64560  0.06940  1.0000 -0.6852656281
O   O12       1.0  0.06940  0.28380  0.64560  1.0000 -0.6852656281
O   O13       1.0  0.65790  0.07640  0.51620  1.0000 -0.6300371563
O   O14       1.0  0.07640  0.51620  0.65790  1.0000 -0.6300371563
O   O15       1.0  0.51620  0.65790  0.07640  1.0000 -0.6300371563
O   O16       1.0  0.34210  0.48380  0.92360  1.0000 -0.6300371563
O   O17       1.0  0.92360  0.34210  0.48380  1.0000 -0.6300371563
O   O18       1.0  0.48380  0.92360  0.34210  1.0000 -0.6300371563
