# DDEC6 charges by PACMAN v1.1 (https://github.com/mtap-research/PACMAN-charge/)
data_2015[Mg][nan]3[ASR]4
_chemical_formula_sum              "Mg4 H32 C52 N4 O20"
_cell_length_a       12.5669
_cell_length_b       12.5669
_cell_length_c       13.5539
_cell_angle_alpha    62.3522
_cell_angle_beta     117.648
_cell_angle_gamma    93.2666

_symmetry_space_group_name_H-M    "P 1"
_symmetry_Int_Tables_number       1

loop_
  _symmetry_equiv_pos_as_xyz
  'x, y, z'

loop_
  _atom_site_type_symbol
  _atom_site_label
  _atom_site_symmetry_multiplicity
  _atom_site_fract_x
  _atom_site_fract_y
  _atom_site_fract_z
  _atom_site_occupancy
  _atom_site_charge
Mg  Mg1       1.0  0.80532  0.80532  0.75000  1.0000 1.3595487456
Mg  Mg2       1.0  0.19468  0.19468  0.25000  1.0000 1.3595487456
Mg  Mg3       1.0  0.50000  0.00000  0.50000  1.0000 1.354146419
Mg  Mg4       1.0  0.00000  0.50000  0.00000  1.0000 1.354146419
H   H1        1.0  0.97570  0.04570  0.59700  1.0000 0.1316507849
H   H2        1.0  0.04570  0.97570  0.90300  1.0000 0.1316507849
H   H3        1.0  0.02430  0.95430  0.40300  1.0000 0.1316507849
H   H4        1.0  0.95430  0.02430  0.09700  1.0000 0.1316507849
H   H5        1.0  0.08760  0.15060  0.49680  1.0000 0.1191652994
H   H6        1.0  0.15060  0.08760  0.00320  1.0000 0.1191652994
H   H7        1.0  0.91240  0.84940  0.50320  1.0000 0.1191652994
H   H8        1.0  0.84940  0.91240  0.99680  1.0000 0.1191652994
H   H9        1.0  0.77150  0.35470  0.16820  1.0000 0.1032720859
H   H10       1.0  0.35470  0.77150  0.33180  1.0000 0.1032720859
H   H11       1.0  0.22850  0.64530  0.83180  1.0000 0.1032720859
H   H12       1.0  0.64530  0.22850  0.66820  1.0000 0.1032720859
H   H13       1.0  0.65910  0.24570  0.26630  1.0000 0.1112463231
H   H14       1.0  0.24570  0.65910  0.23370  1.0000 0.1112463231
H   H15       1.0  0.34090  0.75430  0.73370  1.0000 0.1112463231
H   H16       1.0  0.75430  0.34090  0.76630  1.0000 0.1112463231
H   H17       1.0  0.46450  0.69650  0.63910  1.0000 0.1381923239
H   H18       1.0  0.69650  0.46450  0.86090  1.0000 0.1381923239
H   H19       1.0  0.53550  0.30350  0.36090  1.0000 0.1381923239
H   H20       1.0  0.30350  0.53550  0.13910  1.0000 0.1381923239
H   H21       1.0  0.40920  0.53800  0.59440  1.0000 0.1316507849
H   H22       1.0  0.53800  0.40920  0.90560  1.0000 0.1316507849
H   H23       1.0  0.59080  0.46200  0.40560  1.0000 0.1316507849
H   H24       1.0  0.46200  0.59080  0.09440  1.0000 0.1316507849
H   H25       1.0  0.63740  0.59940  0.44730  1.0000 0.1316507849
H   H26       1.0  0.59940  0.63740  0.05270  1.0000 0.1316507849
H   H27       1.0  0.36260  0.40060  0.55270  1.0000 0.1316507849
H   H28       1.0  0.40060  0.36260  0.94730  1.0000 0.1316507849
H   H29       1.0  0.69070  0.75510  0.49820  1.0000 0.1506355162
H   H30       1.0  0.75510  0.69070  0.00180  1.0000 0.1506355162
H   H31       1.0  0.30930  0.24490  0.50180  1.0000 0.1506355162
H   H32       1.0  0.24490  0.30930  0.99820  1.0000 0.1506355162
C   C1        1.0  0.80627  0.13397  0.44082  1.0000 -0.0216047355
C   C2        1.0  0.13397  0.80627  0.05918  1.0000 -0.0216047355
C   C3        1.0  0.19373  0.86603  0.55918  1.0000 -0.0216047355
C   C4        1.0  0.86603  0.19373  0.94082  1.0000 -0.0216047355
C   C5        1.0  0.93383  0.10735  0.50920  1.0000 -0.0946791489
C   C6        1.0  0.10735  0.93383  0.99080  1.0000 -0.0946791489
C   C7        1.0  0.06617  0.89265  0.49080  1.0000 -0.0946791489
C   C8        1.0  0.89265  0.06617  0.00920  1.0000 -0.0946791489
C   C9        1.0  0.00047  0.17039  0.44970  1.0000 -0.0995331873
C   C10       1.0  0.17039  0.00047  0.05030  1.0000 -0.0995331873
C   C11       1.0  0.99953  0.82961  0.55030  1.0000 -0.0995331873
C   C12       1.0  0.82961  0.99953  0.94970  1.0000 -0.0995331873
C   C13       1.0  0.94053  0.26189  0.32204  1.0000 -0.0144093382
C   C14       1.0  0.26189  0.94053  0.17796  1.0000 -0.0144093382
C   C15       1.0  0.05947  0.73811  0.67796  1.0000 -0.0144093382
C   C16       1.0  0.73811  0.05947  0.82204  1.0000 -0.0144093382
C   C17       1.0  0.81329  0.29057  0.25490  1.0000 -0.1116189007
C   C18       1.0  0.29057  0.81329  0.24510  1.0000 -0.1116189007
C   C19       1.0  0.18671  0.70943  0.74510  1.0000 -0.1116189007
C   C20       1.0  0.70943  0.18671  0.75490  1.0000 -0.1116189007
C   C21       1.0  0.74617  0.22627  0.31360  1.0000 -0.1232812275
C   C22       1.0  0.22627  0.74617  0.18640  1.0000 -0.1232812275
C   C23       1.0  0.25383  0.77373  0.68640  1.0000 -0.1232812275
C   C24       1.0  0.77373  0.25383  0.81360  1.0000 -0.1232812275
C   C25       1.0  0.73612  0.05774  0.50502  1.0000 0.6227577012
C   C26       1.0  0.05774  0.73612  0.99498  1.0000 0.6227577012
C   C27       1.0  0.26388  0.94226  0.49498  1.0000 0.6227577012
C   C28       1.0  0.94226  0.26388  0.00502  1.0000 0.6227577012
C   C29       1.0  0.01261  0.32317  0.25444  1.0000 0.6283376197
C   C30       1.0  0.32317  0.01261  0.24556  1.0000 0.6283376197
C   C31       1.0  0.98739  0.67683  0.74556  1.0000 0.6283376197
C   C32       1.0  0.67683  0.98739  0.75444  1.0000 0.6283376197
C   C33       1.0  0.50119  0.67431  0.60200  1.0000 -0.0331754741
C   C34       1.0  0.67431  0.50119  0.89800  1.0000 -0.0331754741
C   C35       1.0  0.49881  0.32569  0.39800  1.0000 -0.0331754741
C   C36       1.0  0.32569  0.49881  0.10200  1.0000 -0.0331754741
C   C37       1.0  0.46725  0.58107  0.57420  1.0000 -0.1972171088
C   C38       1.0  0.58107  0.46725  0.92580  1.0000 -0.1972171088
C   C39       1.0  0.53275  0.41893  0.42580  1.0000 -0.1972171088
C   C40       1.0  0.41893  0.53275  0.07420  1.0000 -0.1972171088
C   C41       1.0  0.51793  0.54959  0.51618  1.0000 0.0946514494
C   C42       1.0  0.54959  0.51793  0.98382  1.0000 0.0946514494
C   C43       1.0  0.48207  0.45041  0.48382  1.0000 0.0946514494
C   C44       1.0  0.45041  0.48207  0.01618  1.0000 0.0946514494
C   C45       1.0  0.60192  0.61696  0.48800  1.0000 -0.1827583332
C   C46       1.0  0.61696  0.60192  0.01200  1.0000 -0.1827583332
C   C47       1.0  0.39808  0.38304  0.51200  1.0000 -0.1827583332
C   C48       1.0  0.38304  0.39808  0.98800  1.0000 -0.1827583332
C   C49       1.0  0.63414  0.70924  0.51870  1.0000 0.0011867352
C   C50       1.0  0.70924  0.63414  0.98130  1.0000 0.0011867352
C   C51       1.0  0.36586  0.29076  0.48130  1.0000 0.0011867352
C   C52       1.0  0.29076  0.36586  0.01870  1.0000 0.0011867352
N   N1        1.0  0.58559  0.73411  0.57736  1.0000 0.3365292828
N   N2        1.0  0.73411  0.58559  0.92264  1.0000 0.3365292828
N   N3        1.0  0.41441  0.26589  0.42264  1.0000 0.3365292828
N   N4        1.0  0.26589  0.41441  0.07736  1.0000 0.3365292828
O   O1        1.0  0.79928  0.97604  0.61975  1.0000 -0.6400237997
O   O2        1.0  0.97604  0.79928  0.88025  1.0000 -0.6400237997
O   O3        1.0  0.20072  0.02396  0.38025  1.0000 -0.6400237997
O   O4        1.0  0.02396  0.20072  0.11975  1.0000 -0.6400237997
O   O5        1.0  0.62068  0.08124  0.43785  1.0000 -0.6400237997
O   O6        1.0  0.08124  0.62068  0.06215  1.0000 -0.6400237997
O   O7        1.0  0.37932  0.91876  0.56215  1.0000 -0.6400237997
O   O8        1.0  0.91876  0.37932  0.93785  1.0000 -0.6400237997
O   O9        1.0  0.95663  0.41525  0.14458  1.0000 -0.6281045844
O   O10       1.0  0.41525  0.95663  0.35542  1.0000 -0.6281045844
O   O11       1.0  0.04337  0.58475  0.85542  1.0000 -0.6281045844
O   O12       1.0  0.58475  0.04337  0.64458  1.0000 -0.6281045844
O   O13       1.0  0.12472  0.27440  0.31414  1.0000 -0.6661258061
O   O14       1.0  0.27440  0.12472  0.18586  1.0000 -0.6661258061
O   O15       1.0  0.87528  0.72560  0.68586  1.0000 -0.6661258061
O   O16       1.0  0.72560  0.87528  0.81414  1.0000 -0.6661258061
O   O17       1.0  0.62053  0.82033  0.61084  1.0000 -0.6052188296
O   O18       1.0  0.82033  0.62053  0.88916  1.0000 -0.6052188296
O   O19       1.0  0.37947  0.17967  0.38916  1.0000 -0.6052188296
O   O20       1.0  0.17967  0.37947  0.11084  1.0000 -0.6052188296
