# DDEC6 charges by PACMAN v1.1 (https://github.com/mtap-research/PACMAN-charge/)
data_2015[Cd][pcu]3[ASR]1
_chemical_formula_sum              "Cd2 H52 C64 N8 O8"
_cell_length_a       10.312
_cell_length_b       13.919
_cell_length_c       14.174
_cell_angle_alpha    88.35
_cell_angle_beta     110.713
_cell_angle_gamma    105.273

_symmetry_space_group_name_H-M    "P 1"
_symmetry_Int_Tables_number       1

loop_
  _symmetry_equiv_pos_as_xyz
  'x, y, z'

loop_
  _atom_site_type_symbol
  _atom_site_label
  _atom_site_symmetry_multiplicity
  _atom_site_fract_x
  _atom_site_fract_y
  _atom_site_fract_z
  _atom_site_occupancy
  _atom_site_charge
Cd  Cd1       1.0  0.56096  0.55318  0.63386  1.0000 0.8734908917
Cd  Cd2       1.0  0.43904  0.44682  0.36614  1.0000 0.8734908917
H   H1        1.0  0.14110  0.54430  0.49930  1.0000 0.1462198117
H   H2        1.0  0.85890  0.45570  0.50070  1.0000 0.1462198117
H   H3        1.0  0.25910  0.64660  0.52390  1.0000 0.1397062558
H   H4        1.0  0.74090  0.35340  0.47610  1.0000 0.1397062558
H   H5        1.0  0.20560  0.78870  0.43330  1.0000 0.1207795438
H   H6        1.0  0.79440  0.21130  0.56670  1.0000 0.1207795438
H   H7        1.0  0.04340  0.86050  0.32110  1.0000 0.1112156638
H   H8        1.0  0.95660  0.13950  0.67890  1.0000 0.1112156638
H   H9        1.0  0.82200  0.76500  0.21790  1.0000 0.1112156638
H   H10       1.0  0.17800  0.23500  0.78210  1.0000 0.1112156638
H   H11       1.0  0.92910  0.52040  0.33650  1.0000 0.1297014807
H   H12       1.0  0.07090  0.47960  0.66350  1.0000 0.1297014807
H   H13       1.0  0.66010  0.60500  0.14810  1.0000 0.1397062558
H   H14       1.0  0.33990  0.39500  0.85190  1.0000 0.1397062558
H   H15       1.0  0.72330  0.51260  0.16510  1.0000 0.1462198117
H   H16       1.0  0.27670  0.48740  0.83490  1.0000 0.1462198117
H   H17       1.0  0.61700  0.67820  0.44470  1.0000 0.1297014807
H   H18       1.0  0.38300  0.32180  0.55530  1.0000 0.1297014807
H   H19       1.0  0.49880  0.76720  0.72120  1.0000 0.1397062558
H   H20       1.0  0.50120  0.23280  0.27880  1.0000 0.1397062558
H   H21       1.0  0.53310  0.93360  0.76380  1.0000 0.1112156638
H   H22       1.0  0.46690  0.06640  0.23620  1.0000 0.1112156638
H   H23       1.0  0.62790  0.05790  0.67850  1.0000 0.1112156638
H   H24       1.0  0.37210  0.94210  0.32150  1.0000 0.1112156638
H   H25       1.0  0.68440  0.02220  0.54170  1.0000 0.1207795438
H   H26       1.0  0.31560  0.97780  0.45830  1.0000 0.1207795438
H   H27       1.0  0.64890  0.91330  0.36140  1.0000 0.1207795438
H   H28       1.0  0.35110  0.08670  0.63860  1.0000 0.1207795438
H   H29       1.0  0.71030  0.82230  0.35730  1.0000 0.1397062558
H   H30       1.0  0.28970  0.17770  0.64270  1.0000 0.1397062558
H   H31       1.0  0.92540  0.85330  0.56720  1.0000 0.1207795438
H   H32       1.0  0.07460  0.14670  0.43280  1.0000 0.1207795438
H   H33       1.0  0.84220  0.04720  0.35960  1.0000 0.1207795438
H   H34       1.0  0.15780  0.95280  0.64040  1.0000 0.1207795438
H   H35       1.0  0.71220  0.66340  0.87180  1.0000 0.1207795438
H   H36       1.0  0.28780  0.33660  0.12820  1.0000 0.1207795438
H   H37       1.0  0.90240  0.63940  0.61440  1.0000 0.1297014807
H   H38       1.0  0.09760  0.36060  0.38560  1.0000 0.1297014807
H   H39       1.0  0.14320  0.71290  0.64400  1.0000 0.1112156638
H   H40       1.0  0.85680  0.28710  0.35600  1.0000 0.1112156638
H   H41       1.0  0.29350  0.80370  0.79410  1.0000 0.1207795438
H   H42       1.0  0.70650  0.19630  0.20590  1.0000 0.1207795438
H   H43       1.0  0.20790  0.82290  0.92140  1.0000 0.1297014807
H   H44       1.0  0.79210  0.17710  0.07860  1.0000 0.1297014807
H   H45       1.0  0.06090  0.77470  0.04490  1.0000 0.1297014807
H   H46       1.0  0.93910  0.22530  0.95510  1.0000 0.1297014807
H   H47       1.0  0.89960  0.75630  0.03460  1.0000 0.1297014807
H   H48       1.0  0.10040  0.24370  0.96540  1.0000 0.1297014807
H   H49       1.0  0.86940  0.90130  0.85190  1.0000 0.1207795438
H   H50       1.0  0.13060  0.09870  0.14810  1.0000 0.1207795438
H   H51       1.0  0.11330  0.93070  0.14480  1.0000 0.1207795438
H   H52       1.0  0.88670  0.06930  0.85520  1.0000 0.1207795438
C   C1        1.0  0.27890  0.55450  0.42340  1.0000 0.6189497628
C   C2        1.0  0.72110  0.44550  0.57660  1.0000 0.6189497628
C   C3        1.0  0.19260  0.59750  0.46950  1.0000 -0.4118067405
C   C4        1.0  0.80740  0.40250  0.53050  1.0000 -0.4118067405
C   C5        1.0  0.08550  0.64600  0.39760  1.0000 0.1778745868
C   C6        1.0  0.91450  0.35400  0.60240  1.0000 0.1778745868
C   C7        1.0  0.11710  0.74850  0.39140  1.0000 -0.1890743306
C   C8        1.0  0.88290  0.25150  0.60860  1.0000 -0.1890743306
C   C9        1.0  0.01960  0.79160  0.32440  1.0000 -0.1001851789
C   C10       1.0  0.98040  0.20840  0.67560  1.0000 -0.1001851789
C   C11       1.0  0.88770  0.73460  0.26210  1.0000 -0.1890743306
C   C12       1.0  0.11230  0.26540  0.73790  1.0000 -0.1890743306
C   C13       1.0  0.85220  0.63100  0.26530  1.0000 0.1628003635
C   C14       1.0  0.14780  0.36900  0.73470  1.0000 0.1628003635
C   C15       1.0  0.95220  0.58940  0.33350  1.0000 -0.2185246131
C   C16       1.0  0.04780  0.41060  0.66650  1.0000 -0.2185246131
C   C17       1.0  0.70790  0.56550  0.19940  1.0000 -0.3936176679
C   C18       1.0  0.29210  0.43450  0.80060  1.0000 -0.3936176679
C   C19       1.0  0.60980  0.51910  0.25520  1.0000 0.6189497628
C   C20       1.0  0.39020  0.48090  0.74480  1.0000 0.6189497628
C   C21       1.0  0.61040  0.72580  0.48620  1.0000 0.1397062558
C   C22       1.0  0.38960  0.27420  0.51380  1.0000 0.1397062558
C   C23       1.0  0.57070  0.79500  0.60370  1.0000 0.1297014807
C   C24       1.0  0.42930  0.20500  0.39630  1.0000 0.1297014807
C   C25       1.0  0.53540  0.81730  0.68520  1.0000 -0.1780218265
C   C26       1.0  0.46460  0.18270  0.31480  1.0000 -0.1780218265
C   C27       1.0  0.55690  0.91650  0.71030  1.0000 -0.1209331174
C   C28       1.0  0.44310  0.08350  0.28970  1.0000 -0.1209331174
C   C29       1.0  0.61310  0.99180  0.65800  1.0000 -0.1209331174
C   C30       1.0  0.38690  0.00820  0.34200  1.0000 -0.1209331174
C   C31       1.0  0.64740  0.97160  0.57710  1.0000 -0.1780218265
C   C32       1.0  0.35260  0.02840  0.42290  1.0000 -0.1780218265
C   C33       1.0  0.62380  0.87110  0.55060  1.0000 0.0733345815
C   C34       1.0  0.37620  0.12890  0.44940  1.0000 0.0733345815
C   C35       1.0  0.70890  0.87300  0.40210  1.0000 -0.15592181
C   C36       1.0  0.29110  0.12700  0.59790  1.0000 -0.15592181
C   C37       1.0  0.95500  0.91240  0.53900  1.0000 -0.1502348439
C   C38       1.0  0.04500  0.08760  0.46100  1.0000 -0.1502348439
C   C39       1.0  0.86080  0.93880  0.45360  1.0000 0.0908938007
C   C40       1.0  0.13920  0.06120  0.54640  1.0000 0.0908938007
C   C41       1.0  0.90580  0.02700  0.41620  1.0000 -0.15592181
C   C42       1.0  0.09420  0.97300  0.58380  1.0000 -0.15592181
C   C43       1.0  0.78800  0.67800  0.84790  1.0000 0.1207795438
C   C44       1.0  0.21200  0.32200  0.15210  1.0000 0.1207795438
C   C45       1.0  0.91220  0.68420  0.75310  1.0000 0.1397062558
C   C46       1.0  0.08780  0.31580  0.24690  1.0000 0.1397062558
C   C47       1.0  0.96300  0.67460  0.67570  1.0000 -0.1717406257
C   C48       1.0  0.03700  0.32540  0.32430  1.0000 -0.1717406257
C   C49       1.0  0.10610  0.71930  0.69380  1.0000 -0.1209331174
C   C50       1.0  0.89390  0.28070  0.30620  1.0000 -0.1209331174
C   C51       1.0  0.19740  0.77430  0.78490  1.0000 -0.1110086149
C   C52       1.0  0.80260  0.22570  0.21510  1.0000 -0.1110086149
C   C53       1.0  0.14800  0.78580  0.86100  1.0000 -0.1780218265
C   C54       1.0  0.85200  0.21420  0.13900  1.0000 -0.1780218265
C   C55       1.0  0.00490  0.73950  0.84310  1.0000 0.0733345815
C   C56       1.0  0.99510  0.26050  0.15690  1.0000 0.0733345815
C   C57       1.0  0.96920  0.78540  0.00300  1.0000 -0.1717406257
C   C58       1.0  0.03080  0.21460  0.99700  1.0000 -0.1717406257
C   C59       1.0  0.92130  0.94070  0.91210  1.0000 -0.1502348439
C   C60       1.0  0.07870  0.05930  0.08790  1.0000 -0.1502348439
C   C61       1.0  0.98490  0.89760  0.99890  1.0000 0.0908938007
C   C62       1.0  0.01510  0.10240  0.00110  1.0000 0.0908938007
C   C63       1.0  0.06630  0.95830  0.08630  1.0000 -0.1502348439
C   C64       1.0  0.93370  0.04170  0.91370  1.0000 -0.1502348439
N   N1        1.0  0.56480  0.70350  0.56180  1.0000 -0.3595400832
N   N2        1.0  0.43520  0.29650  0.43820  1.0000 -0.3595400832
N   N3        1.0  0.64670  0.82480  0.47500  1.0000 -0.015463676
N   N4        1.0  0.35330  0.17520  0.52500  1.0000 -0.015463676
N   N5        1.0  0.77520  0.64620  0.75800  1.0000 -0.3445849798
N   N6        1.0  0.22480  0.35380  0.24200  1.0000 -0.3445849798
N   N7        1.0  0.92250  0.73430  0.90290  1.0000 -0.0264004829
N   N8        1.0  0.07750  0.26570  0.09710  1.0000 -0.0264004829
O   O1        1.0  0.55410  0.42670  0.24560  1.0000 -0.5874705694
O   O2        1.0  0.44590  0.57330  0.75440  1.0000 -0.5874705694
O   O3        1.0  0.34750  0.49580  0.47730  1.0000 -0.6033036492
O   O4        1.0  0.65250  0.50420  0.52270  1.0000 -0.6033036492
O   O5        1.0  0.28220  0.57570  0.33940  1.0000 -0.5095918558
O   O6        1.0  0.71780  0.42430  0.66060  1.0000 -0.5095918558
O   O7        1.0  0.58220  0.57360  0.30870  1.0000 -0.5204424045
O   O8        1.0  0.41780  0.42640  0.69130  1.0000 -0.5204424045
