# DDEC6 charges by PACMAN v1.1 (https://github.com/mtap-research/PACMAN-charge/)
data_2015[Cu][nbo]3[ASR]3
_chemical_formula_sum              "Cu6 H36 C78 O24"
_cell_length_a       17.0792
_cell_length_b       17.0792
_cell_length_c       17.0792
_cell_angle_alpha    65.2988
_cell_angle_beta     65.2988
_cell_angle_gamma    65.2988

_symmetry_space_group_name_H-M    "P 1"
_symmetry_Int_Tables_number       1

loop_
  _symmetry_equiv_pos_as_xyz
  'x, y, z'

loop_
  _atom_site_type_symbol
  _atom_site_label
  _atom_site_symmetry_multiplicity
  _atom_site_fract_x
  _atom_site_fract_y
  _atom_site_fract_z
  _atom_site_occupancy
  _atom_site_charge
Cu  Cu1       1.0  0.50226  0.07548  0.50226  1.0000 0.8635755986
Cu  Cu2       1.0  0.07548  0.50227  0.50226  1.0000 0.8635755986
Cu  Cu3       1.0  0.50226  0.50226  0.07548  1.0000 0.8635755986
Cu  Cu4       1.0  0.49773  0.49774  0.92452  1.0000 0.8635755986
Cu  Cu5       1.0  0.92452  0.49774  0.49774  1.0000 0.8635755986
Cu  Cu6       1.0  0.49773  0.92452  0.49774  1.0000 0.8635755986
H   H1        1.0  0.79120  0.00820  0.45170  1.0000 0.1323739002
H   H2        1.0  0.00820  0.45170  0.79120  1.0000 0.1323739002
H   H3        1.0  0.45170  0.79120  0.00820  1.0000 0.1323739002
H   H4        1.0  0.20880  0.54830  0.99180  1.0000 0.1323739002
H   H5        1.0  0.99180  0.20880  0.54830  1.0000 0.1323739002
H   H6        1.0  0.54830  0.99180  0.20880  1.0000 0.1323739002
H   H7        1.0  0.20880  0.99180  0.54830  1.0000 0.1323739002
H   H8        1.0  0.99180  0.54830  0.20880  1.0000 0.1323739002
H   H9        1.0  0.54830  0.20880  0.99180  1.0000 0.1323739002
H   H10       1.0  0.79120  0.45170  0.00820  1.0000 0.1323739002
H   H11       1.0  0.00820  0.79120  0.45170  1.0000 0.1323739002
H   H12       1.0  0.45170  0.00820  0.79120  1.0000 0.1323739002
H   H13       1.0  0.00090  0.00090  0.30030  1.0000 0.1203516793
H   H14       1.0  0.00090  0.30030  0.00090  1.0000 0.1203516793
H   H15       1.0  0.30030  0.00090  0.00090  1.0000 0.1203516793
H   H16       1.0  0.99910  0.69970  0.99910  1.0000 0.1203516793
H   H17       1.0  0.99910  0.99910  0.69970  1.0000 0.1203516793
H   H18       1.0  0.69970  0.99910  0.99910  1.0000 0.1203516793
H   H19       1.0  0.08910  0.08910  0.27840  1.0000 0.1113194584
H   H20       1.0  0.08910  0.27840  0.08910  1.0000 0.1113194584
H   H21       1.0  0.27840  0.08910  0.08910  1.0000 0.1113194584
H   H22       1.0  0.91090  0.72160  0.91090  1.0000 0.1113194584
H   H23       1.0  0.91090  0.91090  0.72160  1.0000 0.1113194584
H   H24       1.0  0.72160  0.91090  0.91090  1.0000 0.1113194584
H   H25       1.0  0.77290  0.77290  0.47490  1.0000 0.1406775921
H   H26       1.0  0.77290  0.47490  0.77290  1.0000 0.1406775921
H   H27       1.0  0.47490  0.77290  0.77290  1.0000 0.1406775921
H   H28       1.0  0.22710  0.52510  0.22710  1.0000 0.1406775921
H   H29       1.0  0.22710  0.22710  0.52510  1.0000 0.1406775921
H   H30       1.0  0.52510  0.22710  0.22710  1.0000 0.1406775921
H   H31       1.0  0.89695  0.89695  0.60270  1.0000 0.1203516793
H   H32       1.0  0.89695  0.60270  0.89695  1.0000 0.1203516793
H   H33       1.0  0.60270  0.89695  0.89695  1.0000 0.1203516793
H   H34       1.0  0.10305  0.39730  0.10305  1.0000 0.1203516793
H   H35       1.0  0.10305  0.10305  0.39730  1.0000 0.1203516793
H   H36       1.0  0.39730  0.10305  0.10305  1.0000 0.1203516793
C   C1        1.0  0.97425  0.97425  0.50570  1.0000 0.0366670884
C   C2        1.0  0.97425  0.50570  0.97425  1.0000 0.0366670884
C   C3        1.0  0.50570  0.97425  0.97425  1.0000 0.0366670884
C   C4        1.0  0.02575  0.49430  0.02575  1.0000 0.0293679546
C   C5        1.0  0.02575  0.02575  0.49430  1.0000 0.0293679546
C   C6        1.0  0.49430  0.02575  0.02575  1.0000 0.0293679546
C   C7        1.0  0.96485  0.96485  0.43510  1.0000 0.0293679546
C   C8        1.0  0.96485  0.43510  0.96485  1.0000 0.0293679546
C   C9        1.0  0.43510  0.96485  0.96485  1.0000 0.0293679546
C   C10       1.0  0.03515  0.56490  0.03515  1.0000 0.0248323179
C   C11       1.0  0.03515  0.03515  0.56490  1.0000 0.0248323179
C   C12       1.0  0.56490  0.03515  0.03515  1.0000 0.0293679546
C   C13       1.0  0.81818  0.94778  0.45358  1.0000 -0.1397933976
C   C14       1.0  0.94778  0.45358  0.81818  1.0000 -0.1397933976
C   C15       1.0  0.45358  0.81818  0.94778  1.0000 -0.1397933976
C   C16       1.0  0.18182  0.54642  0.05222  1.0000 -0.1397933976
C   C17       1.0  0.05222  0.18182  0.54642  1.0000 -0.1397933976
C   C18       1.0  0.54642  0.05222  0.18182  1.0000 -0.1397933976
C   C19       1.0  0.18182  0.05222  0.54642  1.0000 -0.1397933976
C   C20       1.0  0.05222  0.54642  0.18182  1.0000 -0.1397933976
C   C21       1.0  0.54642  0.18182  0.05222  1.0000 -0.1397933976
C   C22       1.0  0.81818  0.45358  0.94778  1.0000 -0.1397933976
C   C23       1.0  0.94778  0.81818  0.45358  1.0000 -0.1397933976
C   C24       1.0  0.45358  0.94778  0.81818  1.0000 -0.1397933976
C   C25       1.0  0.00655  0.00655  0.34930  1.0000 -0.157937275
C   C26       1.0  0.00655  0.34930  0.00655  1.0000 -0.157937275
C   C27       1.0  0.34930  0.00655  0.00655  1.0000 -0.157937275
C   C28       1.0  0.99345  0.65070  0.99345  1.0000 -0.157937275
C   C29       1.0  0.99345  0.99345  0.65070  1.0000 -0.157937275
C   C30       1.0  0.65070  0.99345  0.99345  1.0000 -0.157937275
C   C31       1.0  0.05985  0.05985  0.33660  1.0000 -0.1004952332
C   C32       1.0  0.05985  0.33660  0.05985  1.0000 -0.1004952332
C   C33       1.0  0.33660  0.05985  0.05985  1.0000 -0.1004952332
C   C34       1.0  0.94015  0.66340  0.94015  1.0000 -0.1004952332
C   C35       1.0  0.94015  0.94015  0.66340  1.0000 -0.1004952332
C   C36       1.0  0.66340  0.94015  0.94015  1.0000 -0.1004952332
C   C37       1.0  0.80696  0.80696  0.46831  1.0000 -0.0940707863
C   C38       1.0  0.80696  0.46831  0.80696  1.0000 -0.0940707863
C   C39       1.0  0.46831  0.80696  0.80696  1.0000 -0.0940707863
C   C40       1.0  0.19304  0.53169  0.19304  1.0000 -0.0940707863
C   C41       1.0  0.19304  0.19304  0.53169  1.0000 -0.0940707863
C   C42       1.0  0.53169  0.19304  0.19304  1.0000 -0.0940707863
C   C43       1.0  0.76583  0.89723  0.46363  1.0000 -0.0372679034
C   C44       1.0  0.89723  0.46363  0.76583  1.0000 -0.0372679034
C   C45       1.0  0.46363  0.76583  0.89723  1.0000 -0.0372679034
C   C46       1.0  0.23417  0.53637  0.10277  1.0000 -0.0372679034
C   C47       1.0  0.10277  0.23417  0.53637  1.0000 -0.0372679034
C   C48       1.0  0.53637  0.10277  0.23417  1.0000 -0.0372679034
C   C49       1.0  0.23417  0.10277  0.53637  1.0000 -0.0372679034
C   C50       1.0  0.10277  0.53637  0.23417  1.0000 -0.0372679034
C   C51       1.0  0.53637  0.23417  0.10277  1.0000 -0.0372679034
C   C52       1.0  0.76583  0.46363  0.89723  1.0000 -0.0372679034
C   C53       1.0  0.89723  0.76583  0.46363  1.0000 -0.0372679034
C   C54       1.0  0.46363  0.89723  0.76583  1.0000 -0.0372679034
C   C55       1.0  0.93175  0.93175  0.59280  1.0000 -0.157937275
C   C56       1.0  0.93175  0.59280  0.93175  1.0000 -0.157937275
C   C57       1.0  0.59280  0.93175  0.93175  1.0000 -0.157937275
C   C58       1.0  0.06825  0.40720  0.06825  1.0000 -0.157937275
C   C59       1.0  0.06825  0.06825  0.40720  1.0000 -0.157937275
C   C60       1.0  0.40720  0.06825  0.06825  1.0000 -0.157937275
C   C61       1.0  0.90910  0.90910  0.44640  1.0000 0.061852818
C   C62       1.0  0.90910  0.44640  0.90910  1.0000 0.061852818
C   C63       1.0  0.44640  0.90910  0.90910  1.0000 0.061852818
C   C64       1.0  0.09090  0.55360  0.09090  1.0000 0.061852818
C   C65       1.0  0.09090  0.09090  0.55360  1.0000 0.061852818
C   C66       1.0  0.55360  0.09090  0.09090  1.0000 0.061852818
C   C67       1.0  0.66756  0.93656  0.47646  1.0000 0.5815742224
C   C68       1.0  0.93656  0.47646  0.66756  1.0000 0.5815742224
C   C69       1.0  0.47646  0.66756  0.93656  1.0000 0.5815742224
C   C70       1.0  0.33244  0.52354  0.06344  1.0000 0.5815742224
C   C71       1.0  0.06344  0.33244  0.52354  1.0000 0.5815742224
C   C72       1.0  0.52354  0.06344  0.33244  1.0000 0.5815742224
C   C73       1.0  0.33244  0.06344  0.52354  1.0000 0.5815742224
C   C74       1.0  0.06344  0.52354  0.33244  1.0000 0.5815742224
C   C75       1.0  0.52354  0.33244  0.06344  1.0000 0.5815742224
C   C76       1.0  0.66756  0.47646  0.93656  1.0000 0.5815742224
C   C77       1.0  0.93656  0.66756  0.47646  1.0000 0.5815742224
C   C78       1.0  0.47646  0.93656  0.66756  1.0000 0.5815742224
O   O1        1.0  0.63185  0.01545  0.48185  1.0000 -0.5105838741
O   O2        1.0  0.01545  0.48185  0.63185  1.0000 -0.5105838741
O   O3        1.0  0.48185  0.63185  0.01545  1.0000 -0.5105838741
O   O4        1.0  0.36815  0.51815  0.98455  1.0000 -0.5105838741
O   O5        1.0  0.98455  0.36815  0.51815  1.0000 -0.5105838741
O   O6        1.0  0.51815  0.98455  0.36815  1.0000 -0.5105838741
O   O7        1.0  0.36815  0.98455  0.51815  1.0000 -0.5105838741
O   O8        1.0  0.98455  0.51815  0.36815  1.0000 -0.5105838741
O   O9        1.0  0.51815  0.36815  0.98455  1.0000 -0.5105838741
O   O10       1.0  0.63185  0.48185  0.01545  1.0000 -0.5105838741
O   O11       1.0  0.01545  0.63185  0.48185  1.0000 -0.5105838741
O   O12       1.0  0.48185  0.01545  0.63185  1.0000 -0.5105838741
O   O13       1.0  0.62657  0.88957  0.47807  1.0000 -0.5105838741
O   O14       1.0  0.88957  0.47807  0.62657  1.0000 -0.5105838741
O   O15       1.0  0.47807  0.62657  0.88957  1.0000 -0.5105838741
O   O16       1.0  0.37343  0.52193  0.11043  1.0000 -0.5105838741
O   O17       1.0  0.11043  0.37343  0.52193  1.0000 -0.5105838741
O   O18       1.0  0.52193  0.11043  0.37343  1.0000 -0.5105838741
O   O19       1.0  0.37343  0.11043  0.52193  1.0000 -0.5105838741
O   O20       1.0  0.11043  0.52193  0.37343  1.0000 -0.5105838741
O   O21       1.0  0.52193  0.37343  0.11043  1.0000 -0.5105838741
O   O22       1.0  0.62657  0.47807  0.88957  1.0000 -0.5105838741
O   O23       1.0  0.88957  0.62657  0.47807  1.0000 -0.5105838741
O   O24       1.0  0.47807  0.88957  0.62657  1.0000 -0.5105838741
