# DDEC6 charges by PACMAN v1.1 (https://github.com/mtap-research/PACMAN-charge/)
data_2015[La][nan]3[ASR]6
_chemical_formula_sum              "La3 H36 C63 N3 O18"
_cell_length_a       14.6702
_cell_length_b       14.6702
_cell_length_c       14.6702
_cell_angle_alpha    111.395
_cell_angle_beta     111.395
_cell_angle_gamma    111.395

_symmetry_space_group_name_H-M    "P 1"
_symmetry_Int_Tables_number       1

loop_
  _symmetry_equiv_pos_as_xyz
  'x, y, z'

loop_
  _atom_site_type_symbol
  _atom_site_label
  _atom_site_symmetry_multiplicity
  _atom_site_fract_x
  _atom_site_fract_y
  _atom_site_fract_z
  _atom_site_occupancy
  _atom_site_charge
La  La1       1.0  0.50000  0.81737  0.18263  1.0000 1.9020710869
La  La2       1.0  0.81737  0.18263  0.50000  1.0000 1.9020710869
La  La3       1.0  0.18263  0.50000  0.81737  1.0000 1.9020710869
H   H1        1.0  0.33790  0.82710  0.66070  1.0000 0.1276418774
H   H2        1.0  0.82710  0.66070  0.33790  1.0000 0.1276418774
H   H3        1.0  0.66070  0.33790  0.82710  1.0000 0.1276418774
H   H4        1.0  0.66210  0.33930  0.17290  1.0000 0.1276418774
H   H5        1.0  0.17290  0.66210  0.33930  1.0000 0.1276418774
H   H6        1.0  0.33930  0.17290  0.66210  1.0000 0.1276418774
H   H7        1.0  0.35390  0.74870  0.77290  1.0000 0.1276418774
H   H8        1.0  0.74870  0.77290  0.35390  1.0000 0.1276418774
H   H9        1.0  0.77290  0.35390  0.74870  1.0000 0.1276418774
H   H10       1.0  0.64610  0.22710  0.25130  1.0000 0.1276418774
H   H11       1.0  0.25130  0.64610  0.22710  1.0000 0.1276418774
H   H12       1.0  0.22710  0.25130  0.64610  1.0000 0.1276418774
H   H13       1.0  0.33150  0.98620  0.99400  1.0000 0.1276418774
H   H14       1.0  0.98620  0.99400  0.33150  1.0000 0.1276418774
H   H15       1.0  0.99400  0.33150  0.98620  1.0000 0.1276418774
H   H16       1.0  0.66850  0.00600  0.01380  1.0000 0.1276418774
H   H17       1.0  0.01380  0.66850  0.00600  1.0000 0.1276418774
H   H18       1.0  0.00600  0.01380  0.66850  1.0000 0.1276418774
H   H19       1.0  0.31540  0.06460  0.88190  1.0000 0.120650318
H   H20       1.0  0.06460  0.88190  0.31540  1.0000 0.120650318
H   H21       1.0  0.88190  0.31540  0.06460  1.0000 0.120650318
H   H22       1.0  0.68460  0.11810  0.93540  1.0000 0.120650318
H   H23       1.0  0.93540  0.68460  0.11810  1.0000 0.120650318
H   H24       1.0  0.11810  0.93540  0.68460  1.0000 0.120650318
H   H25       1.0  0.53410  0.08300  0.77320  1.0000 0.120650318
H   H26       1.0  0.08300  0.77320  0.53410  1.0000 0.120650318
H   H27       1.0  0.77320  0.53410  0.08300  1.0000 0.120650318
H   H28       1.0  0.46590  0.22680  0.91700  1.0000 0.120650318
H   H29       1.0  0.91700  0.46590  0.22680  1.0000 0.120650318
H   H30       1.0  0.22680  0.91700  0.46590  1.0000 0.120650318
H   H31       1.0  0.62800  0.08380  0.67880  1.0000 0.120650318
H   H32       1.0  0.08380  0.67880  0.62800  1.0000 0.120650318
H   H33       1.0  0.67880  0.62800  0.08380  1.0000 0.120650318
H   H34       1.0  0.37200  0.32120  0.91620  1.0000 0.120650318
H   H35       1.0  0.91620  0.37200  0.32120  1.0000 0.120650318
H   H36       1.0  0.32120  0.91620  0.37200  1.0000 0.120650318
C   C1        1.0  0.32490  0.95360  0.76020  1.0000 0.1785776698
C   C2        1.0  0.95360  0.76020  0.32490  1.0000 0.1785776698
C   C3        1.0  0.76020  0.32490  0.95360  1.0000 0.1785776698
C   C4        1.0  0.67510  0.23980  0.04640  1.0000 0.1785776698
C   C5        1.0  0.04640  0.67510  0.23980  1.0000 0.1785776698
C   C6        1.0  0.23980  0.04640  0.67510  1.0000 0.1785776698
C   C7        1.0  0.33660  0.85900  0.72760  1.0000 -0.1958623495
C   C8        1.0  0.85900  0.72760  0.33660  1.0000 -0.1958623495
C   C9        1.0  0.72760  0.33660  0.85900  1.0000 -0.1958623495
C   C10       1.0  0.66340  0.27240  0.14100  1.0000 -0.1958623495
C   C11       1.0  0.14100  0.66340  0.27240  1.0000 -0.1958623495
C   C12       1.0  0.27240  0.14100  0.66340  1.0000 -0.1958623495
C   C13       1.0  0.34620  0.81200  0.79470  1.0000 -0.072642395
C   C14       1.0  0.81200  0.79470  0.34620  1.0000 -0.072642395
C   C15       1.0  0.79470  0.34620  0.81200  1.0000 -0.072642395
C   C16       1.0  0.65380  0.20530  0.18800  1.0000 -0.072642395
C   C17       1.0  0.18800  0.65380  0.20530  1.0000 -0.072642395
C   C18       1.0  0.20530  0.18800  0.65380  1.0000 -0.072642395
C   C19       1.0  0.34440  0.85970  0.89460  1.0000 -0.0498283018
C   C20       1.0  0.85970  0.89460  0.34440  1.0000 -0.0498283018
C   C21       1.0  0.89460  0.34440  0.85970  1.0000 -0.0498283018
C   C22       1.0  0.65560  0.10540  0.14030  1.0000 -0.0498283018
C   C23       1.0  0.14030  0.65560  0.10540  1.0000 -0.0498283018
C   C24       1.0  0.10540  0.14030  0.65560  1.0000 -0.0498283018
C   C25       1.0  0.33270  0.95430  0.92720  1.0000 -0.072642395
C   C26       1.0  0.95430  0.92720  0.33270  1.0000 -0.072642395
C   C27       1.0  0.92720  0.33270  0.95430  1.0000 -0.072642395
C   C28       1.0  0.66730  0.07280  0.04570  1.0000 -0.072642395
C   C29       1.0  0.04570  0.66730  0.07280  1.0000 -0.072642395
C   C30       1.0  0.07280  0.04570  0.66730  1.0000 -0.072642395
C   C31       1.0  0.32310  0.00130  0.86010  1.0000 -0.2082400388
C   C32       1.0  0.00130  0.86010  0.32310  1.0000 -0.2082400388
C   C33       1.0  0.86010  0.32310  0.00130  1.0000 -0.2082400388
C   C34       1.0  0.67690  0.13990  0.99870  1.0000 -0.2082400388
C   C35       1.0  0.99870  0.67690  0.13990  1.0000 -0.2082400388
C   C36       1.0  0.13990  0.99870  0.67690  1.0000 -0.2082400388
C   C37       1.0  0.35620  0.81310  0.96900  1.0000 0.5799950842
C   C38       1.0  0.81310  0.96900  0.35620  1.0000 0.5799950842
C   C39       1.0  0.96900  0.35620  0.81310  1.0000 0.5799950842
C   C40       1.0  0.64380  0.03100  0.18690  1.0000 0.5799950842
C   C41       1.0  0.18690  0.64380  0.03100  1.0000 0.5799950842
C   C42       1.0  0.03100  0.18690  0.64380  1.0000 0.5799950842
C   C43       1.0  0.37150  0.00000  0.62850  1.0000 0.1597531471
C   C44       1.0  1.00000  0.62850  0.37150  1.0000 0.1597531471
C   C45       1.0  0.62850  0.37150  0.00000  1.0000 0.1597531471
C   C46       1.0  0.49080  0.04940  0.69170  1.0000 -0.1663799898
C   C47       1.0  0.04940  0.69170  0.49080  1.0000 -0.1663799898
C   C48       1.0  0.69170  0.49080  0.04940  1.0000 -0.1663799898
C   C49       1.0  0.50920  0.30830  0.95060  1.0000 -0.1663799898
C   C50       1.0  0.95060  0.50920  0.30830  1.0000 -0.1663799898
C   C51       1.0  0.30830  0.95060  0.50920  1.0000 -0.1663799898
C   C52       1.0  0.54620  0.04950  0.63530  1.0000 -0.0885871354
C   C53       1.0  0.04950  0.63530  0.54620  1.0000 -0.0885871354
C   C54       1.0  0.63530  0.54620  0.04950  1.0000 -0.0885871354
C   C55       1.0  0.45380  0.36470  0.95050  1.0000 -0.0885871354
C   C56       1.0  0.95050  0.45380  0.36470  1.0000 -0.0885871354
C   C57       1.0  0.36470  0.95050  0.45380  1.0000 -0.0885871354
C   C58       1.0  0.48410  0.00000  0.51590  1.0000 -0.0246491175
C   C59       1.0  0.00000  0.51590  0.48410  1.0000 -0.0246491175
C   C60       1.0  0.51590  0.48410  0.00000  1.0000 -0.0246491175
C   C61       1.0  0.54840  0.00000  0.45160  1.0000 0.6261627559
C   C62       1.0  0.00000  0.45160  0.54840  1.0000 0.6261627559
C   C63       1.0  0.45160  0.54840  0.00000  1.0000 0.6261627559
N   N1        1.0  0.31080  0.00000  0.68920  1.0000 -0.2082400388
N   N2        1.0  1.00000  0.68920  0.31080  1.0000 -0.2082400388
N   N3        1.0  0.68920  0.31080  0.00000  1.0000 -0.2082400388
O   O1        1.0  0.38040  0.87340  0.07050  1.0000 -0.5567147251
O   O2        1.0  0.87340  0.07050  0.38040  1.0000 -0.5567147251
O   O3        1.0  0.07050  0.38040  0.87340  1.0000 -0.5567147251
O   O4        1.0  0.61960  0.92950  0.12660  1.0000 -0.5567147251
O   O5        1.0  0.12660  0.61960  0.92950  1.0000 -0.5567147251
O   O6        1.0  0.92950  0.12660  0.61960  1.0000 -0.5567147251
O   O7        1.0  0.35200  0.71540  0.92900  1.0000 -0.6978805181
O   O8        1.0  0.71540  0.92900  0.35200  1.0000 -0.6978805181
O   O9        1.0  0.92900  0.35200  0.71540  1.0000 -0.6978805181
O   O10       1.0  0.64800  0.07100  0.28460  1.0000 -0.6978805181
O   O11       1.0  0.28460  0.64800  0.07100  1.0000 -0.6978805181
O   O12       1.0  0.07100  0.28460  0.64800  1.0000 -0.6978805181
O   O13       1.0  0.65880  0.07780  0.51480  1.0000 -0.6222204085
O   O14       1.0  0.07780  0.51480  0.65880  1.0000 -0.6222204085
O   O15       1.0  0.51480  0.65880  0.07780  1.0000 -0.6222204085
O   O16       1.0  0.34120  0.48520  0.92220  1.0000 -0.6222204085
O   O17       1.0  0.92220  0.34120  0.48520  1.0000 -0.6222204085
O   O18       1.0  0.48520  0.92220  0.34120  1.0000 -0.6222204085
