# DDEC6 charges by PACMAN v1.1 (https://github.com/mtap-research/PACMAN-charge/)
data_2015[ZnCo][sab]3[ASR]1
_chemical_formula_sum              "Zn4 Co8 H24 C72 O52"
_cell_length_a       17.2065
_cell_length_b       17.2065
_cell_length_c       17.2065
_cell_angle_alpha    105.642
_cell_angle_beta     105.642
_cell_angle_gamma    117.436

_symmetry_space_group_name_H-M    "P 1"
_symmetry_Int_Tables_number       1

loop_
  _symmetry_equiv_pos_as_xyz
  'x, y, z'

loop_
  _atom_site_type_symbol
  _atom_site_label
  _atom_site_symmetry_multiplicity
  _atom_site_fract_x
  _atom_site_fract_y
  _atom_site_fract_z
  _atom_site_occupancy
  _atom_site_charge
Zn  Zn1       1.0  0.50562  0.68428  0.50000  1.0000 1.0258565461
Zn  Zn2       1.0  0.18428  0.00562  0.50000  1.0000 1.0258565461
Zn  Zn3       1.0  0.00562  0.50562  0.82134  1.0000 1.0258565461
Zn  Zn4       1.0  0.68428  0.18428  0.17866  1.0000 1.0242618834
Co  Co1       1.0  0.44399  0.57681  0.62224  1.0000 1.1028174674
Co  Co2       1.0  0.95457  0.82175  0.37776  1.0000 1.1028174674
Co  Co3       1.0  0.82175  0.44399  0.86718  1.0000 1.1028174674
Co  Co4       1.0  0.57681  0.95457  0.13282  1.0000 1.1028174674
Co  Co5       1.0  0.94399  0.32175  0.86718  1.0000 1.1028174674
Co  Co6       1.0  0.45457  0.07681  0.13282  1.0000 1.1028174674
Co  Co7       1.0  0.32175  0.45457  0.37776  1.0000 1.1028174674
Co  Co8       1.0  0.07681  0.94399  0.62224  1.0000 1.1028174674
H   H1        1.0  0.65440  0.95930  0.70190  1.0000 0.1397398154
H   H2        1.0  0.25740  0.95250  0.29810  1.0000 0.1397398154
H   H3        1.0  0.95250  0.65440  0.69510  1.0000 0.1397398154
H   H4        1.0  0.95930  0.25740  0.30490  1.0000 0.1397398154
H   H5        1.0  0.15440  0.45250  0.69510  1.0000 0.1397398154
H   H6        1.0  0.75740  0.45930  0.30490  1.0000 0.1397398154
H   H7        1.0  0.45250  0.75740  0.29810  1.0000 0.1397398154
H   H8        1.0  0.45930  0.15440  0.70190  1.0000 0.1397398154
H   H9        1.0  0.75150  0.13850  0.96120  1.0000 0.1397398154
H   H10       1.0  0.17730  0.79030  0.03880  1.0000 0.1397398154
H   H11       1.0  0.79030  0.75150  0.61300  1.0000 0.1397398154
H   H12       1.0  0.13850  0.17730  0.38700  1.0000 0.1397398154
H   H13       1.0  0.25150  0.29030  0.61300  1.0000 0.1397398154
H   H14       1.0  0.67730  0.63850  0.38700  1.0000 0.1397398154
H   H15       1.0  0.29030  0.67730  0.03880  1.0000 0.1397398154
H   H16       1.0  0.63850  0.25150  0.96120  1.0000 0.1397398154
H   H17       1.0  0.53930  0.84780  0.85210  1.0000 0.1397398154
H   H18       1.0  0.99570  0.68720  0.14790  1.0000 0.1397398154
H   H19       1.0  0.68720  0.53930  0.69150  1.0000 0.1397398154
H   H20       1.0  0.84780  0.99570  0.30850  1.0000 0.1397398154
H   H21       1.0  0.03930  0.18720  0.69150  1.0000 0.1397398154
H   H22       1.0  0.49570  0.34780  0.30850  1.0000 0.1397398154
H   H23       1.0  0.18720  0.49570  0.14790  1.0000 0.1397398154
H   H24       1.0  0.34780  0.03930  0.85210  1.0000 0.1397398154
C   C1        1.0  0.52813  0.78599  0.68532  1.0000 0.6015202691
C   C2        1.0  0.10067  0.84281  0.31468  1.0000 0.6015202691
C   C3        1.0  0.84281  0.52813  0.74214  1.0000 0.6015202691
C   C4        1.0  0.78599  0.10067  0.25786  1.0000 0.6015202691
C   C5        1.0  0.02813  0.34281  0.74214  1.0000 0.6015202691
C   C6        1.0  0.60067  0.28599  0.25786  1.0000 0.6015202691
C   C7        1.0  0.34281  0.60067  0.31468  1.0000 0.6015202691
C   C8        1.0  0.28599  0.02813  0.68532  1.0000 0.6015202691
C   C9        1.0  0.58870  0.88970  0.76740  1.0000 0.0033345226
C   C10       1.0  0.12230  0.82130  0.23260  1.0000 0.0033345226
C   C11       1.0  0.82130  0.58870  0.69900  1.0000 0.0033345226
C   C12       1.0  0.88970  0.12230  0.30100  1.0000 0.0033345226
C   C13       1.0  0.08870  0.32130  0.69900  1.0000 0.0033345226
C   C14       1.0  0.62230  0.38970  0.30100  1.0000 0.0033345226
C   C15       1.0  0.32130  0.62230  0.23260  1.0000 0.0033345226
C   C16       1.0  0.38970  0.08870  0.76740  1.0000 0.0033345226
C   C17       1.0  0.65230  0.96860  0.75690  1.0000 -0.0891487096
C   C18       1.0  0.21170  0.89540  0.24310  1.0000 -0.0891487096
C   C19       1.0  0.89540  0.65230  0.68370  1.0000 -0.0891487096
C   C20       1.0  0.96860  0.21170  0.31630  1.0000 -0.0891487096
C   C21       1.0  0.15230  0.39540  0.68370  1.0000 -0.0891487096
C   C22       1.0  0.71170  0.46860  0.31630  1.0000 -0.0891487096
C   C23       1.0  0.39540  0.71170  0.24310  1.0000 -0.0891487096
C   C24       1.0  0.46860  0.15230  0.75690  1.0000 -0.0891487096
C   C25       1.0  0.71180  0.06100  0.83100  1.0000 0.0083595736
C   C26       1.0  0.23000  0.88080  0.16900  1.0000 0.0083595736
C   C27       1.0  0.88080  0.71180  0.65080  1.0000 0.0083595736
C   C28       1.0  0.06100  0.23000  0.34920  1.0000 0.0083595736
C   C29       1.0  0.21180  0.38080  0.65080  1.0000 0.0083595736
C   C30       1.0  0.73000  0.56100  0.34920  1.0000 0.0083595736
C   C31       1.0  0.38080  0.73000  0.16900  1.0000 0.0083595736
C   C32       1.0  0.56100  0.21180  0.83100  1.0000 0.0083595736
C   C33       1.0  0.78480  0.14400  0.81500  1.0000 0.5437872177
C   C34       1.0  0.32900  0.96980  0.18500  1.0000 0.5437872177
C   C35       1.0  0.96980  0.78480  0.64080  1.0000 0.5437872177
C   C36       1.0  0.14400  0.32900  0.35920  1.0000 0.5437872177
C   C37       1.0  0.28480  0.46980  0.64080  1.0000 0.5437872177
C   C38       1.0  0.82900  0.64400  0.35920  1.0000 0.5437872177
C   C39       1.0  0.46980  0.82900  0.18500  1.0000 0.5437872177
C   C40       1.0  0.64400  0.28480  0.81500  1.0000 0.5437872177
C   C41       1.0  0.70870  0.07560  0.91210  1.0000 -0.0759290105
C   C42       1.0  0.16350  0.79660  0.08790  1.0000 -0.0759290105
C   C43       1.0  0.79660  0.70870  0.63310  1.0000 -0.0759290105
C   C44       1.0  0.07560  0.16350  0.36690  1.0000 -0.0759290105
C   C45       1.0  0.20870  0.29660  0.63310  1.0000 -0.0740700895
C   C46       1.0  0.66350  0.57560  0.36690  1.0000 -0.0740700895
C   C47       1.0  0.29660  0.66350  0.08790  1.0000 -0.0759290105
C   C48       1.0  0.57560  0.20870  0.91210  1.0000 -0.0759290105
C   C49       1.0  0.64150  0.99690  0.92280  1.0000 -0.045675788
C   C50       1.0  0.07410  0.71870  0.07720  1.0000 -0.045675788
C   C51       1.0  0.71870  0.64150  0.64460  1.0000 -0.045675788
C   C52       1.0  0.99690  0.07410  0.35540  1.0000 -0.045675788
C   C53       1.0  0.14150  0.21870  0.64460  1.0000 -0.045675788
C   C54       1.0  0.57410  0.49690  0.35540  1.0000 -0.045675788
C   C55       1.0  0.21870  0.57410  0.07720  1.0000 -0.0443755398
C   C56       1.0  0.49690  0.14150  0.92280  1.0000 -0.045675788
C   C57       1.0  0.63890  0.01300  0.00910  1.0000 0.5887036537
C   C58       1.0  0.00390  0.62980  0.99090  1.0000 0.5887036537
C   C59       1.0  0.62980  0.63890  0.62590  1.0000 0.5887036537
C   C60       1.0  0.01300  0.00390  0.37410  1.0000 0.5887036537
C   C61       1.0  0.13890  0.12980  0.62590  1.0000 0.5887036537
C   C62       1.0  0.50390  0.51300  0.37410  1.0000 0.5887036537
C   C63       1.0  0.12980  0.50390  0.99090  1.0000 0.5887036537
C   C64       1.0  0.51300  0.13890  0.00910  1.0000 0.5887036537
C   C65       1.0  0.58260  0.90220  0.84760  1.0000 -0.0759290105
C   C66       1.0  0.05460  0.73500  0.15240  1.0000 -0.0759290105
C   C67       1.0  0.73500  0.58260  0.68040  1.0000 -0.0759290105
C   C68       1.0  0.90220  0.05460  0.31960  1.0000 -0.0759290105
C   C69       1.0  0.08260  0.23500  0.68040  1.0000 -0.0759290105
C   C70       1.0  0.55460  0.40220  0.31960  1.0000 -0.0759290105
C   C71       1.0  0.23500  0.55460  0.15240  1.0000 -0.0759290105
C   C72       1.0  0.40220  0.08260  0.84760  1.0000 -0.0759290105
O   O1        1.0  0.50670  0.77736  0.60860  1.0000 -0.4580764892
O   O2        1.0  0.16876  0.89810  0.39140  1.0000 -0.4580764892
O   O3        1.0  0.89810  0.50670  0.72934  1.0000 -0.4580764892
O   O4        1.0  0.77736  0.16876  0.27066  1.0000 -0.4580764892
O   O5        1.0  0.00670  0.39810  0.72934  1.0000 -0.4580764892
O   O6        1.0  0.66876  0.27736  0.27066  1.0000 -0.4580764892
O   O7        1.0  0.39810  0.66876  0.39140  1.0000 -0.4580764892
O   O8        1.0  0.27736  0.00670  0.60860  1.0000 -0.4580764892
O   O9        1.0  0.49978  0.71254  0.70508  1.0000 -0.5497924546
O   O10       1.0  0.00746  0.79470  0.29492  1.0000 -0.5497924546
O   O11       1.0  0.79470  0.49978  0.78724  1.0000 -0.5497924546
O   O12       1.0  0.71254  0.00746  0.21276  1.0000 -0.5497924546
O   O13       1.0  0.99978  0.29470  0.78724  1.0000 -0.5497924546
O   O14       1.0  0.50746  0.21254  0.21276  1.0000 -0.5497924546
O   O15       1.0  0.29470  0.50746  0.29492  1.0000 -0.5497924546
O   O16       1.0  0.21254  0.99978  0.70508  1.0000 -0.5497924546
O   O17       1.0  0.57284  0.93615  0.01147  1.0000 -0.540926286
O   O18       1.0  0.92468  0.56137  0.98853  1.0000 -0.540926286
O   O19       1.0  0.56137  0.57284  0.63669  1.0000 -0.540926286
O   O20       1.0  0.93615  0.92468  0.36331  1.0000 -0.540926286
O   O21       1.0  0.07284  0.06137  0.63669  1.0000 -0.540926286
O   O22       1.0  0.42468  0.43615  0.36331  1.0000 -0.540926286
O   O23       1.0  0.06137  0.42468  0.98853  1.0000 -0.540926286
O   O24       1.0  0.43615  0.07284  0.01147  1.0000 -0.540926286
O   O25       1.0  0.69770  0.10100  0.07650  1.0000 -0.5668676579
O   O26       1.0  0.02450  0.62120  0.92350  1.0000 -0.5668676579
O   O27       1.0  0.62120  0.69770  0.59670  1.0000 -0.5668676579
O   O28       1.0  0.10100  0.02450  0.40330  1.0000 -0.5668676579
O   O29       1.0  0.19770  0.12120  0.59670  1.0000 -0.5668676579
O   O30       1.0  0.52450  0.60100  0.40330  1.0000 -0.5668676579
O   O31       1.0  0.12120  0.52450  0.92350  1.0000 -0.5668676579
O   O32       1.0  0.60100  0.19770  0.07650  1.0000 -0.5668676579
O   O33       1.0  0.77350  0.13721  0.74271  1.0000 -0.3885430096
O   O34       1.0  0.39450  0.03079  0.25729  1.0000 -0.3885430096
O   O35       1.0  0.03079  0.77350  0.63629  1.0000 -0.3885430096
O   O36       1.0  0.13721  0.39450  0.36371  1.0000 -0.3885430096
O   O37       1.0  0.27350  0.53079  0.63629  1.0000 -0.3885430096
O   O38       1.0  0.89450  0.63721  0.36371  1.0000 -0.3885430096
O   O39       1.0  0.53079  0.89450  0.25729  1.0000 -0.3885430096
O   O40       1.0  0.63721  0.27350  0.74271  1.0000 -0.3952822769
O   O41       1.0  0.86086  0.22340  0.89586  1.0000 -0.5497924546
O   O42       1.0  0.32754  0.96500  0.10414  1.0000 -0.5497924546
O   O43       1.0  0.96500  0.86086  0.63746  1.0000 -0.5497924546
O   O44       1.0  0.22340  0.32754  0.36254  1.0000 -0.5497924546
O   O45       1.0  0.36086  0.46500  0.63746  1.0000 -0.5497924546
O   O46       1.0  0.82754  0.72340  0.36254  1.0000 -0.5497924546
O   O47       1.0  0.46500  0.82754  0.10414  1.0000 -0.5497924546
O   O48       1.0  0.72340  0.36086  0.89586  1.0000 -0.5497924546
O   O49       1.0  0.39071  0.56549  0.50000  1.0000 -0.8791501457
O   O50       1.0  0.06549  0.89071  0.50000  1.0000 -0.8791501457
O   O51       1.0  0.89071  0.39071  0.82522  1.0000 -0.8791501457
O   O52       1.0  0.56549  0.06549  0.17478  1.0000 -0.8791501457
