# DDEC6 charges by PACMAN v1.1 (https://github.com/mtap-research/PACMAN-charge/)
data_2015[Ni][bpq]3[ASR]1
_chemical_formula_sum              "Ni4 H44 C68 N4 O22"
_cell_length_a       11.293
_cell_length_b       11.293
_cell_length_c       14.165
_cell_angle_alpha    70.6022
_cell_angle_beta     109.398
_cell_angle_gamma    98.3269

_symmetry_space_group_name_H-M    "P 1"
_symmetry_Int_Tables_number       1

loop_
  _symmetry_equiv_pos_as_xyz
  'x, y, z'

loop_
  _atom_site_type_symbol
  _atom_site_label
  _atom_site_symmetry_multiplicity
  _atom_site_fract_x
  _atom_site_fract_y
  _atom_site_fract_z
  _atom_site_occupancy
  _atom_site_charge
Ni  Ni1       1.0  0.20351  0.79347  0.00195  1.0000 0.9657020493
Ni  Ni2       1.0  0.20653  0.79649  0.50195  1.0000 0.9657020493
Ni  Ni3       1.0  0.17934  0.78880  0.74547  1.0000 0.9617729112
Ni  Ni4       1.0  0.21120  0.82066  0.24547  1.0000 0.9617729112
H   H1        1.0  0.83020  0.58080  0.70980  1.0000 0.1311782349
H   H2        1.0  0.41920  0.16980  0.20980  1.0000 0.1311782349
H   H3        1.0  0.96510  0.41750  0.81470  1.0000 0.1402190312
H   H4        1.0  0.58250  0.03490  0.31470  1.0000 0.1402190312
H   H5        1.0  0.67600  0.18120  0.83680  1.0000 0.1402190312
H   H6        1.0  0.81880  0.32400  0.33680  1.0000 0.1402190312
H   H7        1.0  0.54100  0.34360  0.71940  1.0000 0.1311782349
H   H8        1.0  0.65640  0.45900  0.21940  1.0000 0.1311782349
H   H9        1.0  0.91300  0.87460  0.00990  1.0000 0.1402190312
H   H10       1.0  0.12540  0.08700  0.50990  1.0000 0.1402190312
H   H11       1.0  0.78270  0.03510  0.90730  1.0000 0.1311782349
H   H12       1.0  0.96490  0.21730  0.40730  1.0000 0.1311782349
H   H13       1.0  0.07750  0.27550  0.92720  1.0000 0.1402190312
H   H14       1.0  0.72450  0.92250  0.42720  1.0000 0.1402190312
H   H15       1.0  0.20770  0.11430  0.03160  1.0000 0.1402190312
H   H16       1.0  0.88570  0.79230  0.53160  1.0000 0.1402190312
H   H17       1.0  0.95130  0.50570  0.09160  1.0000 0.1225484715
H   H18       1.0  0.49430  0.04870  0.59160  1.0000 0.1225484715
H   H19       1.0  0.78540  0.38400  0.02610  1.0000 0.1088595812
H   H20       1.0  0.61600  0.21460  0.52610  1.0000 0.1088595812
H   H21       1.0  0.79910  0.16430  0.08310  1.0000 0.1013226906
H   H22       1.0  0.83570  0.20090  0.58310  1.0000 0.1013226906
H   H23       1.0  0.97970  0.07310  0.19850  1.0000 0.1225484715
H   H24       1.0  0.92690  0.02030  0.69850  1.0000 0.1225484715
H   H25       1.0  0.35780  0.21500  0.39120  1.0000 0.1225484715
H   H26       1.0  0.78500  0.64220  0.89120  1.0000 0.1225484715
H   H27       1.0  0.33990  0.42350  0.34370  1.0000 0.1225484715
H   H28       1.0  0.57650  0.66010  0.84370  1.0000 0.1225484715
H   H29       1.0  0.42700  0.09480  0.95180  1.0000 0.1225484715
H   H30       1.0  0.90520  0.57300  0.45180  1.0000 0.1225484715
H   H31       1.0  0.56910  0.21610  0.03970  1.0000 0.1013226906
H   H32       1.0  0.78390  0.43090  0.53970  1.0000 0.1013226906
H   H33       1.0  0.54920  0.43620  0.97980  1.0000 0.1088595812
H   H34       1.0  0.56380  0.45080  0.47980  1.0000 0.1088595812
H   H35       1.0  0.39090  0.52670  0.83920  1.0000 0.1225484715
H   H36       1.0  0.47330  0.60910  0.33920  1.0000 0.1225484715
H   H37       1.0  0.05840  0.39240  0.60260  1.0000 0.1225484715
H   H38       1.0  0.60760  0.94160  0.10260  1.0000 0.1225484715
H   H39       1.0  0.07130  0.17030  0.65800  1.0000 0.1088595812
H   H40       1.0  0.82970  0.92870  0.15800  1.0000 0.1088595812
H   H41       1.0  0.33060  0.70400  0.92710  1.0000 0.3668274357
H   H42       1.0  0.29600  0.66940  0.42710  1.0000 0.3668274357
H   H43       1.0  0.22430  0.62750  0.92570  1.0000 0.3668274357
H   H44       1.0  0.37250  0.77570  0.42570  1.0000 0.3668274357
C   C1        1.0  0.79850  0.49950  0.73360  1.0000 -0.0500299926
C   C2        1.0  0.50050  0.20150  0.23360  1.0000 -0.0500299926
C   C3        1.0  0.87860  0.40140  0.79700  1.0000 -0.1878681333
C   C4        1.0  0.59860  0.12140  0.29700  1.0000 -0.1878681333
C   C5        1.0  0.83240  0.28120  0.83380  1.0000 0.0739049985
C   C6        1.0  0.71880  0.16760  0.33380  1.0000 0.0739049985
C   C7        1.0  0.70930  0.26070  0.80920  1.0000 -0.1878681333
C   C8        1.0  0.73930  0.29070  0.30920  1.0000 -0.1878681333
C   C9        1.0  0.62730  0.35950  0.74070  1.0000 -0.0500299926
C   C10       1.0  0.64050  0.37270  0.24070  1.0000 -0.0500299926
C   C11       1.0  0.94690  0.95610  0.99300  1.0000 -0.0151563474
C   C12       1.0  0.04390  0.05310  0.49300  1.0000 -0.0151563474
C   C13       1.0  0.86890  0.05190  0.93060  1.0000 -0.184470229
C   C14       1.0  0.94810  0.13110  0.43060  1.0000 -0.184470229
C   C15       1.0  0.91580  0.17300  0.90180  1.0000 0.1013226906
C   C16       1.0  0.82700  0.08420  0.40180  1.0000 0.1013226906
C   C17       1.0  0.04380  0.19380  0.94300  1.0000 -0.1651525573
C   C18       1.0  0.80620  0.95620  0.44300  1.0000 -0.1651525573
C   C19       1.0  0.12180  0.09820  0.00570  1.0000 -0.027962748
C   C20       1.0  0.90180  0.87820  0.50570  1.0000 -0.027962748
C   C21       1.0  0.07410  0.36630  0.18580  1.0000 0.0599622577
C   C22       1.0  0.63370  0.92590  0.68580  1.0000 0.0599622577
C   C23       1.0  0.95860  0.41920  0.11310  1.0000 -0.1375776505
C   C24       1.0  0.58080  0.04140  0.61310  1.0000 -0.1375776505
C   C25       1.0  0.85880  0.34680  0.07440  1.0000 -0.1074828395
C   C26       1.0  0.65320  0.14120  0.57440  1.0000 -0.1074828395
C   C27       1.0  0.86760  0.21420  0.10810  1.0000 -0.1046255381
C   C28       1.0  0.78580  0.13240  0.60810  1.0000 -0.1046255381
C   C29       1.0  0.97540  0.16020  0.17670  1.0000 -0.1375776505
C   C30       1.0  0.83980  0.02460  0.67670  1.0000 -0.1375776505
C   C31       1.0  0.07960  0.23180  0.21490  1.0000 0.0499180803
C   C32       1.0  0.76820  0.92040  0.71490  1.0000 0.0499180803
C   C33       1.0  0.19380  0.17580  0.29150  1.0000 -0.0500299926
C   C34       1.0  0.82420  0.80620  0.79150  1.0000 -0.0500299926
C   C35       1.0  0.28680  0.25160  0.33830  1.0000 -0.1211559289
C   C36       1.0  0.74840  0.71320  0.83830  1.0000 -0.1211559289
C   C37       1.0  0.27650  0.37650  0.30900  1.0000 -0.0905569495
C   C38       1.0  0.62350  0.72350  0.80900  1.0000 -0.0905569495
C   C39       1.0  0.17680  0.43720  0.23030  1.0000 -0.0670421199
C   C40       1.0  0.56280  0.82320  0.73030  1.0000 -0.0670421199
C   C41       1.0  0.20690  0.03550  0.32110  1.0000 0.5724623426
C   C42       1.0  0.96450  0.79310  0.82110  1.0000 0.5724623426
C   C43       1.0  0.17630  0.57630  0.19050  1.0000 0.6059369966
C   C44       1.0  0.42370  0.82370  0.69050  1.0000 0.6059369966
C   C45       1.0  0.31500  0.23500  0.84180  1.0000 0.0499180803
C   C46       1.0  0.76500  0.68500  0.34180  1.0000 0.0499180803
C   C47       1.0  0.41800  0.18120  0.92950  1.0000 -0.1375776505
C   C48       1.0  0.81880  0.58200  0.42950  1.0000 -0.1375776505
C   C49       1.0  0.50310  0.25270  0.98130  1.0000 -0.1074828395
C   C50       1.0  0.74730  0.49690  0.48130  1.0000 -0.1074828395
C   C51       1.0  0.49020  0.38620  0.94490  1.0000 -0.0818184019
C   C52       1.0  0.61380  0.50980  0.44490  1.0000 -0.0818184019
C   C53       1.0  0.39590  0.43970  0.86230  1.0000 -0.131640561
C   C54       1.0  0.56030  0.60410  0.36230  1.0000 -0.131640561
C   C55       1.0  0.29990  0.36430  0.80750  1.0000 0.0499180803
C   C56       1.0  0.63570  0.70010  0.30750  1.0000 0.0499180803
C   C57       1.0  0.20170  0.42110  0.71910  1.0000 -0.0575206616
C   C58       1.0  0.57890  0.79830  0.21910  1.0000 -0.0575206616
C   C59       1.0  0.12080  0.35300  0.66310  1.0000 -0.1211559289
C   C60       1.0  0.64700  0.87920  0.16310  1.0000 -0.1211559289
C   C61       1.0  0.12950  0.21790  0.69580  1.0000 -0.131640561
C   C62       1.0  0.78210  0.87050  0.19580  1.0000 -0.131640561
C   C63       1.0  0.22450  0.16070  0.78320  1.0000 -0.0500299926
C   C64       1.0  0.83930  0.77550  0.28320  1.0000 -0.0500299926
C   C65       1.0  0.18650  0.56090  0.68150  1.0000 0.6029571816
C   C66       1.0  0.43910  0.81350  0.18150  1.0000 0.6029571816
C   C67       1.0  0.21970  0.01710  0.81840  1.0000 0.578932993
C   C68       1.0  0.98290  0.78030  0.31840  1.0000 0.578932993
N   N1        1.0  0.67460  0.47300  0.70780  1.0000 0.2949401959
N   N2        1.0  0.52700  0.32540  0.20780  1.0000 0.2949401959
N   N3        1.0  0.07150  0.97610  0.03080  1.0000 0.3387727215
N   N4        1.0  0.02390  0.92850  0.53080  1.0000 0.3387727215
O   O1        1.0  0.59820  0.56800  0.64480  1.0000 -0.5098441915
O   O2        1.0  0.43200  0.40180  0.14480  1.0000 -0.5098441915
O   O3        1.0  0.14500  0.88160  0.08480  1.0000 -0.4674521909
O   O4        1.0  0.11840  0.85500  0.58480  1.0000 -0.4674521909
O   O5        1.0  0.20370  0.97430  0.40970  1.0000 -0.5337637738
O   O6        1.0  0.02570  0.79630  0.90970  1.0000 -0.5337637738
O   O7        1.0  0.22280  0.99960  0.25190  1.0000 -0.551354833
O   O8        1.0  0.00040  0.77720  0.75190  1.0000 -0.5402291492
O   O9        1.0  0.16200  0.62100  0.09420  1.0000 -0.551354833
O   O10       1.0  0.37900  0.83800  0.59420  1.0000 -0.551354833
O   O11       1.0  0.20190  0.63710  0.25480  1.0000 -0.5605580882
O   O12       1.0  0.36290  0.79810  0.75480  1.0000 -0.5605580882
O   O13       1.0  0.19260  0.97060  0.74560  1.0000 -0.5402291492
O   O14       1.0  0.02940  0.80740  0.24560  1.0000 -0.5402291492
O   O15       1.0  0.24400  0.96340  0.91360  1.0000 -0.5402291492
O   O16       1.0  0.03660  0.75600  0.41360  1.0000 -0.5402291492
O   O17       1.0  0.15800  0.60820  0.73850  1.0000 -0.5605580882
O   O18       1.0  0.39180  0.84200  0.23850  1.0000 -0.5605580882
O   O19       1.0  0.20980  0.61680  0.59650  1.0000 -0.551354833
O   O20       1.0  0.38320  0.79020  0.09650  1.0000 -0.551354833
O   O21       1.0  0.25090  0.70370  0.91040  1.0000 -0.6571800486
O   O22       1.0  0.29630  0.74910  0.41040  1.0000 -0.6571800486
