# DDEC6 charges by PACMAN v1.1 (https://github.com/mtap-research/PACMAN-charge/)
data_2016[Cu][nbo]3[ASR]34
_chemical_formula_sum              "Cu6 H90 C132 O30"
_cell_length_a       21.5102
_cell_length_b       21.5102
_cell_length_c       21.5102
_cell_angle_alpha    110.297
_cell_angle_beta     110.297
_cell_angle_gamma    110.297

_symmetry_space_group_name_H-M    "P 1"
_symmetry_Int_Tables_number       1

loop_
  _symmetry_equiv_pos_as_xyz
  'x, y, z'

loop_
  _atom_site_type_symbol
  _atom_site_label
  _atom_site_symmetry_multiplicity
  _atom_site_fract_x
  _atom_site_fract_y
  _atom_site_fract_z
  _atom_site_occupancy
  _atom_site_charge
Cu  Cu1       1.0  0.55241  0.07374  0.55241  1.0000 0.8594637746
Cu  Cu2       1.0  0.07374  0.55241  0.55241  1.0000 0.8594637746
Cu  Cu3       1.0  0.55241  0.55241  0.07374  1.0000 0.8594637746
Cu  Cu4       1.0  0.92626  0.44760  0.44760  1.0000 0.8594637746
Cu  Cu5       1.0  0.44760  0.92626  0.44760  1.0000 0.8594637746
Cu  Cu6       1.0  0.44760  0.44760  0.92626  1.0000 0.8594637746
H   H1        1.0  0.42370  0.84320  0.60040  1.0000 0.1296182946
H   H2        1.0  0.84320  0.60040  0.42370  1.0000 0.1296182946
H   H3        1.0  0.60040  0.42370  0.84320  1.0000 0.1296182946
H   H4        1.0  0.15680  0.57630  0.39960  1.0000 0.1296182946
H   H5        1.0  0.39960  0.15680  0.57630  1.0000 0.1296182946
H   H6        1.0  0.57630  0.39960  0.15680  1.0000 0.1296182946
H   H7        1.0  0.57630  0.15680  0.39960  1.0000 0.1296182946
H   H8        1.0  0.15680  0.39960  0.57630  1.0000 0.1296182946
H   H9        1.0  0.39960  0.57630  0.15680  1.0000 0.1296182946
H   H10       1.0  0.84320  0.42370  0.60040  1.0000 0.1296182946
H   H11       1.0  0.60040  0.84320  0.42370  1.0000 0.1296182946
H   H12       1.0  0.42370  0.60040  0.84320  1.0000 0.1296182946
H   H13       1.0  0.42690  0.82160  0.69800  1.0000 0.1296182946
H   H14       1.0  0.82160  0.69800  0.42690  1.0000 0.1296182946
H   H15       1.0  0.69800  0.42690  0.82160  1.0000 0.1296182946
H   H16       1.0  0.17840  0.57310  0.30200  1.0000 0.1296182946
H   H17       1.0  0.30200  0.17840  0.57310  1.0000 0.1296182946
H   H18       1.0  0.57310  0.30200  0.17840  1.0000 0.1296182946
H   H19       1.0  0.57310  0.17840  0.30200  1.0000 0.1296182946
H   H20       1.0  0.17840  0.30200  0.57310  1.0000 0.1296182946
H   H21       1.0  0.30200  0.57310  0.17840  1.0000 0.1296182946
H   H22       1.0  0.82160  0.42690  0.69800  1.0000 0.1296182946
H   H23       1.0  0.69800  0.82160  0.42690  1.0000 0.1296182946
H   H24       1.0  0.42690  0.69800  0.82160  1.0000 0.1296182946
H   H25       1.0  0.59310  0.04770  0.85860  1.0000 0.11718764
H   H26       1.0  0.04770  0.85860  0.59310  1.0000 0.11718764
H   H27       1.0  0.85860  0.59310  0.04770  1.0000 0.11718764
H   H28       1.0  0.95230  0.40690  0.14140  1.0000 0.11718764
H   H29       1.0  0.14140  0.95230  0.40690  1.0000 0.11718764
H   H30       1.0  0.40690  0.14140  0.95230  1.0000 0.11718764
H   H31       1.0  0.40690  0.95230  0.14140  1.0000 0.11718764
H   H32       1.0  0.95230  0.14140  0.40690  1.0000 0.11718764
H   H33       1.0  0.14140  0.40690  0.95230  1.0000 0.11718764
H   H34       1.0  0.04770  0.59310  0.85860  1.0000 0.11718764
H   H35       1.0  0.85860  0.04770  0.59310  1.0000 0.11718764
H   H36       1.0  0.59310  0.85860  0.04770  1.0000 0.11718764
H   H37       1.0  0.59010  0.06770  0.75820  1.0000 0.1296182946
H   H38       1.0  0.06770  0.75820  0.59010  1.0000 0.1296182946
H   H39       1.0  0.75820  0.59010  0.06770  1.0000 0.1296182946
H   H40       1.0  0.93230  0.40990  0.24180  1.0000 0.1296182946
H   H41       1.0  0.24180  0.93230  0.40990  1.0000 0.1296182946
H   H42       1.0  0.40990  0.24180  0.93230  1.0000 0.1296182946
H   H43       1.0  0.40990  0.93230  0.24180  1.0000 0.1296182946
H   H44       1.0  0.93230  0.24180  0.40990  1.0000 0.1296182946
H   H45       1.0  0.24180  0.40990  0.93230  1.0000 0.1296182946
H   H46       1.0  0.06770  0.59010  0.75820  1.0000 0.1296182946
H   H47       1.0  0.75820  0.06770  0.59010  1.0000 0.1296182946
H   H48       1.0  0.59010  0.75820  0.06770  1.0000 0.1296182946
H   H49       1.0  0.50360  0.01780  0.90510  1.0000 0.1110712515
H   H50       1.0  0.01780  0.90510  0.50360  1.0000 0.1110712515
H   H51       1.0  0.90510  0.50360  0.01780  1.0000 0.1110712515
H   H52       1.0  0.98220  0.49640  0.09490  1.0000 0.1110712515
H   H53       1.0  0.09490  0.98220  0.49640  1.0000 0.1110712515
H   H54       1.0  0.49640  0.09490  0.98220  1.0000 0.1110712515
H   H55       1.0  0.49640  0.98220  0.09490  1.0000 0.1110712515
H   H56       1.0  0.98220  0.09490  0.49640  1.0000 0.1110712515
H   H57       1.0  0.09490  0.49640  0.98220  1.0000 0.1110712515
H   H58       1.0  0.01780  0.50360  0.90510  1.0000 0.1110712515
H   H59       1.0  0.90510  0.01780  0.50360  1.0000 0.1110712515
H   H60       1.0  0.50360  0.90510  0.01780  1.0000 0.1110712515
H   H61       1.0  0.61050  0.86740  0.82260  1.0000 0.0719049677
H   H62       1.0  0.86740  0.82260  0.61050  1.0000 0.0719049677
H   H63       1.0  0.82260  0.61050  0.86740  1.0000 0.0719049677
H   H64       1.0  0.13260  0.38950  0.17740  1.0000 0.0719049677
H   H65       1.0  0.17740  0.13260  0.38950  1.0000 0.0719049677
H   H66       1.0  0.38950  0.17740  0.13260  1.0000 0.0719049677
H   H67       1.0  0.38950  0.13260  0.17740  1.0000 0.0719049677
H   H68       1.0  0.13260  0.17740  0.38950  1.0000 0.0719049677
H   H69       1.0  0.17740  0.38950  0.13260  1.0000 0.0719049677
H   H70       1.0  0.86740  0.61050  0.82260  1.0000 0.0719049677
H   H71       1.0  0.82260  0.86740  0.61050  1.0000 0.0719049677
H   H72       1.0  0.61050  0.82260  0.86740  1.0000 0.0719049677
H   H73       1.0  0.60640  0.74940  0.74940  1.0000 0.1110712515
H   H74       1.0  0.74940  0.74940  0.60640  1.0000 0.1110712515
H   H75       1.0  0.74940  0.60640  0.74940  1.0000 0.1110712515
H   H76       1.0  0.25060  0.39360  0.25060  1.0000 0.1110712515
H   H77       1.0  0.25060  0.25060  0.39360  1.0000 0.1110712515
H   H78       1.0  0.39360  0.25060  0.25060  1.0000 0.1110712515
H   H79       1.0  0.52920  0.69920  0.74360  1.0000 0.1110712515
H   H80       1.0  0.69920  0.74360  0.52920  1.0000 0.1110712515
H   H81       1.0  0.74360  0.52920  0.69920  1.0000 0.1110712515
H   H82       1.0  0.30080  0.47080  0.25640  1.0000 0.1110712515
H   H83       1.0  0.25640  0.30080  0.47080  1.0000 0.1110712515
H   H84       1.0  0.47080  0.25640  0.30080  1.0000 0.1110712515
H   H85       1.0  0.47080  0.30080  0.25640  1.0000 0.1110712515
H   H86       1.0  0.30080  0.25640  0.47080  1.0000 0.1110712515
H   H87       1.0  0.25640  0.47080  0.30080  1.0000 0.1110712515
H   H88       1.0  0.69920  0.52920  0.74360  1.0000 0.1110712515
H   H89       1.0  0.74360  0.69920  0.52920  1.0000 0.1110712515
H   H90       1.0  0.52920  0.74360  0.69920  1.0000 0.1110712515
C   C1        1.0  0.50456  0.97330  0.60547  1.0000 0.5798775339
C   C2        1.0  0.97330  0.60547  0.50456  1.0000 0.5798775339
C   C3        1.0  0.60547  0.50456  0.97330  1.0000 0.5798775339
C   C4        1.0  0.02670  0.49544  0.39453  1.0000 0.5798775339
C   C5        1.0  0.39453  0.02670  0.49544  1.0000 0.5798775339
C   C6        1.0  0.49544  0.39453  0.02670  1.0000 0.5798775339
C   C7        1.0  0.49544  0.02670  0.39453  1.0000 0.5798775339
C   C8        1.0  0.02670  0.39453  0.49544  1.0000 0.5798775339
C   C9        1.0  0.39453  0.49544  0.02670  1.0000 0.5798775339
C   C10       1.0  0.97330  0.50456  0.60547  1.0000 0.5798775339
C   C11       1.0  0.60547  0.97330  0.50456  1.0000 0.5798775339
C   C12       1.0  0.50456  0.60547  0.97330  1.0000 0.5798775339
C   C13       1.0  0.50737  0.95839  0.66971  1.0000 -0.0273259036
C   C14       1.0  0.95839  0.66971  0.50737  1.0000 -0.0273259036
C   C15       1.0  0.66971  0.50737  0.95839  1.0000 -0.0273259036
C   C16       1.0  0.04161  0.49263  0.33029  1.0000 -0.0273259036
C   C17       1.0  0.33029  0.04161  0.49263  1.0000 -0.0273259036
C   C18       1.0  0.49263  0.33029  0.04161  1.0000 -0.0273259036
C   C19       1.0  0.49263  0.04161  0.33029  1.0000 -0.0273259036
C   C20       1.0  0.04161  0.33029  0.49263  1.0000 -0.0273259036
C   C21       1.0  0.33029  0.49263  0.04161  1.0000 -0.0273259036
C   C22       1.0  0.95839  0.50737  0.66971  1.0000 -0.0273259036
C   C23       1.0  0.66971  0.95839  0.50737  1.0000 -0.0273259036
C   C24       1.0  0.50737  0.66971  0.95839  1.0000 -0.0273259036
C   C25       1.0  0.45799  0.88445  0.65230  1.0000 -0.0868686676
C   C26       1.0  0.88445  0.65230  0.45799  1.0000 -0.0868686676
C   C27       1.0  0.65230  0.45799  0.88445  1.0000 -0.0868686676
C   C28       1.0  0.11555  0.54201  0.34770  1.0000 -0.0868686676
C   C29       1.0  0.34770  0.11555  0.54201  1.0000 -0.0868686676
C   C30       1.0  0.54201  0.34770  0.11555  1.0000 -0.0868686676
C   C31       1.0  0.54201  0.11555  0.34770  1.0000 -0.0846546259
C   C32       1.0  0.11555  0.34770  0.54201  1.0000 -0.0868686676
C   C33       1.0  0.34770  0.54201  0.11555  1.0000 -0.0868686676
C   C34       1.0  0.88445  0.45799  0.65230  1.0000 -0.0868686676
C   C35       1.0  0.65230  0.88445  0.45799  1.0000 -0.0868686676
C   C36       1.0  0.45799  0.65230  0.88445  1.0000 -0.0868686676
C   C37       1.0  0.45936  0.87167  0.71072  1.0000 -0.1425098371
C   C38       1.0  0.87167  0.71072  0.45936  1.0000 -0.1425098371
C   C39       1.0  0.71072  0.45936  0.87167  1.0000 -0.1425098371
C   C40       1.0  0.12833  0.54064  0.28928  1.0000 -0.1425098371
C   C41       1.0  0.28928  0.12833  0.54064  1.0000 -0.1425098371
C   C42       1.0  0.54064  0.28928  0.12833  1.0000 -0.1425098371
C   C43       1.0  0.54064  0.12833  0.28928  1.0000 -0.1425098371
C   C44       1.0  0.12833  0.28928  0.54064  1.0000 -0.1425098371
C   C45       1.0  0.28928  0.54064  0.12833  1.0000 -0.1425098371
C   C46       1.0  0.87167  0.45936  0.71072  1.0000 -0.1425098371
C   C47       1.0  0.71072  0.87167  0.45936  1.0000 -0.1425098371
C   C48       1.0  0.45936  0.71072  0.87167  1.0000 -0.1425098371
C   C49       1.0  0.50806  0.93196  0.78833  1.0000 0.0893012281
C   C50       1.0  0.93196  0.78833  0.50806  1.0000 0.0893012281
C   C51       1.0  0.78833  0.50806  0.93196  1.0000 0.0893012281
C   C52       1.0  0.06804  0.49194  0.21167  1.0000 0.0893012281
C   C53       1.0  0.21167  0.06804  0.49194  1.0000 0.0893012281
C   C54       1.0  0.49194  0.21167  0.06804  1.0000 0.0893012281
C   C55       1.0  0.49194  0.06804  0.21167  1.0000 0.0893012281
C   C56       1.0  0.06804  0.21167  0.49194  1.0000 0.0893012281
C   C57       1.0  0.21167  0.49194  0.06804  1.0000 0.0893012281
C   C58       1.0  0.93196  0.50806  0.78833  1.0000 0.0893012281
C   C59       1.0  0.78833  0.93196  0.50806  1.0000 0.0893012281
C   C60       1.0  0.50806  0.78833  0.93196  1.0000 0.0893012281
C   C61       1.0  0.55866  0.00645  0.80679  1.0000 -0.1613214181
C   C62       1.0  0.00645  0.80679  0.55866  1.0000 -0.1613214181
C   C63       1.0  0.80679  0.55866  0.00645  1.0000 -0.1613214181
C   C64       1.0  0.99355  0.44134  0.19321  1.0000 -0.1613214181
C   C65       1.0  0.19321  0.99355  0.44134  1.0000 -0.1613214181
C   C66       1.0  0.44134  0.19321  0.99355  1.0000 -0.1613214181
C   C67       1.0  0.44134  0.99355  0.19321  1.0000 -0.1613214181
C   C68       1.0  0.99355  0.19321  0.44134  1.0000 -0.1613214181
C   C69       1.0  0.19321  0.44134  0.99355  1.0000 -0.1613214181
C   C70       1.0  0.00645  0.55866  0.80679  1.0000 -0.1613214181
C   C71       1.0  0.80679  0.00645  0.55866  1.0000 -0.1613214181
C   C72       1.0  0.55866  0.80679  0.00645  1.0000 -0.1613214181
C   C73       1.0  0.55684  0.01818  0.74612  1.0000 -0.0868686676
C   C74       1.0  0.01818  0.74612  0.55684  1.0000 -0.0868686676
C   C75       1.0  0.74612  0.55684  0.01818  1.0000 -0.0868686676
C   C76       1.0  0.98182  0.44316  0.25388  1.0000 -0.0868686676
C   C77       1.0  0.25388  0.98182  0.44316  1.0000 -0.0868686676
C   C78       1.0  0.44316  0.25388  0.98182  1.0000 -0.0868686676
C   C79       1.0  0.44316  0.98182  0.25388  1.0000 -0.0868686676
C   C80       1.0  0.98182  0.25388  0.44316  1.0000 -0.0868686676
C   C81       1.0  0.25388  0.44316  0.98182  1.0000 -0.0868686676
C   C82       1.0  0.01818  0.55684  0.74612  1.0000 -0.0868686676
C   C83       1.0  0.74612  0.01818  0.55684  1.0000 -0.0868686676
C   C84       1.0  0.55684  0.74612  0.01818  1.0000 -0.0868686676
C   C85       1.0  0.50640  0.92151  0.85288  1.0000 -0.0205701127
C   C86       1.0  0.92151  0.85288  0.50640  1.0000 -0.0205701127
C   C87       1.0  0.85288  0.50640  0.92151  1.0000 -0.0205701127
C   C88       1.0  0.07849  0.49360  0.14712  1.0000 -0.0205701127
C   C89       1.0  0.14712  0.07849  0.49360  1.0000 -0.0205701127
C   C90       1.0  0.49360  0.14712  0.07849  1.0000 -0.0205701127
C   C91       1.0  0.49360  0.07849  0.14712  1.0000 -0.0205701127
C   C92       1.0  0.07849  0.14712  0.49360  1.0000 -0.0205701127
C   C93       1.0  0.14712  0.49360  0.07849  1.0000 -0.0205701127
C   C94       1.0  0.92151  0.50640  0.85288  1.0000 -0.0205701127
C   C95       1.0  0.85288  0.92151  0.50640  1.0000 -0.0205701127
C   C96       1.0  0.50640  0.85288  0.92151  1.0000 -0.0205701127
C   C97       1.0  0.50456  0.97669  0.90985  1.0000 -0.1987784397
C   C98       1.0  0.97669  0.90985  0.50456  1.0000 -0.1987784397
C   C99       1.0  0.90985  0.50456  0.97669  1.0000 -0.1987784397
C   C100      1.0  0.02331  0.49544  0.09015  1.0000 -0.1987784397
C   C101      1.0  0.09015  0.02331  0.49544  1.0000 -0.1987784397
C   C102      1.0  0.49544  0.09015  0.02331  1.0000 -0.1987784397
C   C103      1.0  0.49544  0.02331  0.09015  1.0000 -0.1987784397
C   C104      1.0  0.02331  0.09015  0.49544  1.0000 -0.1987784397
C   C105      1.0  0.09015  0.49544  0.02331  1.0000 -0.1987784397
C   C106      1.0  0.97669  0.50456  0.90985  1.0000 -0.1987784397
C   C107      1.0  0.90985  0.97669  0.50456  1.0000 -0.1987784397
C   C108      1.0  0.50456  0.90985  0.97669  1.0000 -0.1987784397
C   C109      1.0  0.50412  0.97304  0.97304  1.0000 0.0719049677
C   C110      1.0  0.97304  0.97304  0.50412  1.0000 0.0719049677
C   C111      1.0  0.97304  0.50412  0.97304  1.0000 0.0719049677
C   C112      1.0  0.02696  0.49588  0.02696  1.0000 0.0719049677
C   C113      1.0  0.02696  0.02696  0.49588  1.0000 0.0719049677
C   C114      1.0  0.49588  0.02696  0.02696  1.0000 0.0719049677
C   C115      1.0  0.50750  0.85990  0.85990  1.0000 0.1553155068
C   C116      1.0  0.85990  0.85990  0.50750  1.0000 0.1553155068
C   C117      1.0  0.85990  0.50750  0.85990  1.0000 0.1553155068
C   C118      1.0  0.14010  0.49250  0.14010  1.0000 0.1553155068
C   C119      1.0  0.14010  0.14010  0.49250  1.0000 0.1553155068
C   C120      1.0  0.49250  0.14010  0.14010  1.0000 0.1553155068
C   C121      1.0  0.58102  0.81924  0.81924  1.0000 0.0177490326
C   C122      1.0  0.81924  0.81924  0.58102  1.0000 0.0177490326
C   C123      1.0  0.81924  0.58102  0.81924  1.0000 0.0177490326
C   C124      1.0  0.18076  0.41898  0.18076  1.0000 0.0177490326
C   C125      1.0  0.18076  0.18076  0.41898  1.0000 0.0177490326
C   C126      1.0  0.41898  0.18076  0.18076  1.0000 0.0177490326
C   C127      1.0  0.55942  0.74574  0.74574  1.0000 -0.3768812335
C   C128      1.0  0.74574  0.74574  0.55942  1.0000 -0.3768812335
C   C129      1.0  0.74574  0.55942  0.74574  1.0000 -0.3768812335
C   C130      1.0  0.25426  0.44058  0.25426  1.0000 -0.3768812335
C   C131      1.0  0.25426  0.25426  0.44058  1.0000 -0.3768812335
C   C132      1.0  0.44058  0.25426  0.25426  1.0000 -0.3768812335
O   O1        1.0  0.54953  0.04315  0.62730  1.0000 -0.5195447744
O   O2        1.0  0.04315  0.62730  0.54953  1.0000 -0.5195447744
O   O3        1.0  0.62730  0.54953  0.04315  1.0000 -0.5195447744
O   O4        1.0  0.95685  0.45047  0.37270  1.0000 -0.5195447744
O   O5        1.0  0.37270  0.95685  0.45047  1.0000 -0.5195447744
O   O6        1.0  0.45047  0.37270  0.95685  1.0000 -0.5195447744
O   O7        1.0  0.45047  0.95685  0.37270  1.0000 -0.5195447744
O   O8        1.0  0.95685  0.37270  0.45047  1.0000 -0.5195447744
O   O9        1.0  0.37270  0.45047  0.95685  1.0000 -0.5195447744
O   O10       1.0  0.04315  0.54953  0.62730  1.0000 -0.5195447744
O   O11       1.0  0.62730  0.04315  0.54953  1.0000 -0.5195447744
O   O12       1.0  0.54953  0.62730  0.04315  1.0000 -0.5195447744
O   O13       1.0  0.45827  0.91450  0.53596  1.0000 -0.5195447744
O   O14       1.0  0.91450  0.53596  0.45827  1.0000 -0.5195447744
O   O15       1.0  0.53596  0.45827  0.91450  1.0000 -0.5195447744
O   O16       1.0  0.08550  0.54173  0.46404  1.0000 -0.5195447744
O   O17       1.0  0.46404  0.08550  0.54173  1.0000 -0.5195447744
O   O18       1.0  0.54173  0.46404  0.08550  1.0000 -0.5195447744
O   O19       1.0  0.54173  0.08550  0.46404  1.0000 -0.5195447744
O   O20       1.0  0.08550  0.46404  0.54173  1.0000 -0.5195447744
O   O21       1.0  0.46404  0.54173  0.08550  1.0000 -0.5195447744
O   O22       1.0  0.91450  0.45827  0.53596  1.0000 -0.5195447744
O   O23       1.0  0.53596  0.91450  0.45827  1.0000 -0.5195447744
O   O24       1.0  0.45827  0.53596  0.91450  1.0000 -0.5195447744
O   O25       1.0  0.50554  0.80253  0.80253  1.0000 -0.2508646291
O   O26       1.0  0.80253  0.80253  0.50554  1.0000 -0.2508646291
O   O27       1.0  0.80253  0.50554  0.80253  1.0000 -0.2508646291
O   O28       1.0  0.19747  0.49446  0.19747  1.0000 -0.2508646291
O   O29       1.0  0.19747  0.19747  0.49446  1.0000 -0.2508646291
O   O30       1.0  0.49446  0.19747  0.19747  1.0000 -0.2508646291
