# DDEC6 charges by PACMAN v1.1 (https://github.com/mtap-research/PACMAN-charge/)
data_2016[Tm][nan]3[ASR]1
_chemical_formula_sum              "Tm4 H12 C36 O24"
_cell_length_a       10.2
_cell_length_b       10.2
_cell_length_c       14.4386
_cell_angle_alpha    90
_cell_angle_beta     90
_cell_angle_gamma    90

_symmetry_space_group_name_H-M    "P 1"
_symmetry_Int_Tables_number       1

loop_
  _symmetry_equiv_pos_as_xyz
  'x, y, z'

loop_
  _atom_site_type_symbol
  _atom_site_label
  _atom_site_symmetry_multiplicity
  _atom_site_fract_x
  _atom_site_fract_y
  _atom_site_fract_z
  _atom_site_occupancy
  _atom_site_charge
Tm  Tm1       1.0  0.14978  0.85022  0.12500  1.0000 2.1233264932
Tm  Tm2       1.0  0.85022  0.14978  0.62500  1.0000 2.1233264932
Tm  Tm3       1.0  0.14978  0.14978  0.37500  1.0000 2.1233264932
Tm  Tm4       1.0  0.85022  0.85022  0.87500  1.0000 2.1233264932
H   H1        1.0  0.55930  0.92720  0.11980  1.0000 0.1394523902
H   H2        1.0  0.44070  0.07280  0.61980  1.0000 0.1394523902
H   H3        1.0  0.55930  0.07280  0.38020  1.0000 0.1394523902
H   H4        1.0  0.44070  0.92720  0.88020  1.0000 0.1394523902
H   H5        1.0  0.07280  0.44070  0.13020  1.0000 0.1394523902
H   H6        1.0  0.92720  0.55930  0.63020  1.0000 0.1394523902
H   H7        1.0  0.92720  0.44070  0.86980  1.0000 0.1394523902
H   H8        1.0  0.07280  0.55930  0.36980  1.0000 0.1394523902
H   H9        1.0  0.90130  0.00000  0.25000  1.0000 0.1148308122
H   H10       1.0  0.09870  0.00000  0.75000  1.0000 0.1148308122
H   H11       1.0  0.00000  0.09870  0.00000  1.0000 0.1148308122
H   H12       1.0  0.00000  0.90130  0.50000  1.0000 0.1148308122
C   C1        1.0  0.81890  0.91150  0.08980  1.0000 0.6562882269
C   C2        1.0  0.18110  0.08850  0.58980  1.0000 0.6562882269
C   C3        1.0  0.81890  0.08850  0.41020  1.0000 0.6562882269
C   C4        1.0  0.18110  0.91150  0.91020  1.0000 0.6562882269
C   C5        1.0  0.08850  0.18110  0.16020  1.0000 0.6562882269
C   C6        1.0  0.91150  0.81890  0.66020  1.0000 0.6562882269
C   C7        1.0  0.91150  0.18110  0.83980  1.0000 0.6562882269
C   C8        1.0  0.08850  0.81890  0.33980  1.0000 0.6562882269
C   C9        1.0  0.74060  0.95840  0.17270  1.0000 -0.0322975779
C   C10       1.0  0.25940  0.04160  0.67270  1.0000 -0.0322975779
C   C11       1.0  0.74060  0.04160  0.32730  1.0000 -0.0322975779
C   C12       1.0  0.25940  0.95840  0.82730  1.0000 -0.0322975779
C   C13       1.0  0.04160  0.25940  0.07730  1.0000 -0.0322975779
C   C14       1.0  0.95840  0.74060  0.57730  1.0000 -0.0322975779
C   C15       1.0  0.95840  0.25940  0.92270  1.0000 -0.0322975779
C   C16       1.0  0.04160  0.74060  0.42270  1.0000 -0.0322975779
C   C17       1.0  0.53750  0.00000  0.25000  1.0000 -0.0382557793
C   C18       1.0  0.46250  0.00000  0.75000  1.0000 -0.0382557793
C   C19       1.0  0.00000  0.46250  0.00000  1.0000 -0.0382557793
C   C20       1.0  0.00000  0.53750  0.50000  1.0000 -0.0382557793
C   C21       1.0  0.60570  0.95730  0.17270  1.0000 -0.0954991413
C   C22       1.0  0.39430  0.04270  0.67270  1.0000 -0.0954991413
C   C23       1.0  0.60570  0.04270  0.32730  1.0000 -0.0954991413
C   C24       1.0  0.39430  0.95730  0.82730  1.0000 -0.0954991413
C   C25       1.0  0.04270  0.39430  0.07730  1.0000 -0.0954991413
C   C26       1.0  0.95730  0.60570  0.57730  1.0000 -0.0954991413
C   C27       1.0  0.95730  0.39430  0.92270  1.0000 -0.0954991413
C   C28       1.0  0.04270  0.60570  0.42270  1.0000 -0.0954991413
C   C29       1.0  0.80820  0.00000  0.25000  1.0000 -0.114407506
C   C30       1.0  0.19180  0.00000  0.75000  1.0000 -0.114407506
C   C31       1.0  0.00000  0.19180  0.00000  1.0000 -0.114407506
C   C32       1.0  0.00000  0.80820  0.50000  1.0000 -0.114407506
C   C33       1.0  0.38980  0.00000  0.25000  1.0000 0.6816223839
C   C34       1.0  0.61020  0.00000  0.75000  1.0000 0.6816223839
C   C35       1.0  0.00000  0.61020  0.00000  1.0000 0.6816223839
C   C36       1.0  0.00000  0.38980  0.50000  1.0000 0.6816223839
O   O1        1.0  0.33500  0.92650  0.19190  1.0000 -0.6947246406
O   O2        1.0  0.66500  0.07350  0.69190  1.0000 -0.6947246406
O   O3        1.0  0.33500  0.07350  0.30810  1.0000 -0.6947246406
O   O4        1.0  0.66500  0.92650  0.80810  1.0000 -0.6947246406
O   O5        1.0  0.07350  0.66500  0.05810  1.0000 -0.6955766549
O   O6        1.0  0.92650  0.33500  0.55810  1.0000 -0.6947246406
O   O7        1.0  0.92650  0.66500  0.94190  1.0000 -0.6947246406
O   O8        1.0  0.07350  0.33500  0.44190  1.0000 -0.6947246406
O   O9        1.0  0.93520  0.88520  0.10010  1.0000 -0.6747506803
O   O10       1.0  0.06480  0.11480  0.60010  1.0000 -0.6747506803
O   O11       1.0  0.93520  0.11480  0.39990  1.0000 -0.6747506803
O   O12       1.0  0.06480  0.88520  0.89990  1.0000 -0.6747506803
O   O13       1.0  0.11480  0.06480  0.14990  1.0000 -0.6747506803
O   O14       1.0  0.88520  0.93520  0.64990  1.0000 -0.6747506803
O   O15       1.0  0.88520  0.06480  0.85010  1.0000 -0.6747506803
O   O16       1.0  0.11480  0.93520  0.35010  1.0000 -0.6747506803
O   O17       1.0  0.76010  0.90390  0.01280  1.0000 -0.6819202772
O   O18       1.0  0.23990  0.09610  0.51280  1.0000 -0.6819202772
O   O19       1.0  0.76010  0.09610  0.48720  1.0000 -0.6819202772
O   O20       1.0  0.23990  0.90390  0.98720  1.0000 -0.6819202772
O   O21       1.0  0.09610  0.23990  0.23720  1.0000 -0.6819202772
O   O22       1.0  0.90390  0.76010  0.73720  1.0000 -0.6819202772
O   O23       1.0  0.90390  0.23990  0.76280  1.0000 -0.6819202772
O   O24       1.0  0.09610  0.76010  0.26280  1.0000 -0.6819202772
