# DDEC6 charges by PACMAN v1.1 (https://github.com/mtap-research/PACMAN-charge/)
data_2016[Co][pcu]3[ASR]2
_chemical_formula_sum              "Co2 H40 C64 N8 O14"
_cell_length_a       10.119
_cell_length_b       13.671
_cell_length_c       15.009
_cell_angle_alpha    111.271
_cell_angle_beta     101.926
_cell_angle_gamma    99.461

_symmetry_space_group_name_H-M    "P 1"
_symmetry_Int_Tables_number       1

loop_
  _symmetry_equiv_pos_as_xyz
  'x, y, z'

loop_
  _atom_site_type_symbol
  _atom_site_label
  _atom_site_symmetry_multiplicity
  _atom_site_fract_x
  _atom_site_fract_y
  _atom_site_fract_z
  _atom_site_occupancy
  _atom_site_charge
Co  Co1       1.0  0.53041  0.51156  0.15017  1.0000 0.8538586337
Co  Co2       1.0  0.46959  0.48844  0.84983  1.0000 0.8538586337
H   H1        1.0  0.81210  0.69270  0.25140  1.0000 0.1198135485
H   H2        1.0  0.18790  0.30730  0.74860  1.0000 0.1198135485
H   H3        1.0  0.90000  0.87660  0.34580  1.0000 0.1477868352
H   H4        1.0  0.10000  0.12340  0.65420  1.0000 0.1477868352
H   H5        1.0  0.50220  0.89770  0.31480  1.0000 0.1477868352
H   H6        1.0  0.49780  0.10230  0.68520  1.0000 0.1477868352
H   H7        1.0  0.43000  0.71340  0.22380  1.0000 0.1198135485
H   H8        1.0  0.57000  0.28660  0.77620  1.0000 0.1198135485
H   H9        1.0  0.02180  0.28210  0.45030  1.0000 0.1198135485
H   H10       1.0  0.97820  0.71790  0.54970  1.0000 0.1198135485
H   H11       1.0  0.04090  0.45570  0.56180  1.0000 0.1398890032
H   H12       1.0  0.95910  0.54430  0.43820  1.0000 0.1398890032
H   H13       1.0  0.79280  0.33333  0.69130  1.0000 0.1477868352
H   H14       1.0  0.20720  0.66667  0.30870  1.0000 0.1477868352
H   H15       1.0  0.76980  0.16030  0.57890  1.0000 0.1270973261
H   H16       1.0  0.23020  0.83970  0.42110  1.0000 0.1270973261
H   H17       1.0  0.18320  0.56320  0.73160  1.0000 0.1477868352
H   H18       1.0  0.81680  0.43680  0.26840  1.0000 0.1477868352
H   H19       1.0  0.32550  0.73720  0.79210  1.0000 0.1270973261
H   H20       1.0  0.67450  0.26280  0.20790  1.0000 0.1270973261
H   H21       1.0  0.99450  0.85950  0.81260  1.0000 0.1270973261
H   H22       1.0  0.00550  0.14050  0.18740  1.0000 0.1270973261
H   H23       1.0  0.84850  0.68590  0.74320  1.0000 0.1398890032
H   H24       1.0  0.15150  0.31410  0.25680  1.0000 0.1398890032
H   H25       1.0  0.44720  0.12560  0.89880  1.0000 0.1477868352
H   H26       1.0  0.55280  0.87440  0.10120  1.0000 0.1477868352
H   H27       1.0  0.54850  0.30460  0.98370  1.0000 0.1126626197
H   H28       1.0  0.45150  0.69540  0.01630  1.0000 0.1126626197
H   H29       1.0  0.30000  0.33270  0.14790  1.0000 0.1126626197
H   H30       1.0  0.70000  0.66730  0.85210  1.0000 0.1126626197
H   H31       1.0  0.19770  0.15190  0.07290  1.0000 0.1398890032
H   H32       1.0  0.80230  0.84810  0.92710  1.0000 0.1398890032
H   H33       1.0  0.69280  0.47010  0.44600  1.0000 0.1270973261
H   H34       1.0  0.30720  0.52990  0.55400  1.0000 0.1270973261
H   H35       1.0  0.68000  0.46460  0.59490  1.0000 0.1198135485
H   H36       1.0  0.32000  0.53540  0.40510  1.0000 0.1198135485
H   H37       1.0  0.81980  0.47940  0.86540  1.0000 0.1198135485
H   H38       1.0  0.18020  0.52060  0.13460  1.0000 0.1198135485
H   H39       1.0  0.04320  0.48610  0.85150  1.0000 0.1198135485
H   H40       1.0  0.95680  0.51390  0.14850  1.0000 0.1198135485
C   C1        1.0  0.74930  0.73480  0.26500  1.0000 0.0911015583
C   C2        1.0  0.25070  0.26520  0.73500  1.0000 0.0911015583
C   C3        1.0  0.80390  0.84560  0.32200  1.0000 -0.184070417
C   C4        1.0  0.19610  0.15440  0.67800  1.0000 -0.184070417
C   C5        1.0  0.71060  0.90880  0.34240  1.0000 0.2831516329
C   C6        1.0  0.28940  0.09120  0.65760  1.0000 0.2831516329
C   C7        1.0  0.56770  0.85770  0.30360  1.0000 -0.1898101406
C   C8        1.0  0.43230  0.14230  0.69640  1.0000 -0.1898101406
C   C9        1.0  0.52560  0.74670  0.24840  1.0000 0.0911015583
C   C10       1.0  0.47440  0.25330  0.75160  1.0000 0.0911015583
C   C11       1.0  0.87730  0.09120  0.42640  1.0000 0.4592073995
C   C12       1.0  0.12270  0.90880  0.57360  1.0000 0.4592073995
C   C13       1.0  0.89140  0.20290  0.50150  1.0000 -0.008222698
C   C14       1.0  0.10860  0.79710  0.49850  1.0000 -0.008222698
C   C15       1.0  0.97410  0.29240  0.49830  1.0000 -0.0703830153
C   C16       1.0  0.02590  0.70760  0.50170  1.0000 -0.0703830153
C   C17       1.0  0.98640  0.39600  0.56500  1.0000 -0.2069560848
C   C18       1.0  0.01360  0.60400  0.43500  1.0000 -0.2027848643
C   C19       1.0  0.91730  0.41060  0.63660  1.0000 0.2421127695
C   C20       1.0  0.08270  0.58940  0.36340  1.0000 0.2421127695
C   C21       1.0  0.83800  0.32270  0.64180  1.0000 -0.1898101406
C   C22       1.0  0.16200  0.67730  0.35820  1.0000 -0.1898101406
C   C23       1.0  0.82440  0.21940  0.57490  1.0000 -0.0703830153
C   C24       1.0  0.17560  0.78060  0.42510  1.0000 -0.0703830153
C   C25       1.0  0.00260  0.60840  0.73100  1.0000 0.2464142728
C   C26       1.0  0.99740  0.39160  0.26900  1.0000 0.2464142728
C   C27       1.0  0.14530  0.62270  0.74650  1.0000 -0.2027848643
C   C28       1.0  0.85470  0.37730  0.25350  1.0000 -0.2027848643
C   C29       1.0  0.23000  0.72670  0.78430  1.0000 -0.0646468562
C   C30       1.0  0.77000  0.27330  0.21570  1.0000 -0.0646468562
C   C31       1.0  0.17500  0.81660  0.81120  1.0000 -0.008222698
C   C32       1.0  0.82500  0.18340  0.18880  1.0000 -0.008222698
C   C33       1.0  0.03220  0.79990  0.79540  1.0000 -0.0752942276
C   C34       1.0  0.96780  0.20010  0.20460  1.0000 -0.0752942276
C   C35       1.0  0.94470  0.69660  0.75470  1.0000 -0.2027848643
C   C36       1.0  0.05530  0.30340  0.24530  1.0000 -0.2027848643
C   C37       1.0  0.27400  0.92680  0.85450  1.0000 0.4592073995
C   C38       1.0  0.72600  0.07320  0.14550  1.0000 0.4592073995
C   C39       1.0  0.30930  0.11520  0.97500  1.0000 0.2831516329
C   C40       1.0  0.69070  0.88480  0.02500  1.0000 0.2831516329
C   C41       1.0  0.41550  0.16590  0.95070  1.0000 -0.184070417
C   C42       1.0  0.58450  0.83410  0.04930  1.0000 -0.184070417
C   C43       1.0  0.47490  0.27390  0.00160  1.0000 0.0911015583
C   C44       1.0  0.52510  0.72610  0.99840  1.0000 0.0911015583
C   C45       1.0  0.33200  0.28990  0.09730  1.0000 0.0818673845
C   C46       1.0  0.66800  0.71010  0.90270  1.0000 0.0818673845
C   C47       1.0  0.26850  0.18130  0.05190  1.0000 -0.1898101406
C   C48       1.0  0.73150  0.81870  0.94810  1.0000 -0.1898101406
C   C49       1.0  0.51670  0.50790  0.31310  1.0000 0.5326679785
C   C50       1.0  0.48330  0.49210  0.68690  1.0000 0.5326679785
C   C51       1.0  0.50940  0.50410  0.41040  1.0000 -0.0018422255
C   C52       1.0  0.49060  0.49590  0.58960  1.0000 -0.0018422255
C   C53       1.0  0.61500  0.48240  0.46770  1.0000 -0.1005985776
C   C54       1.0  0.38500  0.51760  0.53230  1.0000 -0.1005985776
C   C55       1.0  0.60710  0.47870  0.55650  1.0000 -0.1005985776
C   C56       1.0  0.39290  0.52130  0.44350  1.0000 -0.1005985776
C   C57       1.0  0.89180  0.48810  0.91960  1.0000 -0.1005985776
C   C58       1.0  0.10820  0.51190  0.08040  1.0000 -0.1005985776
C   C59       1.0  0.02610  0.49130  0.91130  1.0000 -0.1005985776
C   C60       1.0  0.97390  0.50870  0.08870  1.0000 -0.1005985776
C   C61       1.0  0.13540  0.50220  0.98990  1.0000 -0.0281541545
C   C62       1.0  0.86460  0.49780  0.01010  1.0000 -0.0281541545
C   C63       1.0  0.27990  0.51020  0.98150  1.0000 0.5754155356
C   C64       1.0  0.72010  0.48980  0.01850  1.0000 0.5754155356
N   N1        1.0  0.61230  0.68420  0.22810  1.0000 -0.247070716
N   N2        1.0  0.38770  0.31580  0.77190  1.0000 -0.247070716
N   N3        1.0  0.75010  0.02060  0.40140  1.0000 -0.4432229411
N   N4        1.0  0.24990  0.97940  0.59860  1.0000 -0.4432229411
N   N5        1.0  0.23800  0.00560  0.92650  1.0000 -0.4504892391
N   N6        1.0  0.76200  0.99440  0.07350  1.0000 -0.4504892391
N   N7        1.0  0.43580  0.33900  0.07490  1.0000 -0.2428921622
N   N8        1.0  0.56420  0.66100  0.92510  1.0000 -0.2428921622
O   O1        1.0  0.97090  0.06710  0.39040  1.0000 -0.4504892391
O   O2        1.0  0.02910  0.93290  0.60960  1.0000 -0.4504892391
O   O3        1.0  0.90880  0.50860  0.70160  1.0000 -0.2069560848
O   O4        1.0  0.09120  0.49140  0.29840  1.0000 -0.2069560848
O   O5        1.0  0.38000  0.94340  0.82990  1.0000 -0.4504892391
O   O6        1.0  0.62000  0.05660  0.17010  1.0000 -0.4504892391
O   O7        1.0  0.62360  0.49550  0.28550  1.0000 -0.5138243597
O   O8        1.0  0.37640  0.50450  0.71450  1.0000 -0.5138243597
O   O9        1.0  0.41520  0.52440  0.26120  1.0000 -0.5359640282
O   O10       1.0  0.58480  0.47560  0.73880  1.0000 -0.5359640282
O   O11       1.0  0.37740  0.53650  0.05880  1.0000 -0.5536614817
O   O12       1.0  0.62260  0.46350  0.94120  1.0000 -0.5536614817
O   O13       1.0  0.29550  0.49370  0.89640  1.0000 -0.5289421838
O   O14       1.0  0.70450  0.50630  0.10360  1.0000 -0.5289421838
