# DDEC6 charges by PACMAN v1.1 (https://github.com/mtap-research/PACMAN-charge/)
data_2016[Mn][tbo]3[ASR]1
_chemical_formula_sum              "Mn12 H24 C72 Cl12 O48"
_cell_length_a       18.93
_cell_length_b       18.93
_cell_length_c       18.93
_cell_angle_alpha    60
_cell_angle_beta     60
_cell_angle_gamma    60

_symmetry_space_group_name_H-M    "P 1"
_symmetry_Int_Tables_number       1

loop_
  _symmetry_equiv_pos_as_xyz
  'x, y, z'

loop_
  _atom_site_type_symbol
  _atom_site_label
  _atom_site_symmetry_multiplicity
  _atom_site_fract_x
  _atom_site_fract_y
  _atom_site_fract_z
  _atom_site_occupancy
  _atom_site_charge
Mn  Mn1       1.0  0.00000  0.00000  0.41554  1.0000 1.0344926592
Mn  Mn2       1.0  0.00000  0.00000  0.58446  1.0000 1.036731505
Mn  Mn3       1.0  0.41554  0.58446  0.00000  1.0000 1.036731505
Mn  Mn4       1.0  0.58446  0.41554  0.00000  1.0000 1.036731505
Mn  Mn5       1.0  0.41554  0.00000  0.00000  1.0000 1.036731505
Mn  Mn6       1.0  0.58446  0.00000  0.00000  1.0000 1.036731505
Mn  Mn7       1.0  1.00000  0.41554  0.58446  1.0000 1.036731505
Mn  Mn8       1.0  0.00000  0.58446  0.41554  1.0000 1.0344926592
Mn  Mn9       1.0  0.00000  0.41554  0.00000  1.0000 1.036731505
Mn  Mn10      1.0  0.00000  0.58446  0.00000  1.0000 1.036731505
Mn  Mn11      1.0  0.58446  0.00000  0.41554  1.0000 1.036731505
Mn  Mn12      1.0  0.41554  0.00000  0.58446  1.0000 1.036731505
H   H1        1.0  0.72820  0.02840  0.51520  1.0000 0.1573196123
H   H2        1.0  0.02840  0.72820  0.72820  1.0000 0.1573196123
H   H3        1.0  0.51520  0.72820  0.72820  1.0000 0.1573196123
H   H4        1.0  0.72820  0.51520  0.02840  1.0000 0.1573196123
H   H5        1.0  0.51520  0.72820  0.02840  1.0000 0.1573196123
H   H6        1.0  0.72820  0.02840  0.72820  1.0000 0.1573196123
H   H7        1.0  0.72820  0.51520  0.72820  1.0000 0.1573196123
H   H8        1.0  0.02840  0.72820  0.51520  1.0000 0.1573196123
H   H9        1.0  0.02840  0.51520  0.72820  1.0000 0.1573196123
H   H10       1.0  0.72820  0.72820  0.02840  1.0000 0.1573196123
H   H11       1.0  0.72820  0.72820  0.51520  1.0000 0.1573196123
H   H12       1.0  0.51520  0.02840  0.72820  1.0000 0.1573196123
H   H13       1.0  0.27180  0.97160  0.27180  1.0000 0.1573196123
H   H14       1.0  0.97160  0.27180  0.48480  1.0000 0.1573196123
H   H15       1.0  0.48480  0.27180  0.97160  1.0000 0.1573196123
H   H16       1.0  0.27180  0.48480  0.27180  1.0000 0.1573196123
H   H17       1.0  0.48480  0.27180  0.27180  1.0000 0.1573196123
H   H18       1.0  0.27180  0.97160  0.48480  1.0000 0.1573196123
H   H19       1.0  0.27180  0.48480  0.97160  1.0000 0.1573196123
H   H20       1.0  0.97160  0.27180  0.27180  1.0000 0.1573196123
H   H21       1.0  0.97160  0.48480  0.27180  1.0000 0.1573196123
H   H22       1.0  0.27180  0.27180  0.48480  1.0000 0.1573196123
H   H23       1.0  0.27180  0.27180  0.97160  1.0000 0.1573196123
H   H24       1.0  0.48480  0.97160  0.27180  1.0000 0.1573196123
C   C1        1.0  0.74080  0.02920  0.61500  1.0000 0.0032650117
C   C2        1.0  0.02920  0.74080  0.61500  1.0000 0.0032650117
C   C3        1.0  0.61500  0.61500  0.74080  1.0000 0.0032650117
C   C4        1.0  0.61500  0.61500  0.02920  1.0000 0.0032650117
C   C5        1.0  0.61500  0.74080  0.02920  1.0000 0.0032650117
C   C6        1.0  0.61500  0.02920  0.74080  1.0000 0.0032650117
C   C7        1.0  0.74080  0.61500  0.61500  1.0000 0.0032650117
C   C8        1.0  0.02920  0.61500  0.61500  1.0000 0.0032650117
C   C9        1.0  0.02920  0.61500  0.74080  1.0000 0.0032650117
C   C10       1.0  0.74080  0.61500  0.02920  1.0000 0.0032650117
C   C11       1.0  0.61500  0.74080  0.61500  1.0000 0.0032650117
C   C12       1.0  0.61500  0.02920  0.61500  1.0000 0.0032650117
C   C13       1.0  0.25920  0.97080  0.38500  1.0000 0.0032650117
C   C14       1.0  0.97080  0.25920  0.38500  1.0000 0.0032650117
C   C15       1.0  0.38500  0.38500  0.97080  1.0000 0.0032650117
C   C16       1.0  0.38500  0.38500  0.25920  1.0000 0.0032650117
C   C17       1.0  0.38500  0.25920  0.38500  1.0000 0.0032650117
C   C18       1.0  0.38500  0.97080  0.38500  1.0000 0.0032650117
C   C19       1.0  0.25920  0.38500  0.97080  1.0000 0.0032650117
C   C20       1.0  0.97080  0.38500  0.25920  1.0000 0.0032650117
C   C21       1.0  0.97080  0.38500  0.38500  1.0000 0.0032650117
C   C22       1.0  0.25920  0.38500  0.38500  1.0000 0.0032650117
C   C23       1.0  0.38500  0.25920  0.97080  1.0000 0.0032650117
C   C24       1.0  0.38500  0.97080  0.25920  1.0000 0.0032650117
C   C25       1.0  0.69880  0.02860  0.57380  1.0000 -0.0753765375
C   C26       1.0  0.02860  0.69880  0.69880  1.0000 -0.0753765375
C   C27       1.0  0.57380  0.69880  0.69880  1.0000 -0.0753765375
C   C28       1.0  0.69880  0.57380  0.02860  1.0000 -0.0753765375
C   C29       1.0  0.57380  0.69880  0.02860  1.0000 -0.0753765375
C   C30       1.0  0.69880  0.02860  0.69880  1.0000 -0.0753765375
C   C31       1.0  0.69880  0.57380  0.69880  1.0000 -0.0753765375
C   C32       1.0  0.02860  0.69880  0.57380  1.0000 -0.0753765375
C   C33       1.0  0.02860  0.57380  0.69880  1.0000 -0.0746112812
C   C34       1.0  0.69880  0.69880  0.02860  1.0000 -0.0753765375
C   C35       1.0  0.69880  0.69880  0.57380  1.0000 -0.0753765375
C   C36       1.0  0.57380  0.02860  0.69880  1.0000 -0.0753765375
C   C37       1.0  0.30120  0.97140  0.30120  1.0000 -0.0753765375
C   C38       1.0  0.97140  0.30120  0.42620  1.0000 -0.0753765375
C   C39       1.0  0.42620  0.30120  0.97140  1.0000 -0.0753765375
C   C40       1.0  0.30120  0.42620  0.30120  1.0000 -0.0746112812
C   C41       1.0  0.42620  0.30120  0.30120  1.0000 -0.0746112812
C   C42       1.0  0.30120  0.97140  0.42620  1.0000 -0.0753765375
C   C43       1.0  0.30120  0.42620  0.97140  1.0000 -0.0753765375
C   C44       1.0  0.97140  0.30120  0.30120  1.0000 -0.0753765375
C   C45       1.0  0.97140  0.42620  0.30120  1.0000 -0.0753765375
C   C46       1.0  0.30120  0.30120  0.42620  1.0000 -0.0746112812
C   C47       1.0  0.30120  0.30120  0.97140  1.0000 -0.0753765375
C   C48       1.0  0.42620  0.97140  0.30120  1.0000 -0.0753765375
C   C49       1.0  0.83480  0.02480  0.57020  1.0000 0.5998756365
C   C50       1.0  0.02480  0.83480  0.57020  1.0000 0.5998756365
C   C51       1.0  0.57020  0.57020  0.83480  1.0000 0.5998756365
C   C52       1.0  0.57020  0.57020  0.02480  1.0000 0.5998756365
C   C53       1.0  0.57020  0.83480  0.02480  1.0000 0.5998756365
C   C54       1.0  0.57020  0.02480  0.83480  1.0000 0.5998756365
C   C55       1.0  0.83480  0.57020  0.57020  1.0000 0.5998756365
C   C56       1.0  0.02480  0.57020  0.57020  1.0000 0.5998756365
C   C57       1.0  0.02480  0.57020  0.83480  1.0000 0.5998756365
C   C58       1.0  0.83480  0.57020  0.02480  1.0000 0.5998756365
C   C59       1.0  0.57020  0.83480  0.57020  1.0000 0.5998756365
C   C60       1.0  0.57020  0.02480  0.57020  1.0000 0.5998756365
C   C61       1.0  0.16520  0.97520  0.42980  1.0000 0.5998756365
C   C62       1.0  0.97520  0.16520  0.42980  1.0000 0.5998756365
C   C63       1.0  0.42980  0.42980  0.97520  1.0000 0.5998756365
C   C64       1.0  0.42980  0.42980  0.16520  1.0000 0.5998756365
C   C65       1.0  0.42980  0.16520  0.42980  1.0000 0.5998756365
C   C66       1.0  0.42980  0.97520  0.42980  1.0000 0.5998756365
C   C67       1.0  0.16520  0.42980  0.97520  1.0000 0.5998756365
C   C68       1.0  0.97520  0.42980  0.16520  1.0000 0.5998756365
C   C69       1.0  0.97520  0.42980  0.42980  1.0000 0.5998756365
C   C70       1.0  0.16520  0.42980  0.42980  1.0000 0.5998756365
C   C71       1.0  0.42980  0.16520  0.97520  1.0000 0.5998756365
C   C72       1.0  0.42980  0.97520  0.16520  1.0000 0.5998756365
Cl  Cl1       1.0  0.00000  0.00000  0.29078  1.0000 -0.4891765464
Cl  Cl2       1.0  0.00000  0.00000  0.70922  1.0000 -0.4891765464
Cl  Cl3       1.0  0.29078  0.70922  0.00000  1.0000 -0.4891765464
Cl  Cl4       1.0  0.70922  0.29078  0.00000  1.0000 -0.4891765464
Cl  Cl5       1.0  0.29078  0.00000  0.00000  1.0000 -0.4891765464
Cl  Cl6       1.0  0.70922  0.00000  0.00000  1.0000 -0.4891765464
Cl  Cl7       1.0  0.00000  0.29078  0.70922  1.0000 -0.4891765464
Cl  Cl8       1.0  0.00000  0.70922  0.29078  1.0000 -0.4891765464
Cl  Cl9       1.0  0.00000  0.29078  0.00000  1.0000 -0.4891765464
Cl  Cl10      1.0  0.00000  0.70922  0.00000  1.0000 -0.4891765464
Cl  Cl11      1.0  0.70922  0.00000  0.29078  1.0000 -0.4891765464
Cl  Cl12      1.0  0.29078  0.00000  0.70922  1.0000 -0.4891765464
O   O1        1.0  0.86990  0.02090  0.49650  1.0000 -0.4794010873
O   O2        1.0  0.02090  0.86990  0.61270  1.0000 -0.4794010873
O   O3        1.0  0.49650  0.61270  0.86990  1.0000 -0.4794010873
O   O4        1.0  0.61270  0.49650  0.02090  1.0000 -0.4794010873
O   O5        1.0  0.49650  0.86990  0.02090  1.0000 -0.4794010873
O   O6        1.0  0.61270  0.02090  0.86990  1.0000 -0.4794010873
O   O7        1.0  0.86990  0.49650  0.61270  1.0000 -0.4794010873
O   O8        1.0  0.02090  0.61270  0.49650  1.0000 -0.4794010873
O   O9        1.0  0.02090  0.49650  0.86990  1.0000 -0.4794010873
O   O10       1.0  0.86990  0.61270  0.02090  1.0000 -0.4794010873
O   O11       1.0  0.61270  0.86990  0.49650  1.0000 -0.4794010873
O   O12       1.0  0.49650  0.02090  0.61270  1.0000 -0.4794010873
O   O13       1.0  0.13010  0.97910  0.38730  1.0000 -0.4794010873
O   O14       1.0  0.97910  0.13010  0.50350  1.0000 -0.4794010873
O   O15       1.0  0.50350  0.38730  0.97910  1.0000 -0.4794010873
O   O16       1.0  0.38730  0.50350  0.13010  1.0000 -0.4794010873
O   O17       1.0  0.50350  0.13010  0.38730  1.0000 -0.4794010873
O   O18       1.0  0.38730  0.97910  0.50350  1.0000 -0.4794010873
O   O19       1.0  0.13010  0.50350  0.97910  1.0000 -0.4794010873
O   O20       1.0  0.97910  0.38730  0.13010  1.0000 -0.4794010873
O   O21       1.0  0.97910  0.50350  0.38730  1.0000 -0.4794010873
O   O22       1.0  0.13010  0.38730  0.50350  1.0000 -0.4794010873
O   O23       1.0  0.38730  0.13010  0.97910  1.0000 -0.4794010873
O   O24       1.0  0.50350  0.97910  0.13010  1.0000 -0.4794010873
O   O25       1.0  0.13010  0.97910  0.50350  1.0000 -0.4794010873
O   O26       1.0  0.97910  0.13010  0.38730  1.0000 -0.4794010873
O   O27       1.0  0.50350  0.38730  0.13010  1.0000 -0.4794010873
O   O28       1.0  0.38730  0.50350  0.97910  1.0000 -0.4794010873
O   O29       1.0  0.50350  0.13010  0.97910  1.0000 -0.4794010873
O   O30       1.0  0.38730  0.97910  0.13010  1.0000 -0.4794010873
O   O31       1.0  0.13010  0.50350  0.38730  1.0000 -0.4794010873
O   O32       1.0  0.97910  0.38730  0.50350  1.0000 -0.4794010873
O   O33       1.0  0.97910  0.50350  0.13010  1.0000 -0.4794010873
O   O34       1.0  0.13010  0.38730  0.97910  1.0000 -0.4794010873
O   O35       1.0  0.38730  0.13010  0.50350  1.0000 -0.4794010873
O   O36       1.0  0.50350  0.97910  0.38730  1.0000 -0.4794010873
O   O37       1.0  0.86990  0.02090  0.61270  1.0000 -0.4794010873
O   O38       1.0  0.02090  0.86990  0.49650  1.0000 -0.4794010873
O   O39       1.0  0.49650  0.61270  0.02090  1.0000 -0.4794010873
O   O40       1.0  0.61270  0.49650  0.86990  1.0000 -0.4794010873
O   O41       1.0  0.49650  0.86990  0.61270  1.0000 -0.4794010873
O   O42       1.0  0.61270  0.02090  0.49650  1.0000 -0.4794010873
O   O43       1.0  0.86990  0.49650  0.02090  1.0000 -0.4794010873
O   O44       1.0  0.02090  0.61270  0.86990  1.0000 -0.4794010873
O   O45       1.0  0.02090  0.49650  0.61270  1.0000 -0.4794010873
O   O46       1.0  0.86990  0.61270  0.49650  1.0000 -0.4794010873
O   O47       1.0  0.61270  0.86990  0.02090  1.0000 -0.4794010873
O   O48       1.0  0.49650  0.02090  0.86990  1.0000 -0.4794010873
