# DDEC6 charges by PACMAN v1.1 (https://github.com/mtap-research/PACMAN-charge/)
data_2016[Cu][nbo]3[ASR]50
_chemical_formula_sum              "Cu6 H96 C138 O30"
_cell_length_a       21.6083
_cell_length_b       21.6083
_cell_length_c       21.6083
_cell_angle_alpha    108.725
_cell_angle_beta     108.725
_cell_angle_gamma    108.725

_symmetry_space_group_name_H-M    "P 1"
_symmetry_Int_Tables_number       1

loop_
  _symmetry_equiv_pos_as_xyz
  'x, y, z'

loop_
  _atom_site_type_symbol
  _atom_site_label
  _atom_site_symmetry_multiplicity
  _atom_site_fract_x
  _atom_site_fract_y
  _atom_site_fract_z
  _atom_site_occupancy
  _atom_site_charge
Cu  Cu1       1.0  0.95305  0.95305  0.42923  1.0000 0.8696146408
Cu  Cu2       1.0  0.95305  0.42923  0.95305  1.0000 0.8696146408
Cu  Cu3       1.0  0.42923  0.95305  0.95305  1.0000 0.8696146408
Cu  Cu4       1.0  0.04695  0.04695  0.57077  1.0000 0.8696146408
Cu  Cu5       1.0  0.57077  0.04695  0.04695  1.0000 0.8696146408
Cu  Cu6       1.0  0.04695  0.57077  0.04695  1.0000 0.8696146408
H   H1        1.0  0.93030  0.11060  0.35020  1.0000 0.1274966492
H   H2        1.0  0.11060  0.35020  0.93030  1.0000 0.1274966492
H   H3        1.0  0.35020  0.93030  0.11060  1.0000 0.1274966492
H   H4        1.0  0.88940  0.06970  0.64980  1.0000 0.1274966492
H   H5        1.0  0.64980  0.88940  0.06970  1.0000 0.1274966492
H   H6        1.0  0.06970  0.64980  0.88940  1.0000 0.1274966492
H   H7        1.0  0.06970  0.88940  0.64980  1.0000 0.1274966492
H   H8        1.0  0.88940  0.64980  0.06970  1.0000 0.1274966492
H   H9        1.0  0.64980  0.06970  0.88940  1.0000 0.1274966492
H   H10       1.0  0.11060  0.93030  0.35020  1.0000 0.1274966492
H   H11       1.0  0.35020  0.11060  0.93030  1.0000 0.1274966492
H   H12       1.0  0.93030  0.35020  0.11060  1.0000 0.1274966492
H   H13       1.0  0.93370  0.20970  0.33080  1.0000 0.1274966492
H   H14       1.0  0.20970  0.33080  0.93370  1.0000 0.1274966492
H   H15       1.0  0.33080  0.93370  0.20970  1.0000 0.1274966492
H   H16       1.0  0.79030  0.06630  0.66920  1.0000 0.1274966492
H   H17       1.0  0.66920  0.79030  0.06630  1.0000 0.1274966492
H   H18       1.0  0.06630  0.66920  0.79030  1.0000 0.1274966492
H   H19       1.0  0.06630  0.79030  0.66920  1.0000 0.1274966492
H   H20       1.0  0.79030  0.66920  0.06630  1.0000 0.1274966492
H   H21       1.0  0.66920  0.06630  0.79030  1.0000 0.1274966492
H   H22       1.0  0.20970  0.93370  0.33080  1.0000 0.1274966492
H   H23       1.0  0.33080  0.20970  0.93370  1.0000 0.1274966492
H   H24       1.0  0.93370  0.33080  0.20970  1.0000 0.1274966492
H   H25       1.0  0.08280  0.35060  0.54420  1.0000 0.118536663
H   H26       1.0  0.35060  0.54420  0.08280  1.0000 0.118536663
H   H27       1.0  0.54420  0.08280  0.35060  1.0000 0.118536663
H   H28       1.0  0.64940  0.91720  0.45580  1.0000 0.118536663
H   H29       1.0  0.45580  0.64940  0.91720  1.0000 0.118536663
H   H30       1.0  0.91720  0.45580  0.64940  1.0000 0.118536663
H   H31       1.0  0.91720  0.64940  0.45580  1.0000 0.118536663
H   H32       1.0  0.64940  0.45580  0.91720  1.0000 0.118536663
H   H33       1.0  0.45580  0.91720  0.64940  1.0000 0.118536663
H   H34       1.0  0.35060  0.08280  0.54420  1.0000 0.118536663
H   H35       1.0  0.54420  0.35060  0.08280  1.0000 0.118536663
H   H36       1.0  0.08280  0.54420  0.35060  1.0000 0.118536663
H   H37       1.0  0.07900  0.24990  0.56320  1.0000 0.1274966492
H   H38       1.0  0.24990  0.56320  0.07900  1.0000 0.1274966492
H   H39       1.0  0.56320  0.07900  0.24990  1.0000 0.1274966492
H   H40       1.0  0.75010  0.92100  0.43680  1.0000 0.118536663
H   H41       1.0  0.43680  0.75010  0.92100  1.0000 0.118536663
H   H42       1.0  0.92100  0.43680  0.75010  1.0000 0.118536663
H   H43       1.0  0.92100  0.75010  0.43680  1.0000 0.118536663
H   H44       1.0  0.75010  0.43680  0.92100  1.0000 0.118536663
H   H45       1.0  0.43680  0.92100  0.75010  1.0000 0.1274966492
H   H46       1.0  0.24990  0.07900  0.56320  1.0000 0.1274966492
H   H47       1.0  0.56320  0.24990  0.07900  1.0000 0.1274966492
H   H48       1.0  0.07900  0.56320  0.24990  1.0000 0.1274966492
H   H49       1.0  0.00150  0.40380  0.51710  1.0000 0.1144795815
H   H50       1.0  0.40380  0.51710  0.00150  1.0000 0.118536663
H   H51       1.0  0.51710  0.00150  0.40380  1.0000 0.118536663
H   H52       1.0  0.59620  0.99850  0.48290  1.0000 0.1144795815
H   H53       1.0  0.48290  0.59620  0.99850  1.0000 0.118536663
H   H54       1.0  0.99850  0.48290  0.59620  1.0000 0.1144795815
H   H55       1.0  0.99850  0.59620  0.48290  1.0000 0.118536663
H   H56       1.0  0.59620  0.48290  0.99850  1.0000 0.118536663
H   H57       1.0  0.48290  0.99850  0.59620  1.0000 0.118536663
H   H58       1.0  0.40380  0.00150  0.51710  1.0000 0.118536663
H   H59       1.0  0.51710  0.40380  0.00150  1.0000 0.118536663
H   H60       1.0  0.00150  0.51710  0.40380  1.0000 0.1144795815
H   H61       1.0  0.15500  0.40680  0.40680  1.0000 0.1274966492
H   H62       1.0  0.40680  0.40680  0.15500  1.0000 0.1274966492
H   H63       1.0  0.40680  0.15500  0.40680  1.0000 0.1373026814
H   H64       1.0  0.59320  0.84500  0.59320  1.0000 0.1274966492
H   H65       1.0  0.59320  0.59320  0.84500  1.0000 0.1274966492
H   H66       1.0  0.84500  0.59320  0.59320  1.0000 0.1274966492
H   H67       1.0  0.17620  0.34280  0.38750  1.0000 0.1373026814
H   H68       1.0  0.34280  0.38750  0.17620  1.0000 0.1373026814
H   H69       1.0  0.38750  0.17620  0.34280  1.0000 0.1373026814
H   H70       1.0  0.65720  0.82380  0.61250  1.0000 0.1373026814
H   H71       1.0  0.61250  0.65720  0.82380  1.0000 0.1373026814
H   H72       1.0  0.82380  0.61250  0.65720  1.0000 0.1373026814
H   H73       1.0  0.82380  0.65720  0.61250  1.0000 0.1373026814
H   H74       1.0  0.65720  0.61250  0.82380  1.0000 0.1373026814
H   H75       1.0  0.61250  0.82380  0.65720  1.0000 0.1373026814
H   H76       1.0  0.34280  0.17620  0.38750  1.0000 0.1373026814
H   H77       1.0  0.38750  0.34280  0.17620  1.0000 0.1373026814
H   H78       1.0  0.17620  0.38750  0.34280  1.0000 0.1373026814
H   H79       1.0  0.01890  0.21790  0.21790  1.0000 0.118536663
H   H80       1.0  0.21790  0.21790  0.01890  1.0000 0.118536663
H   H81       1.0  0.21790  0.01890  0.21790  1.0000 0.118536663
H   H82       1.0  0.78210  0.98110  0.78210  1.0000 0.118536663
H   H83       1.0  0.78210  0.78210  0.98110  1.0000 0.118536663
H   H84       1.0  0.98110  0.78210  0.78210  1.0000 0.118536663
H   H85       1.0  0.09400  0.27180  0.22720  1.0000 0.1274966492
H   H86       1.0  0.27180  0.22720  0.09400  1.0000 0.1274966492
H   H87       1.0  0.22720  0.09400  0.27180  1.0000 0.1274966492
H   H88       1.0  0.72820  0.90600  0.77280  1.0000 0.1274966492
H   H89       1.0  0.77280  0.72820  0.90600  1.0000 0.1274966492
H   H90       1.0  0.90600  0.77280  0.72820  1.0000 0.1274966492
H   H91       1.0  0.90600  0.72820  0.77280  1.0000 0.1274966492
H   H92       1.0  0.72820  0.77280  0.90600  1.0000 0.1274966492
H   H93       1.0  0.77280  0.90600  0.72820  1.0000 0.1274966492
H   H94       1.0  0.27180  0.09400  0.22720  1.0000 0.1274966492
H   H95       1.0  0.22720  0.27180  0.09400  1.0000 0.1274966492
H   H96       1.0  0.09400  0.22720  0.27180  1.0000 0.1274966492
C   C1        1.0  0.00364  0.10571  0.47327  1.0000 0.5824165344
C   C2        1.0  0.10571  0.47327  0.00364  1.0000 0.5824165344
C   C3        1.0  0.47327  0.00364  0.10571  1.0000 0.5824165344
C   C4        1.0  0.89429  0.99636  0.52673  1.0000 0.5824165344
C   C5        1.0  0.52673  0.89429  0.99636  1.0000 0.5824165344
C   C6        1.0  0.99636  0.52673  0.89429  1.0000 0.5824165344
C   C7        1.0  0.99636  0.89429  0.52673  1.0000 0.5824165344
C   C8        1.0  0.89429  0.52673  0.99636  1.0000 0.5824165344
C   C9        1.0  0.52673  0.99636  0.89429  1.0000 0.5824165344
C   C10       1.0  0.10571  0.00364  0.47327  1.0000 0.5824165344
C   C11       1.0  0.47327  0.10571  0.00364  1.0000 0.5824165344
C   C12       1.0  0.00364  0.47327  0.10571  1.0000 0.5824165344
C   C13       1.0  0.00562  0.17029  0.45948  1.0000 -0.0296211569
C   C14       1.0  0.17029  0.45948  0.00562  1.0000 -0.0296211569
C   C15       1.0  0.45948  0.00562  0.17029  1.0000 -0.0296211569
C   C16       1.0  0.82971  0.99438  0.54052  1.0000 -0.0296211569
C   C17       1.0  0.54052  0.82971  0.99438  1.0000 -0.0296211569
C   C18       1.0  0.99438  0.54052  0.82971  1.0000 -0.0296211569
C   C19       1.0  0.99438  0.82971  0.54052  1.0000 -0.0296211569
C   C20       1.0  0.82971  0.54052  0.99438  1.0000 -0.0296211569
C   C21       1.0  0.54052  0.99438  0.82971  1.0000 -0.0296211569
C   C22       1.0  0.17029  0.00562  0.45948  1.0000 -0.0296211569
C   C23       1.0  0.45948  0.17029  0.00562  1.0000 -0.0296211569
C   C24       1.0  0.00562  0.45948  0.17029  1.0000 -0.0296211569
C   C25       1.0  0.96117  0.15858  0.38928  1.0000 -0.0864915713
C   C26       1.0  0.15858  0.38928  0.96117  1.0000 -0.0864915713
C   C27       1.0  0.38928  0.96117  0.15858  1.0000 -0.0864915713
C   C28       1.0  0.84142  0.03883  0.61072  1.0000 -0.0864915713
C   C29       1.0  0.61072  0.84142  0.03883  1.0000 -0.0864915713
C   C30       1.0  0.03883  0.61072  0.84142  1.0000 -0.0864915713
C   C31       1.0  0.03883  0.84142  0.61072  1.0000 -0.0864915713
C   C32       1.0  0.84142  0.61072  0.03883  1.0000 -0.0864915713
C   C33       1.0  0.61072  0.03883  0.84142  1.0000 -0.0864915713
C   C34       1.0  0.15858  0.96117  0.38928  1.0000 -0.0864915713
C   C35       1.0  0.38928  0.15858  0.96117  1.0000 -0.0864915713
C   C36       1.0  0.96117  0.38928  0.15858  1.0000 -0.084275571
C   C37       1.0  0.96310  0.21822  0.37799  1.0000 -0.1463420888
C   C38       1.0  0.21822  0.37799  0.96310  1.0000 -0.1463420888
C   C39       1.0  0.37799  0.96310  0.21822  1.0000 -0.1463420888
C   C40       1.0  0.78178  0.03690  0.62201  1.0000 -0.1463420888
C   C41       1.0  0.62201  0.78178  0.03690  1.0000 -0.1463420888
C   C42       1.0  0.03690  0.62201  0.78178  1.0000 -0.1463420888
C   C43       1.0  0.03690  0.78178  0.62201  1.0000 -0.1463420888
C   C44       1.0  0.78178  0.62201  0.03690  1.0000 -0.1463420888
C   C45       1.0  0.62201  0.03690  0.78178  1.0000 -0.1463420888
C   C46       1.0  0.21822  0.96310  0.37799  1.0000 -0.1463420888
C   C47       1.0  0.37799  0.21822  0.96310  1.0000 -0.1463420888
C   C48       1.0  0.96310  0.37799  0.21822  1.0000 -0.1463420888
C   C49       1.0  0.00729  0.28993  0.43447  1.0000 0.0824089938
C   C50       1.0  0.28993  0.43447  0.00729  1.0000 0.0824089938
C   C51       1.0  0.43447  0.00729  0.28993  1.0000 0.0824089938
C   C52       1.0  0.71007  0.99271  0.56553  1.0000 0.0824089938
C   C53       1.0  0.56553  0.71007  0.99271  1.0000 0.0824089938
C   C54       1.0  0.99271  0.56553  0.71007  1.0000 0.0824089938
C   C55       1.0  0.99271  0.71007  0.56553  1.0000 0.0824089938
C   C56       1.0  0.71007  0.56553  0.99271  1.0000 0.0824089938
C   C57       1.0  0.56553  0.99271  0.71007  1.0000 0.0824089938
C   C58       1.0  0.28993  0.00729  0.43447  1.0000 0.0824089938
C   C59       1.0  0.43447  0.28993  0.00729  1.0000 0.0824089938
C   C60       1.0  0.00729  0.43447  0.28993  1.0000 0.0824089938
C   C61       1.0  0.05207  0.30250  0.50516  1.0000 -0.1580399759
C   C62       1.0  0.30250  0.50516  0.05207  1.0000 -0.1580399759
C   C63       1.0  0.50516  0.05207  0.30250  1.0000 -0.1580399759
C   C64       1.0  0.69750  0.94793  0.49484  1.0000 -0.1580399759
C   C65       1.0  0.49484  0.69750  0.94793  1.0000 -0.1580399759
C   C66       1.0  0.94793  0.49484  0.69750  1.0000 -0.1580399759
C   C67       1.0  0.94793  0.69750  0.49484  1.0000 -0.1580399759
C   C68       1.0  0.69750  0.49484  0.94793  1.0000 -0.1580399759
C   C69       1.0  0.49484  0.94793  0.69750  1.0000 -0.1580399759
C   C70       1.0  0.30250  0.05207  0.50516  1.0000 -0.1580399759
C   C71       1.0  0.50516  0.30250  0.05207  1.0000 -0.1580399759
C   C72       1.0  0.05207  0.50516  0.30250  1.0000 -0.1580399759
C   C73       1.0  0.04980  0.24171  0.51617  1.0000 -0.0864915713
C   C74       1.0  0.24171  0.51617  0.04980  1.0000 -0.0864915713
C   C75       1.0  0.51617  0.04980  0.24171  1.0000 -0.0864915713
C   C76       1.0  0.75829  0.95020  0.48383  1.0000 -0.0864915713
C   C77       1.0  0.48383  0.75829  0.95020  1.0000 -0.0864915713
C   C78       1.0  0.95020  0.48383  0.75829  1.0000 -0.0864915713
C   C79       1.0  0.95020  0.75829  0.48383  1.0000 -0.0864915713
C   C80       1.0  0.75829  0.48383  0.95020  1.0000 -0.0864915713
C   C81       1.0  0.48383  0.95020  0.75829  1.0000 -0.0864915713
C   C82       1.0  0.24171  0.04980  0.51617  1.0000 -0.0864915713
C   C83       1.0  0.51617  0.24171  0.04980  1.0000 -0.0864915713
C   C84       1.0  0.04980  0.51617  0.24171  1.0000 -0.0864915713
C   C85       1.0  0.00714  0.35529  0.42473  1.0000 -0.0230238196
C   C86       1.0  0.35529  0.42473  0.00714  1.0000 -0.0230238196
C   C87       1.0  0.42473  0.00714  0.35529  1.0000 -0.0230238196
C   C88       1.0  0.64471  0.99286  0.57527  1.0000 -0.0230238196
C   C89       1.0  0.57527  0.64471  0.99286  1.0000 -0.0230238196
C   C90       1.0  0.99286  0.57527  0.64471  1.0000 -0.0230238196
C   C91       1.0  0.99286  0.64471  0.57527  1.0000 -0.0230238196
C   C92       1.0  0.64471  0.57527  0.99286  1.0000 -0.0230238196
C   C93       1.0  0.57527  0.99286  0.64471  1.0000 -0.0230238196
C   C94       1.0  0.35529  0.00714  0.42473  1.0000 -0.0230238196
C   C95       1.0  0.42473  0.35529  0.00714  1.0000 -0.0230238196
C   C96       1.0  0.00714  0.42473  0.35529  1.0000 -0.0230238196
C   C97       1.0  0.00327  0.40920  0.47657  1.0000 -0.1883867061
C   C98       1.0  0.40920  0.47657  0.00327  1.0000 -0.1883867061
C   C99       1.0  0.47657  0.00327  0.40920  1.0000 -0.1883867061
C   C100      1.0  0.59080  0.99673  0.52343  1.0000 -0.1883867061
C   C101      1.0  0.52343  0.59080  0.99673  1.0000 -0.1883867061
C   C102      1.0  0.99673  0.52343  0.59080  1.0000 -0.1883867061
C   C103      1.0  0.99673  0.59080  0.52343  1.0000 -0.1883867061
C   C104      1.0  0.59080  0.52343  0.99673  1.0000 -0.1883867061
C   C105      1.0  0.52343  0.99673  0.59080  1.0000 -0.1883867061
C   C106      1.0  0.40920  0.00327  0.47657  1.0000 -0.1883867061
C   C107      1.0  0.47657  0.40920  0.00327  1.0000 -0.1883867061
C   C108      1.0  0.00327  0.47657  0.40920  1.0000 -0.1883867061
C   C109      1.0  0.00194  0.47118  0.47118  1.0000 0.0732882519
C   C110      1.0  0.47118  0.47118  0.00194  1.0000 0.0732882519
C   C111      1.0  0.47118  0.00194  0.47118  1.0000 0.0732882519
C   C112      1.0  0.52882  0.99806  0.52882  1.0000 0.0732882519
C   C113      1.0  0.52882  0.52882  0.99806  1.0000 0.0732882519
C   C114      1.0  0.99806  0.52882  0.52882  1.0000 0.0732882519
C   C115      1.0  0.00996  0.36382  0.36382  1.0000 0.1578691403
C   C116      1.0  0.36382  0.36382  0.00996  1.0000 0.1578691403
C   C117      1.0  0.36382  0.00996  0.36382  1.0000 0.1578691403
C   C118      1.0  0.63618  0.99004  0.63618  1.0000 0.1578691403
C   C119      1.0  0.63618  0.63618  0.99004  1.0000 0.1578691403
C   C120      1.0  0.99004  0.63618  0.63618  1.0000 0.1578691403
C   C121      1.0  0.07630  0.31550  0.31550  1.0000 0.3701312343
C   C122      1.0  0.31550  0.31550  0.07630  1.0000 0.3834994832
C   C123      1.0  0.31550  0.07630  0.31550  1.0000 0.3873995045
C   C124      1.0  0.68450  0.92370  0.68450  1.0000 0.3701312343
C   C125      1.0  0.68450  0.68450  0.92370  1.0000 0.3873995045
C   C126      1.0  0.92370  0.68450  0.68450  1.0000 0.3701312343
C   C127      1.0  0.15216  0.36742  0.36742  1.0000 -0.5273151431
C   C128      1.0  0.36742  0.36742  0.15216  1.0000 -0.5273151431
C   C129      1.0  0.36742  0.15216  0.36742  1.0000 -0.5273151431
C   C130      1.0  0.63258  0.84784  0.63258  1.0000 -0.5273151431
C   C131      1.0  0.63258  0.63258  0.84784  1.0000 -0.5273151431
C   C132      1.0  0.84784  0.63258  0.63258  1.0000 -0.5273151431
C   C133      1.0  0.07020  0.25225  0.25225  1.0000 -0.4999212673
C   C134      1.0  0.25225  0.25225  0.07020  1.0000 -0.4999212673
C   C135      1.0  0.25225  0.07020  0.25225  1.0000 -0.4999212673
C   C136      1.0  0.74775  0.92980  0.74775  1.0000 -0.4999212673
C   C137      1.0  0.74775  0.74775  0.92980  1.0000 -0.4999212673
C   C138      1.0  0.92980  0.74775  0.74775  1.0000 -0.4999212673
O   O1        1.0  0.04346  0.12193  0.53975  1.0000 -0.5273151431
O   O2        1.0  0.12193  0.53975  0.04346  1.0000 -0.5273151431
O   O3        1.0  0.53975  0.04346  0.12193  1.0000 -0.5273151431
O   O4        1.0  0.87807  0.95654  0.46025  1.0000 -0.5273151431
O   O5        1.0  0.46025  0.87807  0.95654  1.0000 -0.5273151431
O   O6        1.0  0.95654  0.46025  0.87807  1.0000 -0.5273151431
O   O7        1.0  0.95654  0.87807  0.46025  1.0000 -0.5273151431
O   O8        1.0  0.87807  0.46025  0.95654  1.0000 -0.5273151431
O   O9        1.0  0.46025  0.95654  0.87807  1.0000 -0.5273151431
O   O10       1.0  0.12193  0.04346  0.53975  1.0000 -0.5273151431
O   O11       1.0  0.53975  0.12193  0.04346  1.0000 -0.5273151431
O   O12       1.0  0.04346  0.53975  0.12193  1.0000 -0.5273151431
O   O13       1.0  0.96341  0.04221  0.41890  1.0000 -0.5104493599
O   O14       1.0  0.04221  0.41890  0.96341  1.0000 -0.5104493599
O   O15       1.0  0.41890  0.96341  0.04221  1.0000 -0.5104493599
O   O16       1.0  0.95779  0.03659  0.58110  1.0000 -0.5104493599
O   O17       1.0  0.58110  0.95779  0.03659  1.0000 -0.5104493599
O   O18       1.0  0.03659  0.58110  0.95779  1.0000 -0.5104493599
O   O19       1.0  0.03659  0.95779  0.58110  1.0000 -0.5104493599
O   O20       1.0  0.95779  0.58110  0.03659  1.0000 -0.5104493599
O   O21       1.0  0.58110  0.03659  0.95779  1.0000 -0.5104493599
O   O22       1.0  0.04221  0.96341  0.41890  1.0000 -0.5104493599
O   O23       1.0  0.41890  0.04221  0.96341  1.0000 -0.5104493599
O   O24       1.0  0.96341  0.41890  0.04221  1.0000 -0.5104493599
O   O25       1.0  0.01120  0.30944  0.30944  1.0000 -0.2759070357
O   O26       1.0  0.30944  0.30944  0.01120  1.0000 -0.2759070357
O   O27       1.0  0.30944  0.01120  0.30944  1.0000 -0.2759070357
O   O28       1.0  0.69056  0.98880  0.69056  1.0000 -0.27388527
O   O29       1.0  0.69056  0.69056  0.98880  1.0000 -0.2759070357
O   O30       1.0  0.98880  0.69056  0.69056  1.0000 -0.2759070357
