# DDEC6 charges by PACMAN v1.1 (https://github.com/mtap-research/PACMAN-charge/)
data_2016[Zn][pcu]3[ASR]5
_chemical_formula_sum              "Zn6 H24 C40 N12 O16"
_cell_length_a       8.292
_cell_length_b       19.041
_cell_length_c       9.267
_cell_angle_alpha    90
_cell_angle_beta     111.164
_cell_angle_gamma    90

_symmetry_space_group_name_H-M    "P 1"
_symmetry_Int_Tables_number       1

loop_
  _symmetry_equiv_pos_as_xyz
  'x, y, z'

loop_
  _atom_site_type_symbol
  _atom_site_label
  _atom_site_symmetry_multiplicity
  _atom_site_fract_x
  _atom_site_fract_y
  _atom_site_fract_z
  _atom_site_occupancy
  _atom_site_charge
Zn  Zn1       1.0  0.00000  0.50000  0.00000  1.0000 0.8985016556
Zn  Zn2       1.0  0.50000  0.00000  0.00000  1.0000 0.8985016556
Zn  Zn3       1.0  0.16249  0.53017  0.69760  1.0000 0.7610857399
Zn  Zn4       1.0  0.33751  0.03017  0.30240  1.0000 0.7610857399
Zn  Zn5       1.0  0.83751  0.46983  0.30240  1.0000 0.7610857399
Zn  Zn6       1.0  0.66249  0.96983  0.69760  1.0000 0.7610857399
H   H1        1.0  0.03880  0.70690  0.10600  1.0000 0.1187277969
H   H2        1.0  0.46120  0.20690  0.89400  1.0000 0.1187277969
H   H3        1.0  0.96120  0.29310  0.89400  1.0000 0.1187277969
H   H4        1.0  0.53880  0.79310  0.10600  1.0000 0.1187277969
H   H5        1.0  0.06440  0.82310  0.18660  1.0000 0.1187277969
H   H6        1.0  0.43560  0.32310  0.81340  1.0000 0.1187277969
H   H7        1.0  0.93560  0.17690  0.81340  1.0000 0.1187277969
H   H8        1.0  0.56440  0.67690  0.18660  1.0000 0.1187277969
H   H9        1.0  0.17760  0.88000  0.81430  1.0000 0.114740117
H   H10       1.0  0.32240  0.38000  0.18570  1.0000 0.114740117
H   H11       1.0  0.82240  0.12000  0.18570  1.0000 0.114740117
H   H12       1.0  0.67760  0.62000  0.81430  1.0000 0.114740117
H   H13       1.0  0.15480  0.76400  0.73390  1.0000 0.1187277969
H   H14       1.0  0.34520  0.26400  0.26610  1.0000 0.1187277969
H   H15       1.0  0.84520  0.23600  0.26610  1.0000 0.1187277969
H   H16       1.0  0.65480  0.73600  0.73390  1.0000 0.1187277969
H   H17       1.0  0.63420  0.42550  0.74880  1.0000 0.148437983
H   H18       1.0  0.86580  0.92550  0.25120  1.0000 0.148437983
H   H19       1.0  0.36580  0.57450  0.25120  1.0000 0.148437983
H   H20       1.0  0.13420  0.07450  0.74880  1.0000 0.148437983
H   H21       1.0  0.57610  0.40980  0.47070  1.0000 0.1419078918
H   H22       1.0  0.92390  0.90980  0.52930  1.0000 0.1419078918
H   H23       1.0  0.42390  0.59020  0.52930  1.0000 0.1419078918
H   H24       1.0  0.07610  0.09020  0.47070  1.0000 0.1419078918
C   C1        1.0  0.09560  0.64500  0.87140  1.0000 0.5995127173
C   C2        1.0  0.40440  0.14500  0.12860  1.0000 0.5995127173
C   C3        1.0  0.90440  0.35500  0.12860  1.0000 0.5995127173
C   C4        1.0  0.59560  0.85500  0.87140  1.0000 0.5995127173
C   C5        1.0  0.10070  0.72240  0.91250  1.0000 -0.0199419474
C   C6        1.0  0.39930  0.22240  0.08750  1.0000 -0.0199419474
C   C7        1.0  0.89930  0.27760  0.08750  1.0000 -0.0199419474
C   C8        1.0  0.60070  0.77760  0.91250  1.0000 -0.0199419474
C   C9        1.0  0.06970  0.74120  0.04930  1.0000 -0.1017936035
C   C10       1.0  0.43030  0.24120  0.95070  1.0000 -0.1017936035
C   C11       1.0  0.93030  0.25880  0.95070  1.0000 -0.1017936035
C   C12       1.0  0.56970  0.75880  0.04930  1.0000 -0.1017936035
C   C13       1.0  0.08600  0.81120  0.09800  1.0000 -0.1099312971
C   C14       1.0  0.41400  0.31120  0.90200  1.0000 -0.1099312971
C   C15       1.0  0.91400  0.18880  0.90200  1.0000 -0.1099312971
C   C16       1.0  0.58600  0.68880  0.09800  1.0000 -0.1099312971
C   C17       1.0  0.13400  0.86310  0.01610  1.0000 -0.0199419474
C   C18       1.0  0.36600  0.36310  0.98390  1.0000 -0.0199419474
C   C19       1.0  0.86600  0.13690  0.98390  1.0000 -0.0199419474
C   C20       1.0  0.63400  0.63690  0.01610  1.0000 -0.0199419474
C   C21       1.0  0.15430  0.84510  0.87430  1.0000 -0.08962921
C   C22       1.0  0.34570  0.34510  0.12570  1.0000 -0.08962921
C   C23       1.0  0.84570  0.15490  0.12570  1.0000 -0.08962921
C   C24       1.0  0.65430  0.65490  0.87430  1.0000 -0.08962921
C   C25       1.0  0.13910  0.77540  0.82550  1.0000 -0.1099312971
C   C26       1.0  0.36090  0.27540  0.17450  1.0000 -0.1099312971
C   C27       1.0  0.86090  0.22460  0.17450  1.0000 -0.1099312971
C   C28       1.0  0.63910  0.72460  0.82550  1.0000 -0.1099312971
C   C29       1.0  0.18380  0.93560  0.08220  1.0000 0.5914844336
C   C30       1.0  0.31620  0.43560  0.91780  1.0000 0.5914844336
C   C31       1.0  0.81620  0.06440  0.91780  1.0000 0.5914844336
C   C32       1.0  0.68380  0.56440  0.08220  1.0000 0.5914844336
C   C33       1.0  0.70680  0.43930  0.69740  1.0000 -0.0199419474
C   C34       1.0  0.79320  0.93930  0.30260  1.0000 -0.0199419474
C   C35       1.0  0.29320  0.56070  0.30260  1.0000 -0.0199419474
C   C36       1.0  0.20680  0.06070  0.69740  1.0000 -0.0199419474
C   C37       1.0  0.67360  0.43070  0.54210  1.0000 -0.0435149013
C   C38       1.0  0.82640  0.93070  0.45790  1.0000 -0.0435149013
C   C39       1.0  0.32640  0.56930  0.45790  1.0000 -0.0435149013
C   C40       1.0  0.17360  0.06930  0.54210  1.0000 -0.0435149013
N   N1        1.0  0.86090  0.47090  0.76320  1.0000 -0.1526305614
N   N2        1.0  0.63910  0.97090  0.23680  1.0000 -0.1526305614
N   N3        1.0  0.13910  0.52910  0.23680  1.0000 -0.1526305614
N   N4        1.0  0.36090  0.02910  0.76320  1.0000 -0.1526305614
N   N5        1.0  0.92320  0.48290  0.64860  1.0000 -0.08962921
N   N6        1.0  0.57680  0.98290  0.35140  1.0000 -0.08962921
N   N7        1.0  0.07680  0.51710  0.35140  1.0000 -0.08962921
N   N8        1.0  0.42320  0.01710  0.64860  1.0000 -0.08962921
N   N9        1.0  0.80890  0.45830  0.51200  1.0000 -0.1686681597
N   N10       1.0  0.69110  0.95830  0.48800  1.0000 -0.1686681597
N   N11       1.0  0.19110  0.54170  0.48800  1.0000 -0.1686681597
N   N12       1.0  0.30890  0.04170  0.51200  1.0000 -0.1686681597
O   O1        1.0  0.02980  0.60280  0.93940  1.0000 -0.5717901079
O   O2        1.0  0.47020  0.10280  0.06060  1.0000 -0.5717901079
O   O3        1.0  0.97020  0.39720  0.06060  1.0000 -0.5717901079
O   O4        1.0  0.52980  0.89720  0.93940  1.0000 -0.5717901079
O   O5        1.0  0.15920  0.62760  0.76720  1.0000 -0.5456441729
O   O6        1.0  0.34080  0.12760  0.23280  1.0000 -0.5456441729
O   O7        1.0  0.84080  0.37240  0.23280  1.0000 -0.5456441729
O   O8        1.0  0.65920  0.87240  0.76720  1.0000 -0.5456441729
O   O9        1.0  0.16940  0.95040  0.21290  1.0000 -0.5414674966
O   O10       1.0  0.33060  0.45040  0.78710  1.0000 -0.5414674966
O   O11       1.0  0.83060  0.04960  0.78710  1.0000 -0.5414674966
O   O12       1.0  0.66940  0.54960  0.21290  1.0000 -0.5414674966
O   O13       1.0  0.25270  0.97930  0.01830  1.0000 -0.5781472413
O   O14       1.0  0.24730  0.47930  0.98170  1.0000 -0.5781472413
O   O15       1.0  0.74730  0.02070  0.98170  1.0000 -0.5781472413
O   O16       1.0  0.75270  0.52070  0.01830  1.0000 -0.5781472413
