# DDEC6 charges by PACMAN v1.1 (https://github.com/mtap-research/PACMAN-charge/)
data_2016[Ni][nan]3[ASR]3
_chemical_formula_sum              "Ni6 H6 C24 O18"
_cell_length_a       15.0377
_cell_length_b       15.0377
_cell_length_c       15.0377
_cell_angle_alpha    117.797
_cell_angle_beta     117.797
_cell_angle_gamma    117.797

_symmetry_space_group_name_H-M    "P 1"
_symmetry_Int_Tables_number       1

loop_
  _symmetry_equiv_pos_as_xyz
  'x, y, z'

loop_
  _atom_site_type_symbol
  _atom_site_label
  _atom_site_symmetry_multiplicity
  _atom_site_fract_x
  _atom_site_fract_y
  _atom_site_fract_z
  _atom_site_occupancy
  _atom_site_charge
Ni  Ni1       1.0  0.38192  0.97219  0.70549  1.0000 0.8616004526
Ni  Ni2       1.0  0.97219  0.70549  0.38192  1.0000 0.8616004526
Ni  Ni3       1.0  0.70549  0.38192  0.97219  1.0000 0.8616004526
Ni  Ni4       1.0  0.61808  0.02781  0.29451  1.0000 0.8616004526
Ni  Ni5       1.0  0.02781  0.29451  0.61808  1.0000 0.8616004526
Ni  Ni6       1.0  0.29451  0.61808  0.02781  1.0000 0.8616004526
H   H1        1.0  0.28914  0.85491  0.83416  1.0000 0.1589789032
H   H2        1.0  0.85491  0.83416  0.28914  1.0000 0.1589789032
H   H3        1.0  0.83416  0.28914  0.85491  1.0000 0.1589789032
H   H4        1.0  0.71086  0.14509  0.16584  1.0000 0.1589789032
H   H5        1.0  0.14509  0.16584  0.71086  1.0000 0.1589789032
H   H6        1.0  0.16584  0.71086  0.14509  1.0000 0.1589789032
C   C1        1.0  0.24246  0.67191  0.84690  1.0000 0.6038894891
C   C2        1.0  0.67191  0.84690  0.24246  1.0000 0.6038894891
C   C3        1.0  0.84690  0.24246  0.67191  1.0000 0.6038894891
C   C4        1.0  0.75754  0.32809  0.15310  1.0000 0.6038894891
C   C5        1.0  0.32809  0.15310  0.75754  1.0000 0.6038894891
C   C6        1.0  0.15310  0.75754  0.32809  1.0000 0.6038894891
C   C7        1.0  0.10880  0.58062  0.66476  1.0000 -0.1316676052
C   C8        1.0  0.58062  0.66476  0.10880  1.0000 -0.1316676052
C   C9        1.0  0.66476  0.10880  0.58062  1.0000 -0.1316676052
C   C10       1.0  0.89120  0.41938  0.33524  1.0000 -0.1316676052
C   C11       1.0  0.41938  0.33524  0.89120  1.0000 -0.1316676052
C   C12       1.0  0.33524  0.89120  0.41938  1.0000 -0.1316676052
C   C13       1.0  0.06922  0.63999  0.53176  1.0000 0.305381739
C   C14       1.0  0.63999  0.53176  0.06922  1.0000 0.3047097861
C   C15       1.0  0.53176  0.06922  0.63999  1.0000 0.305381739
C   C16       1.0  0.93078  0.36001  0.46824  1.0000 0.3047097861
C   C17       1.0  0.36001  0.46824  0.93078  1.0000 0.3047097861
C   C18       1.0  0.46824  0.93078  0.36001  1.0000 0.305381739
C   C19       1.0  0.17279  0.71219  0.69744  1.0000 -0.1967462213
C   C20       1.0  0.71219  0.69744  0.17279  1.0000 -0.1967462213
C   C21       1.0  0.69744  0.17279  0.71219  1.0000 -0.1967462213
C   C22       1.0  0.82721  0.28781  0.30256  1.0000 -0.1967462213
C   C23       1.0  0.28781  0.30256  0.82721  1.0000 -0.1967462213
C   C24       1.0  0.30256  0.82721  0.28781  1.0000 -0.1967462213
O   O1        1.0  0.40186  0.87285  0.02799  1.0000 -0.5337418577
O   O2        1.0  0.87285  0.02799  0.40186  1.0000 -0.5337418577
O   O3        1.0  0.02799  0.40186  0.87285  1.0000 -0.5337418577
O   O4        1.0  0.59814  0.12715  0.97201  1.0000 -0.5337418577
O   O5        1.0  0.12715  0.97201  0.59814  1.0000 -0.5337418577
O   O6        1.0  0.97201  0.59814  0.12715  1.0000 -0.5337418577
O   O7        1.0  0.21303  0.58554  0.85113  1.0000 -0.5044786494
O   O8        1.0  0.58554  0.85113  0.21303  1.0000 -0.5057756068
O   O9        1.0  0.85113  0.21303  0.58554  1.0000 -0.5044786494
O   O10       1.0  0.78697  0.41446  0.14887  1.0000 -0.5057756068
O   O11       1.0  0.41446  0.14887  0.78697  1.0000 -0.5044786494
O   O12       1.0  0.14887  0.78697  0.41446  1.0000 -0.5057756068
O   O13       1.0  0.12635  0.77241  0.57516  1.0000 -0.5622317951
O   O14       1.0  0.77241  0.57516  0.12635  1.0000 -0.5622317951
O   O15       1.0  0.57516  0.12635  0.77241  1.0000 -0.5622317951
O   O16       1.0  0.87365  0.22759  0.42484  1.0000 -0.5622317951
O   O17       1.0  0.22759  0.42484  0.87365  1.0000 -0.5622317951
O   O18       1.0  0.42484  0.87365  0.22759  1.0000 -0.5622317951
