# DDEC6 charges by PACMAN v1.1 (https://github.com/mtap-research/PACMAN-charge/)
data_2016[Cu][nbo]3[ASR]31
_chemical_formula_sum              "Cu6 H90 C132 O30"
_cell_length_a       21.5589
_cell_length_b       21.5589
_cell_length_c       21.5589
_cell_angle_alpha    109.169
_cell_angle_beta     109.169
_cell_angle_gamma    109.169

_symmetry_space_group_name_H-M    "P 1"
_symmetry_Int_Tables_number       1

loop_
  _symmetry_equiv_pos_as_xyz
  'x, y, z'

loop_
  _atom_site_type_symbol
  _atom_site_label
  _atom_site_symmetry_multiplicity
  _atom_site_fract_x
  _atom_site_fract_y
  _atom_site_fract_z
  _atom_site_occupancy
  _atom_site_charge
Cu  Cu1       1.0  0.54851  0.07186  0.54851  1.0000 0.8655365944
Cu  Cu2       1.0  0.07186  0.54851  0.54851  1.0000 0.8655365944
Cu  Cu3       1.0  0.54851  0.54851  0.07186  1.0000 0.8636417389
Cu  Cu4       1.0  0.92814  0.45149  0.45148  1.0000 0.8655365944
Cu  Cu5       1.0  0.45148  0.92814  0.45148  1.0000 0.8655365944
Cu  Cu6       1.0  0.45148  0.45149  0.92814  1.0000 0.8655365944
H   H1        1.0  0.42960  0.84850  0.60720  1.0000 0.1271586717
H   H2        1.0  0.84850  0.60720  0.42960  1.0000 0.1271586717
H   H3        1.0  0.60720  0.42960  0.84850  1.0000 0.1271586717
H   H4        1.0  0.15150  0.57040  0.39280  1.0000 0.1271586717
H   H5        1.0  0.39280  0.15150  0.57040  1.0000 0.1271586717
H   H6        1.0  0.57040  0.39280  0.15150  1.0000 0.1271586717
H   H7        1.0  0.57040  0.15150  0.39280  1.0000 0.1271586717
H   H8        1.0  0.15150  0.39280  0.57040  1.0000 0.1271586717
H   H9        1.0  0.39280  0.57040  0.15150  1.0000 0.1271586717
H   H10       1.0  0.84850  0.42960  0.60720  1.0000 0.1271586717
H   H11       1.0  0.60720  0.84850  0.42960  1.0000 0.1271586717
H   H12       1.0  0.42960  0.60720  0.84850  1.0000 0.1271586717
H   H13       1.0  0.43330  0.82880  0.70720  1.0000 0.1233765575
H   H14       1.0  0.82880  0.70720  0.43330  1.0000 0.1233765575
H   H15       1.0  0.70720  0.43330  0.82880  1.0000 0.1233765575
H   H16       1.0  0.17120  0.56670  0.29280  1.0000 0.1233765575
H   H17       1.0  0.29280  0.17120  0.56670  1.0000 0.1233765575
H   H18       1.0  0.56670  0.29280  0.17120  1.0000 0.1233765575
H   H19       1.0  0.56670  0.17120  0.29280  1.0000 0.1233765575
H   H20       1.0  0.17120  0.29280  0.56670  1.0000 0.1233765575
H   H21       1.0  0.29280  0.56670  0.17120  1.0000 0.1233765575
H   H22       1.0  0.82880  0.43330  0.70720  1.0000 0.1233765575
H   H23       1.0  0.70720  0.82880  0.43330  1.0000 0.1233765575
H   H24       1.0  0.43330  0.70720  0.82880  1.0000 0.1233765575
H   H25       1.0  0.58720  0.04410  0.85340  1.0000 0.1132596059
H   H26       1.0  0.04410  0.85340  0.58720  1.0000 0.1132596059
H   H27       1.0  0.85340  0.58720  0.04410  1.0000 0.1132596059
H   H28       1.0  0.95590  0.41280  0.14660  1.0000 0.1132596059
H   H29       1.0  0.14660  0.95590  0.41280  1.0000 0.1132596059
H   H30       1.0  0.41280  0.14660  0.95590  1.0000 0.1132596059
H   H31       1.0  0.41280  0.95590  0.14660  1.0000 0.1132596059
H   H32       1.0  0.95590  0.14660  0.41280  1.0000 0.1132596059
H   H33       1.0  0.14660  0.41280  0.95590  1.0000 0.1132596059
H   H34       1.0  0.04410  0.58720  0.85340  1.0000 0.1132596059
H   H35       1.0  0.85340  0.04410  0.58720  1.0000 0.1132596059
H   H36       1.0  0.58720  0.85340  0.04410  1.0000 0.1132596059
H   H37       1.0  0.58280  0.06440  0.75170  1.0000 0.1271586717
H   H38       1.0  0.06440  0.75170  0.58280  1.0000 0.1271586717
H   H39       1.0  0.75170  0.58280  0.06440  1.0000 0.1271586717
H   H40       1.0  0.93560  0.41720  0.24830  1.0000 0.1271586717
H   H41       1.0  0.24830  0.93560  0.41720  1.0000 0.1271586717
H   H42       1.0  0.41720  0.24830  0.93560  1.0000 0.1271586717
H   H43       1.0  0.41720  0.93560  0.24830  1.0000 0.1271586717
H   H44       1.0  0.93560  0.24830  0.41720  1.0000 0.1271586717
H   H45       1.0  0.24830  0.41720  0.93560  1.0000 0.1271586717
H   H46       1.0  0.06440  0.58280  0.75170  1.0000 0.1271586717
H   H47       1.0  0.75170  0.06440  0.58280  1.0000 0.1271586717
H   H48       1.0  0.58280  0.75170  0.06440  1.0000 0.1271586717
H   H49       1.0  0.50440  0.01830  0.90500  1.0000 0.1132596059
H   H50       1.0  0.01830  0.90500  0.50440  1.0000 0.1132596059
H   H51       1.0  0.90500  0.50440  0.01830  1.0000 0.1132596059
H   H52       1.0  0.98170  0.49560  0.09500  1.0000 0.1132596059
H   H53       1.0  0.09500  0.98170  0.49560  1.0000 0.1132596059
H   H54       1.0  0.49560  0.09500  0.98170  1.0000 0.1132596059
H   H55       1.0  0.49560  0.98170  0.09500  1.0000 0.1132596059
H   H56       1.0  0.98170  0.09500  0.49560  1.0000 0.1132596059
H   H57       1.0  0.09500  0.49560  0.98170  1.0000 0.1132596059
H   H58       1.0  0.01830  0.50440  0.90500  1.0000 0.1132596059
H   H59       1.0  0.90500  0.01830  0.50440  1.0000 0.1132596059
H   H60       1.0  0.50440  0.90500  0.01830  1.0000 0.1132596059
H   H61       1.0  0.61000  0.75120  0.75120  1.0000 0.1132596059
H   H62       1.0  0.75120  0.75120  0.61000  1.0000 0.1132596059
H   H63       1.0  0.75120  0.61000  0.75120  1.0000 0.1233765575
H   H64       1.0  0.24880  0.39000  0.24880  1.0000 0.1132596059
H   H65       1.0  0.24880  0.24880  0.39000  1.0000 0.1132596059
H   H66       1.0  0.39000  0.24880  0.24880  1.0000 0.1132596059
H   H67       1.0  0.53690  0.70900  0.75370  1.0000 0.1132596059
H   H68       1.0  0.70900  0.75370  0.53690  1.0000 0.1132596059
H   H69       1.0  0.75370  0.53690  0.70900  1.0000 0.1132596059
H   H70       1.0  0.29100  0.46310  0.24630  1.0000 0.1132596059
H   H71       1.0  0.24630  0.29100  0.46310  1.0000 0.1132596059
H   H72       1.0  0.46310  0.24630  0.29100  1.0000 0.1132596059
H   H73       1.0  0.46310  0.29100  0.24630  1.0000 0.1132596059
H   H74       1.0  0.29100  0.24630  0.46310  1.0000 0.1132596059
H   H75       1.0  0.24630  0.46310  0.29100  1.0000 0.1132596059
H   H76       1.0  0.70900  0.53690  0.75370  1.0000 0.1132596059
H   H77       1.0  0.75370  0.70900  0.53690  1.0000 0.1132596059
H   H78       1.0  0.53690  0.75370  0.70900  1.0000 0.1132596059
H   H79       1.0  0.62110  0.87470  0.82930  1.0000 0.0806039445
H   H80       1.0  0.87470  0.82930  0.62110  1.0000 0.0806039445
H   H81       1.0  0.82930  0.62110  0.87470  1.0000 0.0806039445
H   H82       1.0  0.12530  0.37890  0.17070  1.0000 0.0806039445
H   H83       1.0  0.17070  0.12530  0.37890  1.0000 0.0806039445
H   H84       1.0  0.37890  0.17070  0.12530  1.0000 0.0806039445
H   H85       1.0  0.37890  0.12530  0.17070  1.0000 0.0806039445
H   H86       1.0  0.12530  0.17070  0.37890  1.0000 0.0806039445
H   H87       1.0  0.17070  0.37890  0.12530  1.0000 0.0806039445
H   H88       1.0  0.87470  0.62110  0.82930  1.0000 0.0806039445
H   H89       1.0  0.82930  0.87470  0.62110  1.0000 0.0806039445
H   H90       1.0  0.62110  0.82930  0.87470  1.0000 0.0806039445
C   C1        1.0  0.50366  0.97354  0.60535  1.0000 0.5804935396
C   C2        1.0  0.97354  0.60535  0.50366  1.0000 0.5804935396
C   C3        1.0  0.60535  0.50366  0.97354  1.0000 0.5804935396
C   C4        1.0  0.02646  0.49634  0.39465  1.0000 0.5804935396
C   C5        1.0  0.39465  0.02646  0.49634  1.0000 0.5804935396
C   C6        1.0  0.49634  0.39465  0.02646  1.0000 0.5804935396
C   C7        1.0  0.49634  0.02646  0.39465  1.0000 0.5804935396
C   C8        1.0  0.02646  0.39465  0.49634  1.0000 0.5804935396
C   C9        1.0  0.39465  0.49634  0.02646  1.0000 0.5804935396
C   C10       1.0  0.97354  0.50366  0.60535  1.0000 0.5804935396
C   C11       1.0  0.60535  0.97354  0.50366  1.0000 0.5804935396
C   C12       1.0  0.50366  0.60535  0.97354  1.0000 0.5804935396
C   C13       1.0  0.50686  0.95978  0.67096  1.0000 -0.0205159241
C   C14       1.0  0.95978  0.67096  0.50686  1.0000 -0.0205159241
C   C15       1.0  0.67096  0.50686  0.95978  1.0000 -0.0205159241
C   C16       1.0  0.04022  0.49314  0.32904  1.0000 -0.0205159241
C   C17       1.0  0.32904  0.04022  0.49314  1.0000 -0.0205159241
C   C18       1.0  0.49314  0.32904  0.04022  1.0000 -0.0205159241
C   C19       1.0  0.49314  0.04022  0.32904  1.0000 -0.0205159241
C   C20       1.0  0.04022  0.32904  0.49314  1.0000 -0.0205159241
C   C21       1.0  0.32904  0.49314  0.04022  1.0000 -0.0205159241
C   C22       1.0  0.95978  0.50686  0.67096  1.0000 -0.0205159241
C   C23       1.0  0.67096  0.95978  0.50686  1.0000 -0.0205159241
C   C24       1.0  0.50686  0.67096  0.95978  1.0000 -0.0205159241
C   C25       1.0  0.46103  0.88809  0.65630  1.0000 -0.0877273498
C   C26       1.0  0.88809  0.65630  0.46103  1.0000 -0.0877273498
C   C27       1.0  0.65630  0.46103  0.88809  1.0000 -0.0877273498
C   C28       1.0  0.11191  0.53897  0.34370  1.0000 -0.0877273498
C   C29       1.0  0.34370  0.11191  0.53897  1.0000 -0.0877273498
C   C30       1.0  0.53897  0.34370  0.11191  1.0000 -0.0877273498
C   C31       1.0  0.53897  0.11191  0.34370  1.0000 -0.0877273498
C   C32       1.0  0.11191  0.34370  0.53897  1.0000 -0.0877273498
C   C33       1.0  0.34370  0.53897  0.11191  1.0000 -0.0877273498
C   C34       1.0  0.88809  0.46103  0.65630  1.0000 -0.0877273498
C   C35       1.0  0.65630  0.88809  0.46103  1.0000 -0.0877273498
C   C36       1.0  0.46103  0.65630  0.88809  1.0000 -0.0877273498
C   C37       1.0  0.46331  0.87695  0.71694  1.0000 -0.1398009707
C   C38       1.0  0.87695  0.71694  0.46331  1.0000 -0.1398009707
C   C39       1.0  0.71694  0.46331  0.87695  1.0000 -0.1398009707
C   C40       1.0  0.12305  0.53669  0.28306  1.0000 -0.1398009707
C   C41       1.0  0.28306  0.12305  0.53669  1.0000 -0.1398009707
C   C42       1.0  0.53669  0.28306  0.12305  1.0000 -0.1398009707
C   C43       1.0  0.53669  0.12305  0.28306  1.0000 -0.1398009707
C   C44       1.0  0.12305  0.28306  0.53669  1.0000 -0.1398009707
C   C45       1.0  0.28306  0.53669  0.12305  1.0000 -0.1398009707
C   C46       1.0  0.87695  0.46331  0.71694  1.0000 -0.1398009707
C   C47       1.0  0.71694  0.87695  0.46331  1.0000 -0.1398009707
C   C48       1.0  0.46331  0.71694  0.87695  1.0000 -0.1398009707
C   C49       1.0  0.50689  0.93256  0.78875  1.0000 0.0806039445
C   C50       1.0  0.93256  0.78875  0.50689  1.0000 0.0806039445
C   C51       1.0  0.78875  0.50689  0.93256  1.0000 0.0806039445
C   C52       1.0  0.06744  0.49311  0.21125  1.0000 0.0806039445
C   C53       1.0  0.21125  0.06744  0.49311  1.0000 0.0806039445
C   C54       1.0  0.49311  0.21125  0.06744  1.0000 0.0806039445
C   C55       1.0  0.49311  0.06744  0.21125  1.0000 0.0806039445
C   C56       1.0  0.06744  0.21125  0.49311  1.0000 0.0806039445
C   C57       1.0  0.21125  0.49311  0.06744  1.0000 0.0806039445
C   C58       1.0  0.93256  0.50689  0.78875  1.0000 0.0806039445
C   C59       1.0  0.78875  0.93256  0.50689  1.0000 0.0806039445
C   C60       1.0  0.50689  0.78875  0.93256  1.0000 0.0806039445
C   C61       1.0  0.55487  0.00506  0.80417  1.0000 -0.1697655941
C   C62       1.0  0.00506  0.80417  0.55487  1.0000 -0.1697655941
C   C63       1.0  0.80417  0.55487  0.00506  1.0000 -0.1697655941
C   C64       1.0  0.99494  0.44513  0.19583  1.0000 -0.1697655941
C   C65       1.0  0.19583  0.99494  0.44513  1.0000 -0.1697655941
C   C66       1.0  0.44513  0.19583  0.99494  1.0000 -0.1697655941
C   C67       1.0  0.44513  0.99494  0.19583  1.0000 -0.1697655941
C   C68       1.0  0.99494  0.19583  0.44513  1.0000 -0.1697655941
C   C69       1.0  0.19583  0.44513  0.99494  1.0000 -0.1697655941
C   C70       1.0  0.00506  0.55487  0.80417  1.0000 -0.1697655941
C   C71       1.0  0.80417  0.00506  0.55487  1.0000 -0.1697655941
C   C72       1.0  0.55487  0.80417  0.00506  1.0000 -0.1697655941
C   C73       1.0  0.55238  0.01665  0.74257  1.0000 -0.0877273498
C   C74       1.0  0.01665  0.74257  0.55238  1.0000 -0.0877273498
C   C75       1.0  0.74257  0.55238  0.01665  1.0000 -0.0877273498
C   C76       1.0  0.98335  0.44762  0.25743  1.0000 -0.0877273498
C   C77       1.0  0.25743  0.98335  0.44762  1.0000 -0.0877273498
C   C78       1.0  0.44762  0.25743  0.98335  1.0000 -0.0877273498
C   C79       1.0  0.44762  0.98335  0.25743  1.0000 -0.0877273498
C   C80       1.0  0.98335  0.25743  0.44762  1.0000 -0.0877273498
C   C81       1.0  0.25743  0.44762  0.98335  1.0000 -0.0877273498
C   C82       1.0  0.01665  0.55238  0.74257  1.0000 -0.0877273498
C   C83       1.0  0.74257  0.01665  0.55238  1.0000 -0.0877273498
C   C84       1.0  0.55238  0.74257  0.01665  1.0000 -0.0877273498
C   C85       1.0  0.50685  0.92396  0.85499  1.0000 -0.0205159241
C   C86       1.0  0.92396  0.85499  0.50685  1.0000 -0.0205159241
C   C87       1.0  0.85499  0.50685  0.92396  1.0000 -0.0205159241
C   C88       1.0  0.07604  0.49315  0.14501  1.0000 -0.0205159241
C   C89       1.0  0.14501  0.07604  0.49315  1.0000 -0.0205159241
C   C90       1.0  0.49315  0.14501  0.07604  1.0000 -0.0205159241
C   C91       1.0  0.49315  0.07604  0.14501  1.0000 -0.0205159241
C   C92       1.0  0.07604  0.14501  0.49315  1.0000 -0.0205159241
C   C93       1.0  0.14501  0.49315  0.07604  1.0000 -0.0205159241
C   C94       1.0  0.92396  0.50685  0.85499  1.0000 -0.0205159241
C   C95       1.0  0.85499  0.92396  0.50685  1.0000 -0.0205159241
C   C96       1.0  0.50685  0.85499  0.92396  1.0000 -0.0205159241
C   C97       1.0  0.50431  0.97689  0.90960  1.0000 -0.1923953108
C   C98       1.0  0.97689  0.90960  0.50431  1.0000 -0.1923953108
C   C99       1.0  0.90960  0.50431  0.97689  1.0000 -0.1923953108
C   C100      1.0  0.02311  0.49569  0.09040  1.0000 -0.1923953108
C   C101      1.0  0.09040  0.02311  0.49569  1.0000 -0.1923953108
C   C102      1.0  0.49569  0.09040  0.02311  1.0000 -0.1923953108
C   C103      1.0  0.49569  0.02311  0.09040  1.0000 -0.1923953108
C   C104      1.0  0.02311  0.09040  0.49569  1.0000 -0.1923953108
C   C105      1.0  0.09040  0.49569  0.02311  1.0000 -0.1923953108
C   C106      1.0  0.97689  0.50431  0.90960  1.0000 -0.1923953108
C   C107      1.0  0.90960  0.97689  0.50431  1.0000 -0.1923953108
C   C108      1.0  0.50431  0.90960  0.97689  1.0000 -0.1923953108
C   C109      1.0  0.50176  0.97152  0.97152  1.0000 0.0693672945
C   C110      1.0  0.97152  0.97152  0.50176  1.0000 0.0693672945
C   C111      1.0  0.97152  0.50176  0.97152  1.0000 0.0693672945
C   C112      1.0  0.02848  0.49824  0.02848  1.0000 0.0693672945
C   C113      1.0  0.02848  0.02848  0.49824  1.0000 0.0693672945
C   C114      1.0  0.49824  0.02848  0.02848  1.0000 0.0693672945
C   C115      1.0  0.50810  0.86215  0.86215  1.0000 0.1644456834
C   C116      1.0  0.86215  0.86215  0.50810  1.0000 0.1644456834
C   C117      1.0  0.86215  0.50810  0.86215  1.0000 0.1644456834
C   C118      1.0  0.13785  0.49190  0.13785  1.0000 0.1644456834
C   C119      1.0  0.13785  0.13785  0.49190  1.0000 0.1644456834
C   C120      1.0  0.49190  0.13785  0.13785  1.0000 0.1644456834
C   C121      1.0  0.56646  0.75272  0.75272  1.0000 -0.3664892117
C   C122      1.0  0.75272  0.75272  0.56646  1.0000 -0.3664892117
C   C123      1.0  0.75272  0.56646  0.75272  1.0000 -0.3664892117
C   C124      1.0  0.24728  0.43354  0.24728  1.0000 -0.3664892117
C   C125      1.0  0.24728  0.24728  0.43354  1.0000 -0.3664892117
C   C126      1.0  0.43354  0.24728  0.24728  1.0000 -0.3664892117
C   C127      1.0  0.59346  0.82847  0.82847  1.0000 -0.0309733506
C   C128      1.0  0.82847  0.82847  0.59346  1.0000 -0.0309733506
C   C129      1.0  0.82847  0.59346  0.82847  1.0000 -0.0309733506
C   C130      1.0  0.17153  0.40654  0.17153  1.0000 -0.0309733506
C   C131      1.0  0.17153  0.17153  0.40654  1.0000 -0.0309733506
C   C132      1.0  0.40654  0.17153  0.17153  1.0000 -0.0309733506
O   O1        1.0  0.54576  0.04083  0.62337  1.0000 -0.5276987751
O   O2        1.0  0.04083  0.62337  0.54576  1.0000 -0.5276987751
O   O3        1.0  0.62337  0.54576  0.04083  1.0000 -0.5276987751
O   O4        1.0  0.95917  0.45424  0.37663  1.0000 -0.5276987751
O   O5        1.0  0.37663  0.95917  0.45424  1.0000 -0.5276987751
O   O6        1.0  0.45424  0.37663  0.95917  1.0000 -0.5276987751
O   O7        1.0  0.45424  0.95917  0.37663  1.0000 -0.5276987751
O   O8        1.0  0.95917  0.37663  0.45424  1.0000 -0.5276987751
O   O9        1.0  0.37663  0.45424  0.95917  1.0000 -0.5276987751
O   O10       1.0  0.04083  0.54576  0.62337  1.0000 -0.5276987751
O   O11       1.0  0.62337  0.04083  0.54576  1.0000 -0.5276987751
O   O12       1.0  0.54576  0.62337  0.04083  1.0000 -0.5276987751
O   O13       1.0  0.46298  0.91856  0.54123  1.0000 -0.50343889
O   O14       1.0  0.91856  0.54123  0.46298  1.0000 -0.5051930546
O   O15       1.0  0.54123  0.46298  0.91856  1.0000 -0.50343889
O   O16       1.0  0.08144  0.53702  0.45877  1.0000 -0.50343889
O   O17       1.0  0.45877  0.08144  0.53702  1.0000 -0.50343889
O   O18       1.0  0.53702  0.45877  0.08144  1.0000 -0.50343889
O   O19       1.0  0.53702  0.08144  0.45877  1.0000 -0.50343889
O   O20       1.0  0.08144  0.45877  0.53702  1.0000 -0.50343889
O   O21       1.0  0.45877  0.53702  0.08144  1.0000 -0.50343889
O   O22       1.0  0.91856  0.46298  0.54123  1.0000 -0.50343889
O   O23       1.0  0.54123  0.91856  0.46298  1.0000 -0.5051930546
O   O24       1.0  0.46298  0.54123  0.91856  1.0000 -0.50343889
O   O25       1.0  0.51016  0.80787  0.80787  1.0000 -0.2356009185
O   O26       1.0  0.80787  0.80787  0.51016  1.0000 -0.2356009185
O   O27       1.0  0.80787  0.51016  0.80787  1.0000 -0.2341232449
O   O28       1.0  0.19213  0.48984  0.19213  1.0000 -0.2341232449
O   O29       1.0  0.19213  0.19213  0.48984  1.0000 -0.2356009185
O   O30       1.0  0.48984  0.19213  0.19213  1.0000 -0.2356009185
