# DDEC6 charges by PACMAN v1.1 (https://github.com/mtap-research/PACMAN-charge/)
data_2016[Ni][sit]3[ASR]1
_chemical_formula_sum              "Ni3 H6 C18 O13"
_cell_length_a       10.8866
_cell_length_b       10.8866
_cell_length_c       10.8866
_cell_angle_alpha    126.577
_cell_angle_beta     112.117
_cell_angle_gamma    91.5816

_symmetry_space_group_name_H-M    "P 1"
_symmetry_Int_Tables_number       1

loop_
  _symmetry_equiv_pos_as_xyz
  'x, y, z'

loop_
  _atom_site_type_symbol
  _atom_site_label
  _atom_site_symmetry_multiplicity
  _atom_site_fract_x
  _atom_site_fract_y
  _atom_site_fract_z
  _atom_site_occupancy
  _atom_site_charge
Ni  Ni1       1.0  0.86322  0.86322  0.00000  1.0000 1.0424165302
Ni  Ni2       1.0  0.06020  0.89158  0.83138  1.0000 1.0530900532
Ni  Ni3       1.0  0.06020  0.22882  0.16862  1.0000 1.0530900532
H   H1        1.0  0.84860  0.45080  0.39780  1.0000 0.1321820864
H   H2        1.0  0.05300  0.45080  0.60220  1.0000 0.1321820864
H   H3        1.0  0.49780  0.05460  0.03220  1.0000 0.1321820864
H   H4        1.0  0.02240  0.46560  0.96780  1.0000 0.1354918056
H   H5        1.0  0.02240  0.05460  0.55680  1.0000 0.1321820864
H   H6        1.0  0.49780  0.46560  0.44320  1.0000 0.1354918056
C   C1        1.0  0.75250  0.39950  0.35300  1.0000 -0.0985887723
C   C2        1.0  0.04650  0.39950  0.64700  1.0000 -0.0985887723
C   C3        1.0  0.68290  0.24080  0.19910  1.0000 -0.0089598331
C   C4        1.0  0.04170  0.48380  0.80090  1.0000 -0.0089598331
C   C5        1.0  0.04170  0.24080  0.55790  1.0000 -0.0089598331
C   C6        1.0  0.68290  0.48380  0.44210  1.0000 -0.0089598331
C   C7        1.0  0.54450  0.16600  0.13510  1.0000 -0.0985887723
C   C8        1.0  0.03090  0.40940  0.86490  1.0000 -0.0985887723
C   C9        1.0  0.03090  0.16600  0.62150  1.0000 -0.0985887723
C   C10       1.0  0.54450  0.40940  0.37850  1.0000 -0.0985887723
C   C11       1.0  0.47430  0.25330  0.22100  1.0000 -0.0089598331
C   C12       1.0  0.03230  0.25330  0.77900  1.0000 -0.0089598331
C   C13       1.0  0.32160  0.17380  0.14780  1.0000 0.5960459286
C   C14       1.0  0.02600  0.17380  0.85220  1.0000 0.5960459286
C   C15       1.0  0.76800  0.15100  0.11400  1.0000 0.5935853445
C   C16       1.0  0.03700  0.65400  0.88600  1.0000 0.5935853445
C   C17       1.0  0.03700  0.15100  0.38300  1.0000 0.5935853445
C   C18       1.0  0.76800  0.65400  0.61700  1.0000 0.5935853445
O   O1        1.0  0.73390  0.00400  0.03210  1.0000 -0.4912747643
O   O2        1.0  0.97190  0.70180  0.96790  1.0000 -0.4912747643
O   O3        1.0  0.97190  0.00400  0.27010  1.0000 -0.4912747643
O   O4        1.0  0.73390  0.70180  0.72990  1.0000 -0.4912747643
O   O5        1.0  0.86690  0.23780  0.13970  1.0000 -0.5012218184
O   O6        1.0  0.09810  0.72720  0.86030  1.0000 -0.5012218184
O   O7        1.0  0.09810  0.23780  0.37090  1.0000 -0.5012218184
O   O8        1.0  0.86690  0.72720  0.62910  1.0000 -0.5012218184
O   O9        1.0  0.26390  0.03200  0.00490  1.0000 -0.5105821914
O   O10       1.0  0.02710  0.25900  0.99510  1.0000 -0.5105821914
O   O11       1.0  0.02710  0.03200  0.76810  1.0000 -0.5105821914
O   O12       1.0  0.26390  0.25900  0.23190  1.0000 -0.5105821914
O   O13       1.0  0.99090  0.99090  0.00000  1.0000 -0.8571350998
