# DDEC6 charges by PACMAN v1.1 (https://github.com/mtap-research/PACMAN-charge/)
data_2016[Eu][nan]3[ASR]6
_chemical_formula_sum              "Eu12 H84 C180 O72"
_cell_length_a       33.3029
_cell_length_b       33.3029
_cell_length_c       33.3029
_cell_angle_alpha    155.36
_cell_angle_beta     155.36
_cell_angle_gamma    35.1259

_symmetry_space_group_name_H-M    "P 1"
_symmetry_Int_Tables_number       1

loop_
  _symmetry_equiv_pos_as_xyz
  'x, y, z'

loop_
  _atom_site_type_symbol
  _atom_site_label
  _atom_site_symmetry_multiplicity
  _atom_site_fract_x
  _atom_site_fract_y
  _atom_site_fract_z
  _atom_site_occupancy
  _atom_site_charge
Eu  Eu1       1.0  0.45980  0.95980  0.50000  1.0000 2.0539891583
Eu  Eu2       1.0  0.04020  0.54020  0.50000  1.0000 2.0539891583
Eu  Eu3       1.0  0.29020  0.29020  0.00000  1.0000 2.0539891583
Eu  Eu4       1.0  0.70980  0.70980  0.00000  1.0000 2.0539891583
Eu  Eu5       1.0  0.41906  0.66030  0.20284  1.0000 2.0306715829
Eu  Eu6       1.0  0.45746  0.21622  0.79716  1.0000 2.0306715829
Eu  Eu7       1.0  0.33970  0.54254  0.75876  1.0000 2.0306715829
Eu  Eu8       1.0  0.78378  0.58094  0.24124  1.0000 2.0306715829
Eu  Eu9       1.0  0.29254  0.58970  0.25876  1.0000 2.0306715829
Eu  Eu10      1.0  0.33094  0.03378  0.74124  1.0000 2.0306715829
Eu  Eu11      1.0  0.96622  0.70746  0.29716  1.0000 2.0306715829
Eu  Eu12      1.0  0.41030  0.66906  0.70284  1.0000 2.0306715829
H   H1        1.0  0.27480  0.93950  0.23430  1.0000 0.1196954221
H   H2        1.0  0.70520  0.04050  0.76570  1.0000 0.1196954221
H   H3        1.0  0.06050  0.29480  0.33530  1.0000 0.1196954221
H   H4        1.0  0.95950  0.72520  0.66470  1.0000 0.1196954221
H   H5        1.0  0.04480  0.31050  0.83530  1.0000 0.1196954221
H   H6        1.0  0.47520  0.20950  0.16470  1.0000 0.1196954221
H   H7        1.0  0.79050  0.95520  0.26570  1.0000 0.1196954221
H   H8        1.0  0.68950  0.52480  0.73430  1.0000 0.1196954221
H   H9        1.0  0.18760  0.98050  0.13490  1.0000 0.1073593538
H   H10       1.0  0.84560  0.05270  0.86510  1.0000 0.1073593538
H   H11       1.0  0.01950  0.15440  0.20710  1.0000 0.1073593538
H   H12       1.0  0.94730  0.81240  0.79290  1.0000 0.1073593538
H   H13       1.0  0.90440  0.26950  0.70710  1.0000 0.1073593538
H   H14       1.0  0.56240  0.19730  0.29290  1.0000 0.1073593538
H   H15       1.0  0.80270  0.09560  0.36510  1.0000 0.1073593538
H   H16       1.0  0.73050  0.43760  0.63490  1.0000 0.1073593538
H   H17       1.0  0.30450  0.67770  0.98080  1.0000 0.1394967747
H   H18       1.0  0.69690  0.32370  0.01920  1.0000 0.1394967747
H   H19       1.0  0.32230  0.30310  0.62680  1.0000 0.1394967747
H   H20       1.0  0.67630  0.69550  0.37320  1.0000 0.1394967747
H   H21       1.0  0.05310  0.57230  0.12680  1.0000 0.1394967747
H   H22       1.0  0.44550  0.92630  0.87320  1.0000 0.1394967747
H   H23       1.0  0.07370  0.94690  0.51920  1.0000 0.1394967747
H   H24       1.0  0.42770  0.55450  0.48080  1.0000 0.1394967747
H   H25       1.0  0.02930  0.92860  0.90230  1.0000 0.1073593538
H   H26       1.0  0.02630  0.12700  0.09770  1.0000 0.1073593538
H   H27       1.0  0.07140  0.97370  0.10070  1.0000 0.1073593538
H   H28       1.0  0.87300  0.97070  0.89930  1.0000 0.1073593538
H   H29       1.0  0.72370  0.32140  0.60070  1.0000 0.1073593538
H   H30       1.0  0.72070  0.12300  0.39930  1.0000 0.1073593538
H   H31       1.0  0.87700  0.27630  0.59770  1.0000 0.1073593538
H   H32       1.0  0.67860  0.27930  0.40230  1.0000 0.1073593538
H   H33       1.0  0.96330  0.98180  0.83210  1.0000 0.1073593538
H   H34       1.0  0.14970  0.13120  0.16790  1.0000 0.1073593538
H   H35       1.0  0.01820  0.85030  0.98150  1.0000 0.1073593538
H   H36       1.0  0.86880  0.03670  0.01850  1.0000 0.1073593538
H   H37       1.0  0.60030  0.26820  0.48150  1.0000 0.1073593538
H   H38       1.0  0.78670  0.11880  0.51850  1.0000 0.1073593538
H   H39       1.0  0.88120  0.39970  0.66790  1.0000 0.1073593538
H   H40       1.0  0.73180  0.21330  0.33210  1.0000 0.1073593538
H   H41       1.0  0.02900  0.94570  0.79950  1.0000 0.1196954221
H   H42       1.0  0.14620  0.22950  0.20050  1.0000 0.1196954221
H   H43       1.0  0.05430  0.85380  0.08330  1.0000 0.1196954221
H   H44       1.0  0.77050  0.97100  0.91670  1.0000 0.1196954221
H   H45       1.0  0.60380  0.30430  0.58330  1.0000 0.1196954221
H   H46       1.0  0.72100  0.02050  0.41670  1.0000 0.1196954221
H   H47       1.0  0.97950  0.39620  0.70050  1.0000 0.1196954221
H   H48       1.0  0.69570  0.27900  0.29950  1.0000 0.1196954221
H   H49       1.0  0.23440  0.81720  0.92440  1.0000 0.1286170272
H   H50       1.0  0.89280  0.31000  0.07560  1.0000 0.1286170272
H   H51       1.0  0.18280  0.10720  0.41720  1.0000 0.1286170272
H   H52       1.0  0.69000  0.76560  0.58280  1.0000 0.1286170272
H   H53       1.0  0.85720  0.43280  0.91720  1.0000 0.1286170272
H   H54       1.0  0.51560  0.94000  0.08280  1.0000 0.1286170272
H   H55       1.0  0.06000  0.14280  0.57560  1.0000 0.1286170272
H   H56       1.0  0.56720  0.48440  0.42440  1.0000 0.1286170272
H   H57       1.0  0.21400  0.97910  0.95230  1.0000 0.1196954221
H   H58       1.0  0.02680  0.26170  0.04770  1.0000 0.1196954221
H   H59       1.0  0.02090  0.97320  0.23490  1.0000 0.1196954221
H   H60       1.0  0.73830  0.78600  0.76510  1.0000 0.1196954221
H   H61       1.0  0.72320  0.27090  0.73490  1.0000 0.1196954221
H   H62       1.0  0.53600  0.98830  0.26510  1.0000 0.1196954221
H   H63       1.0  0.01170  0.27680  0.54770  1.0000 0.1196954221
H   H64       1.0  0.72910  0.46400  0.45230  1.0000 0.1196954221
H   H65       1.0  0.27860  0.91710  0.89950  1.0000 0.1196954221
H   H66       1.0  0.01760  0.37910  0.10050  1.0000 0.1196954221
H   H67       1.0  0.08290  0.98240  0.36150  1.0000 0.1196954221
H   H68       1.0  0.62090  0.72140  0.63850  1.0000 0.1196954221
H   H69       1.0  0.73240  0.33290  0.86150  1.0000 0.1196954221
H   H70       1.0  0.47140  0.87090  0.13850  1.0000 0.1196954221
H   H71       1.0  0.12910  0.26760  0.60050  1.0000 0.1196954221
H   H72       1.0  0.66710  0.52860  0.39950  1.0000 0.1196954221
H   H73       1.0  0.24720  0.64970  0.66690  1.0000 0.1394967747
H   H74       1.0  0.98280  0.58030  0.33310  1.0000 0.1394967747
H   H75       1.0  0.35030  0.01720  0.59750  1.0000 0.1394967747
H   H76       1.0  0.41970  0.75280  0.40250  1.0000 0.1394967747
H   H77       1.0  0.76720  0.60030  0.09750  1.0000 0.1394967747
H   H78       1.0  0.50280  0.66970  0.90250  1.0000 0.1394967747
H   H79       1.0  0.33030  0.23280  0.83310  1.0000 0.1394967747
H   H80       1.0  0.39970  0.49720  0.16690  1.0000 0.1394967747
H   H81       1.0  0.42830  0.42830  0.00000  1.0000 0.1394967747
H   H82       1.0  0.57170  0.57170  0.00000  1.0000 0.1394967747
H   H83       1.0  0.32170  0.82170  0.50000  1.0000 0.1394967747
H   H84       1.0  0.17830  0.67830  0.50000  1.0000 0.1394967747
C   C1        1.0  0.28380  0.80790  0.10850  1.0000 -0.0147357874
C   C2        1.0  0.69940  0.17530  0.89150  1.0000 -0.015397064
C   C3        1.0  0.19210  0.30060  0.47590  1.0000 -0.015397064
C   C4        1.0  0.82470  0.71620  0.52410  1.0000 -0.0147357874
C   C5        1.0  0.05060  0.44210  0.97590  1.0000 -0.0147357874
C   C6        1.0  0.46620  0.07470  0.02410  1.0000 -0.0147357874
C   C7        1.0  0.92530  0.94940  0.39150  1.0000 -0.0147357874
C   C8        1.0  0.55790  0.53380  0.60850  1.0000 -0.0147357874
C   C9        1.0  0.25960  0.89310  0.15890  1.0000 -0.0904026413
C   C10       1.0  0.73420  0.10070  0.84110  1.0000 -0.0904026413
C   C11       1.0  0.10690  0.26580  0.36650  1.0000 -0.0904026413
C   C12       1.0  0.89930  0.74040  0.63350  1.0000 -0.0904026413
C   C13       1.0  0.01580  0.35690  0.86650  1.0000 -0.0904026413
C   C14       1.0  0.49040  0.14930  0.13350  1.0000 -0.0904026413
C   C15       1.0  0.85070  0.98420  0.34110  1.0000 -0.0904026413
C   C16       1.0  0.64310  0.50960  0.65890  1.0000 -0.0904026413
C   C17       1.0  0.20970  0.91870  0.10180  1.0000 -0.1843935666
C   C18       1.0  0.81690  0.10790  0.89820  1.0000 -0.1843935666
C   C19       1.0  0.08130  0.18310  0.29100  1.0000 -0.1843935666
C   C20       1.0  0.89210  0.79030  0.70900  1.0000 -0.1843935666
C   C21       1.0  0.93310  0.33130  0.79100  1.0000 -0.1843935666
C   C22       1.0  0.54030  0.14210  0.20900  1.0000 -0.1843935666
C   C23       1.0  0.85790  0.06690  0.39820  1.0000 -0.1843935666
C   C24       1.0  0.66870  0.45970  0.60180  1.0000 -0.1843935666
C   C25       1.0  0.19290  0.84600  0.98890  1.0000 0.0525998412
C   C26       1.0  0.85710  0.20400  0.01110  1.0000 0.0525998412
C   C27       1.0  0.15400  0.14290  0.34690  1.0000 0.0525998412
C   C28       1.0  0.79600  0.80710  0.65310  1.0000 0.0525998412
C   C29       1.0  0.89290  0.40400  0.84690  1.0000 0.0525998412
C   C30       1.0  0.55710  0.04600  0.15310  1.0000 0.0525998412
C   C31       1.0  0.95400  0.10710  0.51110  1.0000 0.0525998412
C   C32       1.0  0.59600  0.44290  0.48890  1.0000 0.0525998412
C   C33       1.0  0.22630  0.75510  0.94380  1.0000 -0.050443634
C   C34       1.0  0.81130  0.28250  0.05620  1.0000 -0.050443634
C   C35       1.0  0.24490  0.18870  0.47120  1.0000 -0.050443634
C   C36       1.0  0.71750  0.77370  0.52880  1.0000 -0.050443634
C   C37       1.0  0.93870  0.49490  0.97120  1.0000 -0.050443634
C   C38       1.0  0.52370  0.96750  0.02880  1.0000 -0.050443634
C   C39       1.0  0.03250  0.06130  0.55620  1.0000 -0.050443634
C   C40       1.0  0.50510  0.47630  0.44380  1.0000 -0.050443634
C   C41       1.0  0.27570  0.73640  0.00490  1.0000 -0.1085681698
C   C42       1.0  0.73150  0.27080  0.99510  1.0000 -0.1085681698
C   C43       1.0  0.26360  0.26850  0.53930  1.0000 -0.1085681698
C   C44       1.0  0.72920  0.72430  0.46070  1.0000 -0.1085681698
C   C45       1.0  0.01850  0.51360  0.03930  1.0000 -0.1085681698
C   C46       1.0  0.47430  0.97920  0.96070  1.0000 -0.1085681698
C   C47       1.0  0.02080  0.98150  0.49510  1.0000 -0.1085681698
C   C48       1.0  0.48640  0.52570  0.50490  1.0000 -0.1085681698
C   C49       1.0  0.14650  0.87860  0.93930  1.0000 0.078540461
C   C50       1.0  0.93930  0.20720  0.06070  1.0000 0.078540461
C   C51       1.0  0.12140  0.06070  0.26790  1.0000 0.078540461
C   C52       1.0  0.79280  0.85350  0.73210  1.0000 0.078540461
C   C53       1.0  0.81070  0.37140  0.76790  1.0000 0.078540461
C   C54       1.0  0.60350  0.04280  0.23210  1.0000 0.078540461
C   C55       1.0  0.95720  0.18930  0.56070  1.0000 0.078540461
C   C56       1.0  0.62860  0.39650  0.43930  1.0000 0.078540461
C   C57       1.0  0.06110  0.91940  0.89850  1.0000 -0.1656342006
C   C58       1.0  0.02090  0.16260  0.10150  1.0000 -0.1656342006
C   C59       1.0  0.08060  0.97910  0.14170  1.0000 -0.1656342006
C   C60       1.0  0.83740  0.93890  0.85830  1.0000 -0.1656342006
C   C61       1.0  0.72910  0.33060  0.64170  1.0000 -0.1656342006
C   C62       1.0  0.68890  0.08740  0.35830  1.0000 -0.1656342006
C   C63       1.0  0.91260  0.27090  0.60150  1.0000 -0.1656342006
C   C64       1.0  0.66940  0.31110  0.39850  1.0000 -0.1656342006
C   C65       1.0  0.01940  0.94790  0.85150  1.0000 -0.0904026413
C   C66       1.0  0.09640  0.16790  0.14850  1.0000 -0.0904026413
C   C67       1.0  0.05210  0.90360  0.07150  1.0000 -0.0904026413
C   C68       1.0  0.83210  0.98060  0.92850  1.0000 -0.0904026413
C   C69       1.0  0.65360  0.30210  0.57150  1.0000 -0.0904026413
C   C70       1.0  0.73060  0.08210  0.42850  1.0000 -0.0904026413
C   C71       1.0  0.91790  0.34640  0.64850  1.0000 -0.0904026413
C   C72       1.0  0.69790  0.26940  0.35150  1.0000 -0.0904026413
C   C73       1.0  0.05940  0.92690  0.83350  1.0000 -0.1570003169
C   C74       1.0  0.09340  0.22590  0.16650  1.0000 -0.1570003169
C   C75       1.0  0.07310  0.90660  0.13250  1.0000 -0.1570003169
C   C76       1.0  0.77410  0.94060  0.86750  1.0000 -0.1570003169
C   C77       1.0  0.65660  0.32310  0.63250  1.0000 -0.1570003169
C   C78       1.0  0.69060  0.02410  0.36750  1.0000 -0.1570003169
C   C79       1.0  0.97590  0.34340  0.66650  1.0000 -0.1570003169
C   C80       1.0  0.67690  0.30940  0.33350  1.0000 -0.1570003169
C   C81       1.0  0.14370  0.87790  0.86260  1.0000 0.078540461
C   C82       1.0  0.01530  0.28110  0.13740  1.0000 0.078540461
C   C83       1.0  0.12210  0.98470  0.26580  1.0000 0.078540461
C   C84       1.0  0.71890  0.85630  0.73420  1.0000 0.078540461
C   C85       1.0  0.73470  0.37210  0.76580  1.0000 0.078540461
C   C86       1.0  0.60630  0.96890  0.23420  1.0000 0.078540461
C   C87       1.0  0.03110  0.26530  0.63740  1.0000 0.078540461
C   C88       1.0  0.62790  0.39370  0.36260  1.0000 0.078540461
C   C89       1.0  0.18030  0.85420  0.90950  1.0000 -0.1872443693
C   C90       1.0  0.94470  0.27080  0.09050  1.0000 -0.1872443693
C   C91       1.0  0.14580  0.05530  0.32610  1.0000 -0.1872443693
C   C92       1.0  0.72920  0.81970  0.67390  1.0000 -0.1872443693
C   C93       1.0  0.80530  0.39580  0.82610  1.0000 -0.1872443693
C   C94       1.0  0.56970  0.97920  0.17390  1.0000 -0.1872443693
C   C95       1.0  0.02080  0.19470  0.59050  1.0000 -0.1872443693
C   C96       1.0  0.60420  0.43030  0.40950  1.0000 -0.1872443693
C   C97       1.0  0.18290  0.84600  0.83210  1.0000 0.0525998412
C   C98       1.0  0.01390  0.35080  0.16790  1.0000 0.0525998412
C   C99       1.0  0.15400  0.98610  0.33690  1.0000 0.0525998412
C   C100      1.0  0.64920  0.81710  0.66310  1.0000 0.0525998412
C   C101      1.0  0.73610  0.40400  0.83690  1.0000 0.0525998412
C   C102      1.0  0.56710  0.89920  0.16310  1.0000 0.0525998412
C   C103      1.0  0.10080  0.26390  0.66790  1.0000 0.0525998412
C   C104      1.0  0.59600  0.43290  0.33210  1.0000 0.0525998412
C   C105      1.0  0.21860  0.91280  0.89360  1.0000 -0.1517470485
C   C106      1.0  0.01920  0.32500  0.10640  1.0000 -0.1517470485
C   C107      1.0  0.08720  0.98080  0.30580  1.0000 -0.1517470485
C   C108      1.0  0.67500  0.78140  0.69420  1.0000 -0.1517470485
C   C109      1.0  0.73080  0.33720  0.80580  1.0000 -0.1517470485
C   C110      1.0  0.53140  0.92500  0.19420  1.0000 -0.1517470485
C   C111      1.0  0.07500  0.26920  0.60640  1.0000 -0.1517470485
C   C112      1.0  0.66280  0.46860  0.39360  1.0000 -0.1517470485
C   C113      1.0  0.25790  0.87420  0.86170  1.0000 -0.0822364125
C   C114      1.0  0.01250  0.39620  0.13830  1.0000 -0.0822364125
C   C115      1.0  0.12580  0.98750  0.38370  1.0000 -0.0822364125
C   C116      1.0  0.60380  0.74210  0.61630  1.0000 -0.0822364125
C   C117      1.0  0.73750  0.37580  0.88370  1.0000 -0.0822364125
C   C118      1.0  0.49210  0.85380  0.11630  1.0000 -0.0822364125
C   C119      1.0  0.14620  0.26250  0.63830  1.0000 -0.0822364125
C   C120      1.0  0.62420  0.50790  0.36170  1.0000 -0.0822364125
C   C121      1.0  0.27070  0.78070  0.78140  1.0000 -0.0420484141
C   C122      1.0  0.99930  0.48930  0.21860  1.0000 -0.0420484141
C   C123      1.0  0.21930  0.00070  0.49000  1.0000 -0.0420484141
C   C124      1.0  0.51070  0.72930  0.51000  1.0000 -0.0420484141
C   C125      1.0  0.75070  0.46930  0.99000  1.0000 -0.0420484141
C   C126      1.0  0.47930  0.76070  0.01000  1.0000 -0.0420484141
C   C127      1.0  0.23930  0.24930  0.71860  1.0000 -0.0420484141
C   C128      1.0  0.53070  0.52070  0.28140  1.0000 -0.0420484141
C   C129      1.0  0.23830  0.71530  0.72140  1.0000 -0.0904026413
C   C130      1.0  0.99390  0.51690  0.27860  1.0000 -0.0904026413
C   C131      1.0  0.28470  0.00610  0.52300  1.0000 -0.0904026413
C   C132      1.0  0.48310  0.76170  0.47700  1.0000 -0.0904026413
C   C133      1.0  0.75610  0.53470  0.02300  1.0000 -0.0904026413
C   C134      1.0  0.51170  0.73310  0.97700  1.0000 -0.0904026413
C   C135      1.0  0.26690  0.24390  0.77860  1.0000 -0.0904026413
C   C136      1.0  0.46530  0.48830  0.22140  1.0000 -0.0904026413
C   C137      1.0  0.19130  0.75120  0.74550  1.0000 -0.0420484141
C   C138      1.0  0.00570  0.44580  0.25450  1.0000 -0.0420484141
C   C139      1.0  0.24880  0.99430  0.44010  1.0000 -0.0420484141
C   C140      1.0  0.55420  0.80870  0.55990  1.0000 -0.0420484141
C   C141      1.0  0.74430  0.49880  0.94010  1.0000 -0.0420484141
C   C142      1.0  0.55870  0.80420  0.05990  1.0000 -0.0420484141
C   C143      1.0  0.19580  0.25570  0.75450  1.0000 -0.0420484141
C   C144      1.0  0.50120  0.44130  0.24550  1.0000 -0.0420484141
C   C145      1.0  0.34290  0.77720  0.17090  1.0000 0.660772161
C   C146      1.0  0.60630  0.17200  0.82910  1.0000 0.660772161
C   C147      1.0  0.22280  0.39370  0.56570  1.0000 0.660772161
C   C148      1.0  0.82800  0.65710  0.43430  1.0000 0.660772161
C   C149      1.0  0.14370  0.47280  0.06570  1.0000 0.660772161
C   C150      1.0  0.40710  0.07800  0.93430  1.0000 0.660772161
C   C151      1.0  0.92200  0.85630  0.32910  1.0000 0.660772161
C   C152      1.0  0.52720  0.59290  0.67090  1.0000 0.660772161
C   C153      1.0  0.21030  0.67100  0.82330  1.0000 0.6338587491
C   C154      1.0  0.84770  0.38700  0.17670  1.0000 0.6338587491
C   C155      1.0  0.32900  0.15230  0.53930  1.0000 0.6338587491
C   C156      1.0  0.61300  0.78970  0.46070  1.0000 0.6338587491
C   C157      1.0  0.90230  0.57900  0.03930  1.0000 0.6338587491
C   C158      1.0  0.53970  0.86300  0.96070  1.0000 0.6338587491
C   C159      1.0  0.13700  0.09770  0.67670  1.0000 0.6338587491
C   C160      1.0  0.42100  0.46030  0.32330  1.0000 0.6338587491
C   C161      1.0  0.14960  0.67670  0.67090  1.0000 0.5910875661
C   C162      1.0  0.00580  0.47870  0.32910  1.0000 0.5910875661
C   C163      1.0  0.32330  0.99420  0.47290  1.0000 0.5910875661
C   C164      1.0  0.52130  0.85040  0.52710  1.0000 0.5910875661
C   C165      1.0  0.74420  0.57330  0.97290  1.0000 0.5910875661
C   C166      1.0  0.60040  0.77130  0.02710  1.0000 0.5910875661
C   C167      1.0  0.22870  0.25580  0.82910  1.0000 0.5910875661
C   C168      1.0  0.42670  0.39960  0.17090  1.0000 0.5910875661
C   C169      1.0  0.31310  0.74800  0.75310  1.0000 0.5411688102
C   C170      1.0  0.99490  0.56000  0.24690  1.0000 0.5411688102
C   C171      1.0  0.25200  0.00510  0.56510  1.0000 0.5411688102
C   C172      1.0  0.44000  0.68690  0.43490  1.0000 0.5411688102
C   C173      1.0  0.75510  0.50200  0.06510  1.0000 0.5411688102
C   C174      1.0  0.43690  0.69000  0.93490  1.0000 0.5411688102
C   C175      1.0  0.31000  0.24490  0.74690  1.0000 0.5411688102
C   C176      1.0  0.49800  0.56310  0.25310  1.0000 0.5411688102
C   C177      1.0  0.44300  0.44300  0.00000  1.0000 0.4885790659
C   C178      1.0  0.55700  0.55700  0.00000  1.0000 0.4885790659
C   C179      1.0  0.30700  0.80700  0.50000  1.0000 0.4885790659
C   C180      1.0  0.19300  0.69300  0.50000  1.0000 0.4885790659
O   O1        1.0  0.37460  0.83970  0.28310  1.0000 -0.7979531499
O   O2        1.0  0.55660  0.09150  0.71690  1.0000 -0.7979531499
O   O3        1.0  0.16030  0.44340  0.53490  1.0000 -0.7979531499
O   O4        1.0  0.90850  0.62540  0.46510  1.0000 -0.7979531499
O   O5        1.0  0.19340  0.41030  0.03490  1.0000 -0.7979531499
O   O6        1.0  0.37540  0.15850  0.96510  1.0000 -0.7979531499
O   O7        1.0  0.84150  0.80660  0.21690  1.0000 -0.7979531499
O   O8        1.0  0.58970  0.62460  0.78310  1.0000 -0.7979531499
O   O9        1.0  0.35020  0.68570  0.10230  1.0000 -0.717950775
O   O10       1.0  0.58340  0.24790  0.89770  1.0000 -0.717950775
O   O11       1.0  0.31430  0.41660  0.66450  1.0000 -0.717950775
O   O12       1.0  0.75210  0.64980  0.33550  1.0000 -0.717950775
O   O13       1.0  0.16660  0.56430  0.16450  1.0000 -0.717950775
O   O14       1.0  0.39980  0.00210  0.83550  1.0000 -0.717950775
O   O15       1.0  0.99790  0.83340  0.39770  1.0000 -0.717950775
O   O16       1.0  0.43570  0.60020  0.60230  1.0000 -0.717950775
O   O17       1.0  0.27970  0.63020  0.83950  1.0000 -0.5573838713
O   O18       1.0  0.79070  0.44020  0.16050  1.0000 -0.5573838713
O   O19       1.0  0.36980  0.20930  0.64950  1.0000 -0.5573838713
O   O20       1.0  0.55980  0.72030  0.35050  1.0000 -0.5573838713
O   O21       1.0  0.95930  0.61980  0.14950  1.0000 -0.5573838713
O   O22       1.0  0.47030  0.80980  0.85050  1.0000 -0.5573838713
O   O23       1.0  0.19020  0.04070  0.66050  1.0000 -0.5573838713
O   O24       1.0  0.38020  0.52970  0.33950  1.0000 -0.5573838713
O   O25       1.0  0.12430  0.65180  0.71770  1.0000 -0.6751446264
O   O26       1.0  0.93410  0.40660  0.28230  1.0000 -0.6751446264
O   O27       1.0  0.34820  0.06590  0.47250  1.0000 -0.6751446264
O   O28       1.0  0.59340  0.87570  0.52750  1.0000 -0.6751446264
O   O29       1.0  0.81590  0.59820  0.97250  1.0000 -0.6751446264
O   O30       1.0  0.62570  0.84340  0.02750  1.0000 -0.6751446264
O   O31       1.0  0.15660  0.18410  0.78230  1.0000 -0.6688872354
O   O32       1.0  0.40180  0.37430  0.21770  1.0000 -0.6688872354
O   O33       1.0  0.20258  0.61588  0.67630  1.0000 -0.6688872354
O   O34       1.0  0.93958  0.52628  0.32370  1.0000 -0.6688872354
O   O35       1.0  0.38412  0.06042  0.58670  1.0000 -0.6688872354
O   O36       1.0  0.47372  0.79742  0.41330  1.0000 -0.6688872354
O   O37       1.0  0.81042  0.63412  0.08670  1.0000 -0.6688872354
O   O38       1.0  0.54742  0.72372  0.91330  1.0000 -0.6688872354
O   O39       1.0  0.27628  0.18958  0.82370  1.0000 -0.6688872354
O   O40       1.0  0.36588  0.45258  0.17630  1.0000 -0.6688872354
O   O41       1.0  0.06731  0.68321  0.61130  1.0000 -0.5145724328
O   O42       1.0  0.07191  0.45601  0.38870  1.0000 -0.5145724328
O   O43       1.0  0.31679  0.92809  0.38410  1.0000 -0.5145724328
O   O44       1.0  0.54399  0.93269  0.61590  1.0000 -0.5145724328
O   O45       1.0  0.67809  0.56679  0.88410  1.0000 -0.5145724328
O   O46       1.0  0.68269  0.79399  0.11590  1.0000 -0.5145724328
O   O47       1.0  0.20601  0.32191  0.88870  1.0000 -0.5145724328
O   O48       1.0  0.43321  0.31731  0.11130  1.0000 -0.5145724328
O   O49       1.0  0.34970  0.80740  0.81490  1.0000 -0.6217118042
O   O50       1.0  0.99250  0.53480  0.18510  1.0000 -0.6217118042
O   O51       1.0  0.19260  0.00750  0.54230  1.0000 -0.6217118042
O   O52       1.0  0.46520  0.65030  0.45770  1.0000 -0.6217118042
O   O53       1.0  0.75750  0.44260  0.04230  1.0000 -0.6217118042
O   O54       1.0  0.40030  0.71520  0.95770  1.0000 -0.6217118042
O   O55       1.0  0.28480  0.24250  0.68510  1.0000 -0.6217118042
O   O56       1.0  0.55740  0.59970  0.31490  1.0000 -0.6217118042
O   O57       1.0  0.32874  0.65374  0.67860  1.0000 -0.7269771086
O   O58       1.0  0.97514  0.65014  0.32140  1.0000 -0.7269771086
O   O59       1.0  0.34626  0.02486  0.67500  1.0000 -0.7269771086
O   O60       1.0  0.34986  0.67126  0.32500  1.0000 -0.7269771086
O   O61       1.0  0.77486  0.59626  0.17500  1.0000 -0.7269771086
O   O62       1.0  0.42126  0.59986  0.82500  1.0000 -0.7269771086
O   O63       1.0  0.40014  0.22514  0.82140  1.0000 -0.7269771086
O   O64       1.0  0.40374  0.57874  0.17860  1.0000 -0.7269771086
O   O65       1.0  0.46310  0.52680  0.08730  1.0000 -0.5328520673
O   O66       1.0  0.43950  0.37580  0.91270  1.0000 -0.5328520673
O   O67       1.0  0.47320  0.56050  0.93630  1.0000 -0.5328520673
O   O68       1.0  0.62420  0.53690  0.06370  1.0000 -0.5328520673
O   O69       1.0  0.31050  0.72320  0.43630  1.0000 -0.5328520673
O   O70       1.0  0.28690  0.87420  0.56370  1.0000 -0.5328520673
O   O71       1.0  0.12580  0.68950  0.41270  1.0000 -0.5328520673
O   O72       1.0  0.27680  0.71310  0.58730  1.0000 -0.5328520673
