# DDEC6 charges by PACMAN v1.1 (https://github.com/mtap-research/PACMAN-charge/)
data_2016[Zn][ths]3[ASR]5
_chemical_formula_sum              "Zn4 H56 C96 N8 O16"
_cell_length_a       15.2957
_cell_length_b       15.2957
_cell_length_c       28.2321
_cell_angle_alpha    69.8958
_cell_angle_beta     110.104
_cell_angle_gamma    139.091

_symmetry_space_group_name_H-M    "P 1"
_symmetry_Int_Tables_number       1

loop_
  _symmetry_equiv_pos_as_xyz
  'x, y, z'

loop_
  _atom_site_type_symbol
  _atom_site_label
  _atom_site_symmetry_multiplicity
  _atom_site_fract_x
  _atom_site_fract_y
  _atom_site_fract_z
  _atom_site_occupancy
  _atom_site_charge
Zn  Zn1       1.0  0.88522  0.66692  0.98011  1.0000 0.7884557978
Zn  Zn2       1.0  0.33308  0.11478  0.48011  1.0000 0.7884557978
Zn  Zn3       1.0  0.66692  0.88522  0.51989  1.0000 0.7884557978
Zn  Zn4       1.0  0.11478  0.33308  0.01989  1.0000 0.7884557978
H   H1        1.0  0.83110  0.23990  0.42250  1.0000 0.1287113994
H   H2        1.0  0.76010  0.16890  0.92250  1.0000 0.1287113994
H   H3        1.0  0.69810  0.35970  0.29740  1.0000 0.1200225833
H   H4        1.0  0.64030  0.30190  0.79740  1.0000 0.1200225833
H   H5        1.0  0.01240  0.08840  0.46930  1.0000 0.1287113994
H   H6        1.0  0.91160  0.98760  0.96930  1.0000 0.1287113994
H   H7        1.0  0.88200  0.12860  0.43700  1.0000 0.1200225833
H   H8        1.0  0.87140  0.11800  0.93700  1.0000 0.1200225833
H   H9        1.0  0.12280  0.41320  0.32940  1.0000 0.1112180987
H   H10       1.0  0.58680  0.87720  0.82940  1.0000 0.1112180987
H   H11       1.0  0.02030  0.58190  0.14340  1.0000 0.1112180987
H   H12       1.0  0.41810  0.97970  0.64340  1.0000 0.1112180987
H   H13       1.0  0.64730  0.34550  0.21440  1.0000 0.1112180987
H   H14       1.0  0.65450  0.35270  0.71440  1.0000 0.1112180987
H   H15       1.0  0.65060  0.41440  0.12710  1.0000 0.1287113994
H   H16       1.0  0.58560  0.34940  0.62710  1.0000 0.1287113994
H   H17       1.0  0.01570  0.50670  0.22950  1.0000 0.1112180987
H   H18       1.0  0.49330  0.98430  0.72950  1.0000 0.1112180987
H   H19       1.0  0.25080  0.37180  0.36150  1.0000 0.1200225833
H   H20       1.0  0.62820  0.74920  0.86150  1.0000 0.1200225833
H   H21       1.0  0.65730  0.14330  0.45290  1.0000 0.137585549
H   H22       1.0  0.85670  0.34270  0.95290  1.0000 0.137585549
H   H23       1.0  0.52740  0.10640  0.49690  1.0000 0.1002827486
H   H24       1.0  0.89360  0.47260  0.99690  1.0000 0.1002827486
H   H25       1.0  0.50690  0.32910  0.39590  1.0000 0.1287113994
H   H26       1.0  0.67090  0.49310  0.89590  1.0000 0.1287113994
H   H27       1.0  0.66310  0.40290  0.35500  1.0000 0.1287113994
H   H28       1.0  0.59710  0.33690  0.85500  1.0000 0.1287113994
H   H29       1.0  0.23990  0.83110  0.07750  1.0000 0.1287113994
H   H30       1.0  0.16890  0.76010  0.57750  1.0000 0.1287113994
H   H31       1.0  0.35970  0.69810  0.20260  1.0000 0.1200225833
H   H32       1.0  0.30190  0.64030  0.70260  1.0000 0.1200225833
H   H33       1.0  0.08840  0.01240  0.03070  1.0000 0.1287113994
H   H34       1.0  0.98760  0.91160  0.53070  1.0000 0.1287113994
H   H35       1.0  0.12860  0.88200  0.06300  1.0000 0.1200225833
H   H36       1.0  0.11800  0.87140  0.56300  1.0000 0.1200225833
H   H37       1.0  0.41320  0.12280  0.17060  1.0000 0.1112180987
H   H38       1.0  0.87720  0.58680  0.67060  1.0000 0.1112180987
H   H39       1.0  0.58190  0.02030  0.35660  1.0000 0.1112180987
H   H40       1.0  0.97970  0.41810  0.85660  1.0000 0.1112180987
H   H41       1.0  0.34550  0.64730  0.28560  1.0000 0.1112180987
H   H42       1.0  0.35270  0.65450  0.78560  1.0000 0.1112180987
H   H43       1.0  0.41440  0.65060  0.37290  1.0000 0.1287113994
H   H44       1.0  0.34940  0.58560  0.87290  1.0000 0.1287113994
H   H45       1.0  0.50670  0.01570  0.27050  1.0000 0.1112180987
H   H46       1.0  0.98430  0.49330  0.77050  1.0000 0.1112180987
H   H47       1.0  0.37180  0.25080  0.13850  1.0000 0.1200225833
H   H48       1.0  0.74920  0.62820  0.63850  1.0000 0.1200225833
H   H49       1.0  0.14330  0.65730  0.04710  1.0000 0.137585549
H   H50       1.0  0.34270  0.85670  0.54710  1.0000 0.137585549
H   H51       1.0  0.10640  0.52740  0.00310  1.0000 0.1002827486
H   H52       1.0  0.47260  0.89360  0.50310  1.0000 0.1002827486
H   H53       1.0  0.32910  0.50690  0.10410  1.0000 0.1287113994
H   H54       1.0  0.49310  0.67090  0.60410  1.0000 0.1287113994
H   H55       1.0  0.40290  0.66310  0.14500  1.0000 0.1287113994
H   H56       1.0  0.33690  0.59710  0.64500  1.0000 0.1287113994
C   C1        1.0  0.66011  0.26069  0.39500  1.0000 0.1112180987
C   C2        1.0  0.73931  0.33989  0.89500  1.0000 0.1112180987
C   C3        1.0  0.74714  0.29286  0.36550  1.0000 0.1200225833
C   C4        1.0  0.70714  0.25286  0.86550  1.0000 0.1112180987
C   C5        1.0  0.90485  0.29975  0.35838  1.0000 0.2212048456
C   C6        1.0  0.70025  0.09515  0.85838  1.0000 0.2212048456
C   C7        1.0  0.82655  0.36605  0.28658  1.0000 0.2142216399
C   C8        1.0  0.63395  0.17345  0.78658  1.0000 0.2142216399
C   C9        1.0  0.82841  0.27199  0.38801  1.0000 -0.230008138
C   C10       1.0  0.72801  0.17159  0.88801  1.0000 -0.230008138
C   C11       1.0  0.98871  0.27509  0.37985  1.0000 0.0424922228
C   C12       1.0  0.72491  0.01129  0.87985  1.0000 0.0424922228
C   C13       1.0  0.82993  0.41587  0.23111  1.0000 0.0424922228
C   C14       1.0  0.58413  0.17007  0.73111  1.0000 0.0424922228
C   C15       1.0  0.74891  0.34249  0.31363  1.0000 -0.2445938006
C   C16       1.0  0.65751  0.25109  0.81363  1.0000 -0.2445938006
C   C17       1.0  0.84103  0.55517  0.07033  1.0000 0.5436020404
C   C18       1.0  0.44483  0.15897  0.57033  1.0000 0.5436020404
C   C19       1.0  0.83577  0.50603  0.12664  1.0000 -0.0100049057
C   C20       1.0  0.49397  0.16423  0.62664  1.0000 -0.0100049057
C   C21       1.0  0.03402  0.15278  0.44103  1.0000 -0.0844532471
C   C22       1.0  0.84722  0.96598  0.94103  1.0000 -0.0844532471
C   C23       1.0  0.95616  0.17764  0.42172  1.0000 -0.1294050055
C   C24       1.0  0.82236  0.04384  0.92172  1.0000 -0.1294050055
C   C25       1.0  0.14268  0.22372  0.41812  1.0000 -0.0100049057
C   C26       1.0  0.77628  0.85732  0.91812  1.0000 -0.0100049057
C   C27       1.0  0.09975  0.34765  0.35731  1.0000 -0.1365437113
C   C28       1.0  0.65235  0.90025  0.85731  1.0000 -0.1365437113
C   C29       1.0  0.94456  0.53304  0.15752  1.0000 -0.1104991358
C   C30       1.0  0.46696  0.05544  0.65752  1.0000 -0.1104991358
C   C31       1.0  0.72181  0.39099  0.20025  1.0000 -0.152678521
C   C32       1.0  0.60901  0.27819  0.70025  1.0000 -0.152678521
C   C33       1.0  0.72480  0.43440  0.14778  1.0000 -0.0893432159
C   C34       1.0  0.56560  0.27520  0.64778  1.0000 -0.0893432159
C   C35       1.0  0.94197  0.48823  0.20924  1.0000 -0.1294050055
C   C36       1.0  0.51177  0.05803  0.70924  1.0000 -0.1294050055
C   C37       1.0  0.17598  0.32222  0.37660  1.0000 -0.0977154538
C   C38       1.0  0.67778  0.82402  0.87660  1.0000 -0.0977154538
C   C39       1.0  0.22401  0.19399  0.43820  1.0000 0.5436020404
C   C40       1.0  0.80601  0.77599  0.93820  1.0000 0.5436020404
C   C41       1.0  0.62567  0.18133  0.43880  1.0000 -0.2044564017
C   C42       1.0  0.81867  0.37433  0.93880  1.0000 -0.2044564017
C   C43       1.0  0.54077  0.15383  0.46420  1.0000 0.1002827486
C   C44       1.0  0.84617  0.45923  0.96420  1.0000 0.1002827486
C   C45       1.0  0.53439  0.28721  0.40660  1.0000 0.0529001899
C   C46       1.0  0.71279  0.46561  0.90660  1.0000 0.0529001899
C   C47       1.0  0.62538  0.33022  0.38090  1.0000 -0.2089652881
C   C48       1.0  0.66978  0.37462  0.88090  1.0000 -0.2089652881
C   C49       1.0  0.26069  0.66011  0.10500  1.0000 0.1112180987
C   C50       1.0  0.33989  0.73931  0.60500  1.0000 0.1112180987
C   C51       1.0  0.29286  0.74714  0.13450  1.0000 0.1112180987
C   C52       1.0  0.25286  0.70714  0.63450  1.0000 0.1200225833
C   C53       1.0  0.29975  0.90485  0.14162  1.0000 0.2212048456
C   C54       1.0  0.09515  0.70025  0.64162  1.0000 0.2212048456
C   C55       1.0  0.36605  0.82655  0.21342  1.0000 0.2142216399
C   C56       1.0  0.17345  0.63395  0.71342  1.0000 0.2142216399
C   C57       1.0  0.27199  0.82841  0.11199  1.0000 -0.230008138
C   C58       1.0  0.17159  0.72801  0.61199  1.0000 -0.230008138
C   C59       1.0  0.27509  0.98871  0.12015  1.0000 0.0424922228
C   C60       1.0  0.01129  0.72491  0.62015  1.0000 0.0424922228
C   C61       1.0  0.41587  0.82993  0.26889  1.0000 0.0424922228
C   C62       1.0  0.17007  0.58413  0.76889  1.0000 0.0424922228
C   C63       1.0  0.34249  0.74891  0.18637  1.0000 -0.2445938006
C   C64       1.0  0.25109  0.65751  0.68637  1.0000 -0.245726572
C   C65       1.0  0.55517  0.84103  0.42967  1.0000 0.5436020404
C   C66       1.0  0.15897  0.44483  0.92967  1.0000 0.5436020404
C   C67       1.0  0.50603  0.83577  0.37336  1.0000 -0.0100049057
C   C68       1.0  0.16423  0.49397  0.87336  1.0000 -0.0100049057
C   C69       1.0  0.15278  0.03402  0.05897  1.0000 -0.0844532471
C   C70       1.0  0.96598  0.84722  0.55897  1.0000 -0.0844532471
C   C71       1.0  0.17764  0.95616  0.07828  1.0000 -0.1294050055
C   C72       1.0  0.04384  0.82236  0.57828  1.0000 -0.1294050055
C   C73       1.0  0.22372  0.14268  0.08188  1.0000 -0.0100049057
C   C74       1.0  0.85732  0.77628  0.58188  1.0000 -0.0100049057
C   C75       1.0  0.34765  0.09975  0.14269  1.0000 -0.1365437113
C   C76       1.0  0.90025  0.65235  0.64269  1.0000 -0.1365437113
C   C77       1.0  0.53304  0.94456  0.34248  1.0000 -0.1104991358
C   C78       1.0  0.05544  0.46696  0.84248  1.0000 -0.1104991358
C   C79       1.0  0.39099  0.72181  0.29975  1.0000 -0.152678521
C   C80       1.0  0.27819  0.60901  0.79975  1.0000 -0.152678521
C   C81       1.0  0.43440  0.72480  0.35222  1.0000 -0.0893432159
C   C82       1.0  0.27520  0.56560  0.85222  1.0000 -0.0893432159
C   C83       1.0  0.48823  0.94197  0.29076  1.0000 -0.1294050055
C   C84       1.0  0.05803  0.51177  0.79076  1.0000 -0.1294050055
C   C85       1.0  0.32222  0.17598  0.12340  1.0000 -0.0977154538
C   C86       1.0  0.82402  0.67778  0.62340  1.0000 -0.0977154538
C   C87       1.0  0.19399  0.22401  0.06180  1.0000 0.5436020404
C   C88       1.0  0.77599  0.80601  0.56180  1.0000 0.5436020404
C   C89       1.0  0.18133  0.62567  0.06120  1.0000 -0.2044564017
C   C90       1.0  0.37433  0.81867  0.56120  1.0000 -0.2044564017
C   C91       1.0  0.15383  0.54077  0.03580  1.0000 0.1002827486
C   C92       1.0  0.45923  0.84617  0.53580  1.0000 0.1002827486
C   C93       1.0  0.28721  0.53439  0.09340  1.0000 0.0529001899
C   C94       1.0  0.46561  0.71279  0.59340  1.0000 0.0529001899
C   C95       1.0  0.33022  0.62538  0.11910  1.0000 -0.2089652881
C   C96       1.0  0.37462  0.66978  0.61910  1.0000 -0.2089652881
N   N1        1.0  0.90527  0.34713  0.30858  1.0000 -0.3097414464
N   N2        1.0  0.65287  0.09473  0.80858  1.0000 -0.3097414464
N   N3        1.0  0.48241  0.18819  0.44628  1.0000 -0.2089652881
N   N4        1.0  0.81181  0.51759  0.94628  1.0000 -0.2089652881
N   N5        1.0  0.34713  0.90527  0.19142  1.0000 -0.3097414464
N   N6        1.0  0.09473  0.65287  0.69142  1.0000 -0.3097414464
N   N7        1.0  0.18819  0.48241  0.05372  1.0000 -0.2089652881
N   N8        1.0  0.51759  0.81181  0.55372  1.0000 -0.2089652881
O   O1        1.0  0.94709  0.62851  0.05316  1.0000 -0.5525794492
O   O2        1.0  0.37149  0.05291  0.55316  1.0000 -0.5525794492
O   O3        1.0  0.73647  0.52053  0.04225  1.0000 -0.5240416691
O   O4        1.0  0.47947  0.26353  0.54225  1.0000 -0.5240416691
O   O5        1.0  0.19344  0.10876  0.47732  1.0000 -0.4978899598
O   O6        1.0  0.89124  0.80656  0.97732  1.0000 -0.4978899598
O   O7        1.0  0.31649  0.25011  0.41720  1.0000 -0.5308798865
O   O8        1.0  0.74989  0.68351  0.91720  1.0000 -0.5308798865
O   O9        1.0  0.62851  0.94709  0.44684  1.0000 -0.5525794492
O   O10       1.0  0.05291  0.37149  0.94684  1.0000 -0.5525794492
O   O11       1.0  0.52053  0.73647  0.45775  1.0000 -0.5240416691
O   O12       1.0  0.26353  0.47947  0.95775  1.0000 -0.5240416691
O   O13       1.0  0.10876  0.19344  0.02268  1.0000 -0.4978899598
O   O14       1.0  0.80656  0.89124  0.52268  1.0000 -0.4978899598
O   O15       1.0  0.25011  0.31649  0.08280  1.0000 -0.5308798865
O   O16       1.0  0.68351  0.74989  0.58280  1.0000 -0.5308798865
