# DDEC6 charges by PACMAN v1.1 (https://github.com/mtap-research/PACMAN-charge/)
data_2016[In][nan]3[ASR]15
_chemical_formula_sum              "In16 H12 C60 N24 O48"
_cell_length_a       21.6238
_cell_length_b       21.6238
_cell_length_c       21.6238
_cell_angle_alpha    109.471
_cell_angle_beta     109.471
_cell_angle_gamma    109.471

_symmetry_space_group_name_H-M    "P 1"
_symmetry_Int_Tables_number       1

loop_
  _symmetry_equiv_pos_as_xyz
  'x, y, z'

loop_
  _atom_site_type_symbol
  _atom_site_label
  _atom_site_symmetry_multiplicity
  _atom_site_fract_x
  _atom_site_fract_y
  _atom_site_fract_z
  _atom_site_occupancy
  _atom_site_charge
In  In1       1.0  0.25000  0.69600  0.44600  1.0000 1.0914845749
In  In2       1.0  0.75000  0.80400  0.05400  1.0000 1.0914845749
In  In3       1.0  0.44600  0.25000  0.69600  1.0000 1.0775098878
In  In4       1.0  0.05400  0.75000  0.80400  1.0000 1.0775098878
In  In5       1.0  0.69600  0.44600  0.25000  1.0000 1.0914845749
In  In6       1.0  0.80400  0.05400  0.75000  1.0000 1.0775098878
In  In7       1.0  0.69600  0.75000  0.44600  1.0000 1.0914845749
In  In8       1.0  0.80400  0.25000  0.05400  1.0000 1.0914845749
In  In9       1.0  0.75000  0.44600  0.69600  1.0000 1.0914845749
In  In10      1.0  0.25000  0.05400  0.80400  1.0000 1.0775098878
In  In11      1.0  0.05400  0.80400  0.25000  1.0000 1.0775098878
In  In12      1.0  0.44600  0.69600  0.75000  1.0000 1.0914845749
In  In13      1.0  0.50000  0.00000  0.75000  1.0000 1.4976586897
In  In14      1.0  0.75000  0.75000  0.75000  1.0000 1.4976586897
In  In15      1.0  0.75000  0.50000  0.00000  1.0000 1.4976586897
In  In16      1.0  0.00000  0.75000  0.50000  1.0000 1.4976586897
H   H1        1.0  0.31360  0.62720  0.56360  1.0000 0.0746136912
H   H2        1.0  0.56360  0.75000  0.93640  1.0000 0.0746136912
H   H3        1.0  0.93640  0.87280  0.18640  1.0000 0.0746136912
H   H4        1.0  0.18640  0.75000  0.31360  1.0000 0.0746136912
H   H5        1.0  0.56360  0.31360  0.62720  1.0000 0.0746136912
H   H6        1.0  0.93640  0.56360  0.75000  1.0000 0.0746136912
H   H7        1.0  0.18640  0.93640  0.87280  1.0000 0.0754926923
H   H8        1.0  0.31360  0.18640  0.75000  1.0000 0.0746136912
H   H9        1.0  0.62720  0.56360  0.31360  1.0000 0.0746136912
H   H10       1.0  0.75000  0.93640  0.56360  1.0000 0.0746136912
H   H11       1.0  0.87280  0.18640  0.93640  1.0000 0.0746136912
H   H12       1.0  0.75000  0.31360  0.18640  1.0000 0.0746136912
C   C1        1.0  0.34000  0.68000  0.59000  1.0000 0.2027148146
C   C2        1.0  0.59000  0.75000  0.91000  1.0000 0.2027148146
C   C3        1.0  0.91000  0.82000  0.16000  1.0000 0.2027148146
C   C4        1.0  0.16000  0.75000  0.34000  1.0000 0.2027148146
C   C5        1.0  0.59000  0.34000  0.68000  1.0000 0.2059307295
C   C6        1.0  0.91000  0.59000  0.75000  1.0000 0.2027148146
C   C7        1.0  0.16000  0.91000  0.82000  1.0000 0.2027148146
C   C8        1.0  0.34000  0.16000  0.75000  1.0000 0.2027148146
C   C9        1.0  0.68000  0.59000  0.34000  1.0000 0.2027148146
C   C10       1.0  0.75000  0.91000  0.59000  1.0000 0.2027148146
C   C11       1.0  0.82000  0.16000  0.91000  1.0000 0.2059307295
C   C12       1.0  0.75000  0.34000  0.16000  1.0000 0.2027148146
C   C13       1.0  0.37580  0.79190  0.61310  1.0000 -0.0154546551
C   C14       1.0  0.67880  0.76270  0.88690  1.0000 -0.0141668821
C   C15       1.0  0.82120  0.70810  0.08390  1.0000 -0.0154546551
C   C16       1.0  0.12420  0.73730  0.41610  1.0000 -0.0154546551
C   C17       1.0  0.61310  0.37580  0.79190  1.0000 -0.0154546551
C   C18       1.0  0.88690  0.67880  0.76270  1.0000 -0.0154546551
C   C19       1.0  0.08390  0.82120  0.70810  1.0000 -0.0154546551
C   C20       1.0  0.41610  0.12420  0.73730  1.0000 -0.0154546551
C   C21       1.0  0.79190  0.61310  0.37580  1.0000 -0.0154546551
C   C22       1.0  0.76270  0.88690  0.67880  1.0000 -0.0154546551
C   C23       1.0  0.70810  0.08390  0.82120  1.0000 -0.0154546551
C   C24       1.0  0.73730  0.41610  0.12420  1.0000 -0.0154546551
C   C25       1.0  0.73730  0.82120  0.61310  1.0000 -0.0141668821
C   C26       1.0  0.70810  0.12420  0.88690  1.0000 -0.0154546551
C   C27       1.0  0.76270  0.37580  0.08390  1.0000 -0.0141668821
C   C28       1.0  0.79190  0.67880  0.41610  1.0000 -0.0154546551
C   C29       1.0  0.67880  0.41610  0.79190  1.0000 -0.0154546551
C   C30       1.0  0.37580  0.08390  0.76270  1.0000 -0.0154546551
C   C31       1.0  0.12420  0.88690  0.70810  1.0000 -0.0154546551
C   C32       1.0  0.82120  0.61310  0.73730  1.0000 -0.0141668821
C   C33       1.0  0.08390  0.76270  0.37580  1.0000 -0.0154546551
C   C34       1.0  0.41610  0.79190  0.67880  1.0000 -0.0141668821
C   C35       1.0  0.61310  0.73730  0.82120  1.0000 -0.0154546551
C   C36       1.0  0.88690  0.70810  0.12420  1.0000 -0.0154546551
C   C37       1.0  0.36830  0.85210  0.59320  1.0000 0.5700924966
C   C38       1.0  0.75890  0.77510  0.90680  1.0000 0.5700924966
C   C39       1.0  0.74110  0.64790  0.01620  1.0000 0.5700924966
C   C40       1.0  0.13170  0.72490  0.48380  1.0000 0.5700924966
C   C41       1.0  0.59320  0.36830  0.85210  1.0000 0.5700924966
C   C42       1.0  0.90680  0.75890  0.77510  1.0000 0.5700924966
C   C43       1.0  0.01620  0.74110  0.64790  1.0000 0.5700924966
C   C44       1.0  0.48380  0.13170  0.72490  1.0000 0.5700924966
C   C45       1.0  0.85210  0.59320  0.36830  1.0000 0.5700924966
C   C46       1.0  0.77510  0.90680  0.75890  1.0000 0.5700924966
C   C47       1.0  0.64790  0.01620  0.74110  1.0000 0.5700924966
C   C48       1.0  0.72490  0.48380  0.13170  1.0000 0.5700924966
C   C49       1.0  0.72490  0.74110  0.59320  1.0000 0.5700924966
C   C50       1.0  0.64790  0.13170  0.90680  1.0000 0.5700924966
C   C51       1.0  0.77510  0.36830  0.01620  1.0000 0.5700924966
C   C52       1.0  0.85210  0.75890  0.48380  1.0000 0.5700924966
C   C53       1.0  0.75890  0.48380  0.85210  1.0000 0.5700924966
C   C54       1.0  0.36830  0.01620  0.77510  1.0000 0.5700924966
C   C55       1.0  0.13170  0.90680  0.64790  1.0000 0.5700924966
C   C56       1.0  0.74110  0.59320  0.72490  1.0000 0.5700924966
C   C57       1.0  0.01620  0.77510  0.36830  1.0000 0.5700924966
C   C58       1.0  0.48380  0.85210  0.75890  1.0000 0.5700924966
C   C59       1.0  0.59320  0.72490  0.74110  1.0000 0.5700924966
C   C60       1.0  0.90680  0.64790  0.13170  1.0000 0.5700924966
N   N1        1.0  0.32360  0.71760  0.55440  1.0000 -0.3833284635
N   N2        1.0  0.66320  0.76920  0.94560  1.0000 -0.3833284635
N   N3        1.0  0.83680  0.78240  0.10600  1.0000 -0.3868442875
N   N4        1.0  0.17640  0.73080  0.39400  1.0000 -0.3833284635
N   N5        1.0  0.55440  0.32360  0.71760  1.0000 -0.3833284635
N   N6        1.0  0.94560  0.66320  0.76920  1.0000 -0.3833284635
N   N7        1.0  0.10600  0.83680  0.78240  1.0000 -0.3833284635
N   N8        1.0  0.39400  0.17640  0.73080  1.0000 -0.3833284635
N   N9        1.0  0.71760  0.55440  0.32360  1.0000 -0.3833284635
N   N10       1.0  0.76920  0.94560  0.66320  1.0000 -0.3833284635
N   N11       1.0  0.78240  0.10600  0.83680  1.0000 -0.3833284635
N   N12       1.0  0.73080  0.39400  0.17640  1.0000 -0.3833284635
N   N13       1.0  0.73080  0.83680  0.55440  1.0000 -0.3868442875
N   N14       1.0  0.78240  0.17640  0.94560  1.0000 -0.3833284635
N   N15       1.0  0.76920  0.32360  0.10600  1.0000 -0.3868442875
N   N16       1.0  0.71760  0.66320  0.39400  1.0000 -0.3833284635
N   N17       1.0  0.66320  0.39400  0.71760  1.0000 -0.3833284635
N   N18       1.0  0.32360  0.10600  0.76920  1.0000 -0.3833284635
N   N19       1.0  0.17640  0.94560  0.78240  1.0000 -0.3833284635
N   N20       1.0  0.83680  0.55440  0.73080  1.0000 -0.3833284635
N   N21       1.0  0.10600  0.76920  0.32360  1.0000 -0.3833284635
N   N22       1.0  0.39400  0.71760  0.66320  1.0000 -0.3833284635
N   N23       1.0  0.55440  0.73080  0.83680  1.0000 -0.3833284635
N   N24       1.0  0.94560  0.78240  0.17640  1.0000 -0.3833284635
O   O1        1.0  0.41140  0.92300  0.64240  1.0000 -0.6114794713
O   O2        1.0  0.78060  0.76900  0.85760  1.0000 -0.6114794713
O   O3        1.0  0.71940  0.57700  0.98840  1.0000 -0.6114794713
O   O4        1.0  0.08860  0.73100  0.51160  1.0000 -0.6114794713
O   O5        1.0  0.64240  0.41140  0.92300  1.0000 -0.6114794713
O   O6        1.0  0.85760  0.78060  0.76900  1.0000 -0.6114794713
O   O7        1.0  0.98840  0.71940  0.57700  1.0000 -0.6114794713
O   O8        1.0  0.51160  0.08860  0.73100  1.0000 -0.6114794713
O   O9        1.0  0.92300  0.64240  0.41140  1.0000 -0.6114794713
O   O10       1.0  0.76900  0.85760  0.78060  1.0000 -0.6114794713
O   O11       1.0  0.57700  0.98840  0.71940  1.0000 -0.6114794713
O   O12       1.0  0.73100  0.51160  0.08860  1.0000 -0.6114794713
O   O13       1.0  0.73100  0.71940  0.64240  1.0000 -0.6114794713
O   O14       1.0  0.57700  0.08860  0.85760  1.0000 -0.6114794713
O   O15       1.0  0.76900  0.41140  0.98840  1.0000 -0.6114794713
O   O16       1.0  0.92300  0.78060  0.51160  1.0000 -0.6114794713
O   O17       1.0  0.78060  0.51160  0.92300  1.0000 -0.6114794713
O   O18       1.0  0.41140  0.98840  0.76900  1.0000 -0.6114794713
O   O19       1.0  0.08860  0.85760  0.57700  1.0000 -0.6114794713
O   O20       1.0  0.71940  0.64240  0.73100  1.0000 -0.6114794713
O   O21       1.0  0.98840  0.76900  0.41140  1.0000 -0.6114794713
O   O22       1.0  0.51160  0.92300  0.78060  1.0000 -0.6114794713
O   O23       1.0  0.64240  0.73100  0.71940  1.0000 -0.6114794713
O   O24       1.0  0.85760  0.57700  0.08860  1.0000 -0.6114794713
O   O25       1.0  0.31740  0.82650  0.52990  1.0000 -0.4910682615
O   O26       1.0  0.79660  0.78750  0.97010  1.0000 -0.4910682615
O   O27       1.0  0.70340  0.67350  0.99090  1.0000 -0.4910682615
O   O28       1.0  0.18260  0.71250  0.50910  1.0000 -0.4910682615
O   O29       1.0  0.52990  0.31740  0.82650  1.0000 -0.4910682615
O   O30       1.0  0.97010  0.79660  0.78750  1.0000 -0.4910682615
O   O31       1.0  0.99090  0.70340  0.67350  1.0000 -0.4910682615
O   O32       1.0  0.50910  0.18260  0.71250  1.0000 -0.4910682615
O   O33       1.0  0.82650  0.52990  0.31740  1.0000 -0.4910682615
O   O34       1.0  0.78750  0.97010  0.79660  1.0000 -0.4910682615
O   O35       1.0  0.67350  0.99090  0.70340  1.0000 -0.4910682615
O   O36       1.0  0.71250  0.50910  0.18260  1.0000 -0.4910682615
O   O37       1.0  0.71250  0.70340  0.52990  1.0000 -0.4910682615
O   O38       1.0  0.67350  0.18260  0.97010  1.0000 -0.4910682615
O   O39       1.0  0.78750  0.31740  0.99090  1.0000 -0.4910682615
O   O40       1.0  0.82650  0.79660  0.50910  1.0000 -0.4910682615
O   O41       1.0  0.79660  0.50910  0.82650  1.0000 -0.4910682615
O   O42       1.0  0.31740  0.99090  0.78750  1.0000 -0.4910682615
O   O43       1.0  0.18260  0.97010  0.67350  1.0000 -0.4910682615
O   O44       1.0  0.70340  0.52990  0.71250  1.0000 -0.4910682615
O   O45       1.0  0.99090  0.78750  0.31740  1.0000 -0.4910682615
O   O46       1.0  0.50910  0.82650  0.79660  1.0000 -0.4910682615
O   O47       1.0  0.52990  0.71250  0.70340  1.0000 -0.4910682615
O   O48       1.0  0.97010  0.67350  0.18260  1.0000 -0.4910682615
