# DDEC6 charges by PACMAN v1.1 (https://github.com/mtap-research/PACMAN-charge/)
data_2016[Zn][sra]3[ASR]4
_chemical_formula_sum              "Zn8 H52 C104 N24 O40"
_cell_length_a       14.261
_cell_length_b       16.664
_cell_length_c       26.16
_cell_angle_alpha    90
_cell_angle_beta     90
_cell_angle_gamma    90

_symmetry_space_group_name_H-M    "P 1"
_symmetry_Int_Tables_number       1

loop_
  _symmetry_equiv_pos_as_xyz
  'x, y, z'

loop_
  _atom_site_type_symbol
  _atom_site_label
  _atom_site_symmetry_multiplicity
  _atom_site_fract_x
  _atom_site_fract_y
  _atom_site_fract_z
  _atom_site_occupancy
  _atom_site_charge
Zn  Zn1       1.0  0.77524  0.07662  0.39129  1.0000 0.964744505
Zn  Zn2       1.0  0.72476  0.92338  0.89129  1.0000 0.964744505
Zn  Zn3       1.0  0.22476  0.57662  0.10870  1.0000 0.964744505
Zn  Zn4       1.0  0.27524  0.42338  0.60871  1.0000 0.964744505
Zn  Zn5       1.0  0.93625  0.93611  0.40648  1.0000 0.9458288071
Zn  Zn6       1.0  0.56375  0.06389  0.90648  1.0000 0.9458288071
Zn  Zn7       1.0  0.06375  0.43611  0.09351  1.0000 0.9458288071
Zn  Zn8       1.0  0.43625  0.56389  0.59352  1.0000 0.9458288071
H   H1        1.0  0.40200  0.83590  0.62260  1.0000 0.303888951
H   H2        1.0  0.09800  0.16410  0.12261  1.0000 0.303888951
H   H3        1.0  0.59800  0.33590  0.87739  1.0000 0.303888951
H   H4        1.0  0.90200  0.66410  0.37739  1.0000 0.303888951
H   H5        1.0  0.13440  0.87760  0.48220  1.0000 0.3077343968
H   H6        1.0  0.36560  0.12240  0.98220  1.0000 0.3077343968
H   H7        1.0  0.86560  0.37760  0.01779  1.0000 0.3077343968
H   H8        1.0  0.63440  0.62240  0.51780  1.0000 0.3077343968
H   H9        1.0  0.23260  0.12330  0.60060  1.0000 0.3077343968
H   H10       1.0  0.26740  0.87670  0.10060  1.0000 0.3077343968
H   H11       1.0  0.76740  0.62330  0.89939  1.0000 0.3077343968
H   H12       1.0  0.73260  0.37670  0.39939  1.0000 0.3077343968
H   H13       1.0  0.07610  0.04850  0.51230  1.0000 0.1385019054
H   H14       1.0  0.42390  0.95150  0.01230  1.0000 0.1385019054
H   H15       1.0  0.92390  0.54850  0.98769  1.0000 0.1385019054
H   H16       1.0  0.57610  0.45150  0.48769  1.0000 0.1385019054
H   H17       1.0  0.94100  0.25700  0.48900  1.0000 0.1385019054
H   H18       1.0  0.55900  0.74300  0.98901  1.0000 0.1385019054
H   H19       1.0  0.05900  0.75700  0.01099  1.0000 0.1385019054
H   H20       1.0  0.44100  0.24300  0.51099  1.0000 0.1385019054
H   H21       1.0  0.04620  0.31940  0.54480  1.0000 0.132490813
H   H22       1.0  0.45380  0.68060  0.04480  1.0000 0.132490813
H   H23       1.0  0.95380  0.81940  0.95519  1.0000 0.132490813
H   H24       1.0  0.54620  0.18060  0.45520  1.0000 0.132490813
H   H25       1.0  0.03970  0.63860  0.42790  1.0000 0.1157600549
H   H26       1.0  0.46030  0.36140  0.92790  1.0000 0.1157600549
H   H27       1.0  0.96030  0.13860  0.07210  1.0000 0.1157600549
H   H28       1.0  0.53970  0.86140  0.57210  1.0000 0.1157600549
H   H29       1.0  0.11980  0.54540  0.47780  1.0000 0.132490813
H   H30       1.0  0.38020  0.45460  0.97780  1.0000 0.132490813
H   H31       1.0  0.88020  0.04540  0.02219  1.0000 0.132490813
H   H32       1.0  0.61980  0.95460  0.52219  1.0000 0.132490813
H   H33       1.0  0.25370  0.73020  0.54700  1.0000 0.1385019054
H   H34       1.0  0.24630  0.26980  0.04700  1.0000 0.1385019054
H   H35       1.0  0.74630  0.23020  0.95300  1.0000 0.1385019054
H   H36       1.0  0.75370  0.76980  0.45299  1.0000 0.1385019054
H   H37       1.0  0.51950  0.81720  0.67830  1.0000 0.1385019054
H   H38       1.0  0.98050  0.18280  0.17830  1.0000 0.1385019054
H   H39       1.0  0.48050  0.31720  0.82169  1.0000 0.1385019054
H   H40       1.0  0.01950  0.68280  0.32169  1.0000 0.1385019054
H   H41       1.0  0.59390  0.85010  0.75240  1.0000 0.1385019054
H   H42       1.0  0.90610  0.14990  0.25240  1.0000 0.1385019054
H   H43       1.0  0.40610  0.35010  0.74759  1.0000 0.1385019054
H   H44       1.0  0.09390  0.64990  0.24760  1.0000 0.1385019054
H   H45       1.0  0.43140  0.04370  0.76580  1.0000 0.132490813
H   H46       1.0  0.06860  0.95630  0.26581  1.0000 0.132490813
H   H47       1.0  0.56860  0.54370  0.73419  1.0000 0.132490813
H   H48       1.0  0.93140  0.45630  0.23419  1.0000 0.132490813
H   H49       1.0  0.35600  0.01160  0.69030  1.0000 0.1385019054
H   H50       1.0  0.14400  0.98840  0.19030  1.0000 0.1385019054
H   H51       1.0  0.64400  0.51160  0.80970  1.0000 0.1385019054
H   H52       1.0  0.85600  0.48840  0.30969  1.0000 0.1385019054
C   C1        1.0  0.31446  0.91483  0.60384  1.0000 0.5347006182
C   C2        1.0  0.18554  0.08517  0.10385  1.0000 0.5347006182
C   C3        1.0  0.68554  0.41483  0.89615  1.0000 0.5365834234
C   C4        1.0  0.81446  0.58517  0.39615  1.0000 0.5347006182
C   C5        1.0  0.21110  0.89334  0.54007  1.0000 0.5365834234
C   C6        1.0  0.28890  0.10666  0.04007  1.0000 0.5365834234
C   C7        1.0  0.78890  0.39334  0.95992  1.0000 0.5365834234
C   C8        1.0  0.71110  0.60666  0.45992  1.0000 0.5365834234
C   C9        1.0  0.22420  0.01633  0.57527  1.0000 0.5347006182
C   C10       1.0  0.27580  0.98367  0.07527  1.0000 0.5347006182
C   C11       1.0  0.77580  0.51633  0.92473  1.0000 0.5347006182
C   C12       1.0  0.72420  0.48367  0.42472  1.0000 0.5347006182
C   C13       1.0  0.13040  0.13881  0.55397  1.0000 0.2157451478
C   C14       1.0  0.36960  0.86119  0.05397  1.0000 0.2157451478
C   C15       1.0  0.86960  0.63881  0.94603  1.0000 0.2157451478
C   C16       1.0  0.63040  0.36119  0.44602  1.0000 0.2157451478
C   C17       1.0  0.06960  0.10285  0.51950  1.0000 -0.1673317435
C   C18       1.0  0.43040  0.89715  0.01950  1.0000 -0.1673317435
C   C19       1.0  0.93040  0.60285  0.98049  1.0000 -0.1673317435
C   C20       1.0  0.56960  0.39715  0.48050  1.0000 -0.1673317435
C   C21       1.0  0.99930  0.14649  0.49550  1.0000 0.0077990834
C   C22       1.0  0.50070  0.85351  0.99550  1.0000 0.0077990834
C   C23       1.0  0.00070  0.64649  0.00451  1.0000 0.0077990834
C   C24       1.0  0.49930  0.35351  0.50450  1.0000 0.0077990834
C   C25       1.0  0.98840  0.22774  0.50480  1.0000 -0.0996110146
C   C26       1.0  0.51160  0.77226  0.00480  1.0000 -0.0996110146
C   C27       1.0  0.01160  0.72774  0.99519  1.0000 -0.0996110146
C   C28       1.0  0.48840  0.27226  0.49519  1.0000 -0.0996110146
C   C29       1.0  0.05130  0.26458  0.53880  1.0000 -0.0821779253
C   C30       1.0  0.44870  0.73542  0.03880  1.0000 -0.0821779253
C   C31       1.0  0.94870  0.76458  0.96120  1.0000 -0.0821779253
C   C32       1.0  0.55130  0.23542  0.46120  1.0000 -0.0821779253
C   C33       1.0  0.12050  0.22148  0.56368  1.0000 -0.1094808511
C   C34       1.0  0.37950  0.77852  0.06369  1.0000 -0.1094808511
C   C35       1.0  0.87950  0.72148  0.93632  1.0000 -0.1094808511
C   C36       1.0  0.62050  0.27852  0.43632  1.0000 -0.1094808511
C   C37       1.0  0.93560  0.10138  0.45765  1.0000 0.6006925223
C   C38       1.0  0.56440  0.89862  0.95765  1.0000 0.6006925223
C   C39       1.0  0.06440  0.60138  0.04235  1.0000 0.6006925223
C   C40       1.0  0.43560  0.39862  0.54234  1.0000 0.6006925223
C   C41       1.0  0.18590  0.26851  0.59789  1.0000 0.5917882216
C   C42       1.0  0.31410  0.73149  0.09789  1.0000 0.5917882216
C   C43       1.0  0.81410  0.76851  0.90211  1.0000 0.5917882216
C   C44       1.0  0.68590  0.23149  0.40210  1.0000 0.5917882216
C   C45       1.0  0.15570  0.76670  0.49698  1.0000 0.2308617798
C   C46       1.0  0.34430  0.23330  0.99697  1.0000 0.2308617798
C   C47       1.0  0.84430  0.26670  0.00302  1.0000 0.2308617798
C   C48       1.0  0.65570  0.73330  0.50303  1.0000 0.2308617798
C   C49       1.0  0.08920  0.73803  0.45998  1.0000 -0.1094808511
C   C50       1.0  0.41080  0.26197  0.95998  1.0000 -0.1094808511
C   C51       1.0  0.91080  0.23803  0.04001  1.0000 -0.1094808511
C   C52       1.0  0.58920  0.76197  0.54002  1.0000 -0.1094808511
C   C53       1.0  0.08030  0.65695  0.45311  1.0000 -0.0996110146
C   C54       1.0  0.41970  0.34305  0.95312  1.0000 -0.0996110146
C   C55       1.0  0.91970  0.15695  0.04688  1.0000 -0.0996110146
C   C56       1.0  0.58030  0.84305  0.54688  1.0000 -0.0996110146
C   C57       1.0  0.12950  0.60018  0.48229  1.0000 -0.1094808511
C   C58       1.0  0.37050  0.39982  0.98228  1.0000 -0.1094808511
C   C59       1.0  0.87050  0.10018  0.01772  1.0000 -0.1094808511
C   C60       1.0  0.62950  0.89982  0.51772  1.0000 -0.1094808511
C   C61       1.0  0.19420  0.62919  0.51858  1.0000 0.0005552944
C   C62       1.0  0.30580  0.37081  0.01859  1.0000 -3.66251e-05
C   C63       1.0  0.80580  0.12919  0.98141  1.0000 -3.66251e-05
C   C64       1.0  0.69420  0.87081  0.48141  1.0000 -3.66251e-05
C   C65       1.0  0.20820  0.71189  0.52434  1.0000 -0.181524547
C   C66       1.0  0.29180  0.28811  0.02434  1.0000 -0.181524547
C   C67       1.0  0.79180  0.21189  0.97565  1.0000 -0.181524547
C   C68       1.0  0.70820  0.78811  0.47565  1.0000 -0.181524547
C   C69       1.0  0.02720  0.79201  0.42785  1.0000 0.5839393852
C   C70       1.0  0.47280  0.20799  0.92785  1.0000 0.5839393852
C   C71       1.0  0.97280  0.29201  0.07215  1.0000 0.5839393852
C   C72       1.0  0.52720  0.70799  0.57215  1.0000 0.5839393852
C   C73       1.0  0.24990  0.57394  0.55119  1.0000 0.5917882216
C   C74       1.0  0.25010  0.42606  0.05118  1.0000 0.5917882216
C   C75       1.0  0.75010  0.07394  0.94881  1.0000 0.5917882216
C   C76       1.0  0.74990  0.92606  0.44882  1.0000 0.5917882216
C   C77       1.0  0.42820  0.91014  0.67665  1.0000 0.2388229152
C   C78       1.0  0.07180  0.08986  0.17666  1.0000 0.2388229152
C   C79       1.0  0.57180  0.41014  0.82334  1.0000 0.2388229152
C   C80       1.0  0.92820  0.58986  0.32334  1.0000 0.2388229152
C   C81       1.0  0.50130  0.86310  0.69593  1.0000 -0.181524547
C   C82       1.0  0.99870  0.13690  0.19593  1.0000 -0.181524547
C   C83       1.0  0.49870  0.36310  0.80407  1.0000 -0.181524547
C   C84       1.0  0.00130  0.63690  0.30406  1.0000 -0.181524547
C   C85       1.0  0.54640  0.88310  0.74006  1.0000 -0.0622855133
C   C86       1.0  0.95360  0.11690  0.24007  1.0000 -0.0664526108
C   C87       1.0  0.45360  0.38310  0.75994  1.0000 -0.0622855133
C   C88       1.0  0.04640  0.61690  0.25994  1.0000 -0.0622855133
C   C89       1.0  0.52260  0.95205  0.76692  1.0000 -0.0622855133
C   C90       1.0  0.97740  0.04795  0.26693  1.0000 -0.0622855133
C   C91       1.0  0.47740  0.45205  0.73307  1.0000 -0.0622855133
C   C92       1.0  0.02260  0.54795  0.23308  1.0000 -0.0622855133
C   C93       1.0  0.44990  0.99810  0.74784  1.0000 -0.0664526108
C   C94       1.0  0.05010  0.00190  0.24785  1.0000 -0.0664526108
C   C95       1.0  0.55010  0.49810  0.75216  1.0000 -0.0664526108
C   C96       1.0  0.94990  0.50190  0.25216  1.0000 -0.0664526108
C   C97       1.0  0.40340  0.97860  0.70274  1.0000 -0.181524547
C   C98       1.0  0.09660  0.02140  0.20274  1.0000 -0.181524547
C   C99       1.0  0.59660  0.47860  0.79725  1.0000 -0.181524547
C   C100      1.0  0.90340  0.52140  0.29725  1.0000 -0.181524547
C   C101      1.0  0.56780  0.97261  0.81588  1.0000 0.6006925223
C   C102      1.0  0.93220  0.02739  0.31589  1.0000 0.6006925223
C   C103      1.0  0.43220  0.47261  0.68412  1.0000 0.6006925223
C   C104      1.0  0.06780  0.52739  0.18411  1.0000 0.6006925223
N   N1        1.0  0.27668  0.86094  0.56951  1.0000 -0.5119601272
N   N2        1.0  0.22332  0.13906  0.06951  1.0000 -0.5119601272
N   N3        1.0  0.72332  0.36094  0.93049  1.0000 -0.5119601272
N   N4        1.0  0.77668  0.63906  0.43049  1.0000 -0.5119601272
N   N5        1.0  0.18260  0.97113  0.54024  1.0000 -0.5119601272
N   N6        1.0  0.31740  0.02887  0.04024  1.0000 -0.5119601272
N   N7        1.0  0.81740  0.47113  0.95976  1.0000 -0.5119601272
N   N8        1.0  0.68260  0.52887  0.45976  1.0000 -0.5119601272
N   N9        1.0  0.29067  0.99206  0.60858  1.0000 -0.5119601272
N   N10       1.0  0.20933  0.00794  0.10858  1.0000 -0.5119601272
N   N11       1.0  0.70933  0.49206  0.89141  1.0000 -0.5119601272
N   N12       1.0  0.79067  0.50794  0.39141  1.0000 -0.5119601272
N   N13       1.0  0.38299  0.88211  0.63292  1.0000 -0.3176637175
N   N14       1.0  0.11701  0.11789  0.13292  1.0000 -0.3176637175
N   N15       1.0  0.61701  0.38211  0.86707  1.0000 -0.3176637175
N   N16       1.0  0.88299  0.61789  0.36707  1.0000 -0.3176637175
N   N17       1.0  0.16430  0.84924  0.50435  1.0000 -0.3283171723
N   N18       1.0  0.33570  0.15076  0.00436  1.0000 -0.3283171723
N   N19       1.0  0.83570  0.34924  0.99564  1.0000 -0.3283171723
N   N20       1.0  0.66430  0.65076  0.49565  1.0000 -0.3283171723
N   N21       1.0  0.19984  0.09593  0.57925  1.0000 -0.3283171723
N   N22       1.0  0.30016  0.90407  0.07926  1.0000 -0.3283171723
N   N23       1.0  0.80016  0.59593  0.92075  1.0000 -0.3283171723
N   N24       1.0  0.69984  0.40407  0.42074  1.0000 -0.3283171723
O   O1        1.0  0.86641  0.13696  0.43974  1.0000 -0.4841481331
O   O2        1.0  0.63359  0.86304  0.93974  1.0000 -0.4841481331
O   O3        1.0  0.13359  0.63696  0.06025  1.0000 -0.4841481331
O   O4        1.0  0.36641  0.36304  0.56025  1.0000 -0.4841481331
O   O5        1.0  0.95780  0.02908  0.44996  1.0000 -0.5752411624
O   O6        1.0  0.54220  0.97092  0.94996  1.0000 -0.5752411624
O   O7        1.0  0.04220  0.52908  0.05004  1.0000 -0.5752411624
O   O8        1.0  0.45780  0.47092  0.55003  1.0000 -0.5752411624
O   O9        1.0  0.17499  0.34307  0.59864  1.0000 -0.5297997477
O   O10       1.0  0.32501  0.65693  0.09864  1.0000 -0.5297997477
O   O11       1.0  0.82501  0.84307  0.90135  1.0000 -0.5297997477
O   O12       1.0  0.67499  0.15693  0.40136  1.0000 -0.5297997477
O   O13       1.0  0.24630  0.23159  0.62428  1.0000 -0.5469258907
O   O14       1.0  0.25370  0.76841  0.12427  1.0000 -0.5469258907
O   O15       1.0  0.75370  0.73159  0.87572  1.0000 -0.5469258907
O   O16       1.0  0.74630  0.26841  0.37572  1.0000 -0.5469258907
O   O17       1.0  0.03334  0.86891  0.43712  1.0000 -0.5575031819
O   O18       1.0  0.46666  0.13109  0.93712  1.0000 -0.5575031819
O   O19       1.0  0.96666  0.36891  0.06288  1.0000 -0.5575031819
O   O20       1.0  0.53334  0.63109  0.56287  1.0000 -0.5575031819
O   O21       1.0  0.97393  0.76413  0.39596  1.0000 -0.5239744815
O   O22       1.0  0.52607  0.23587  0.89597  1.0000 -0.5239744815
O   O23       1.0  0.02607  0.26413  0.10404  1.0000 -0.5239744815
O   O24       1.0  0.47393  0.73587  0.60403  1.0000 -0.5239744815
O   O25       1.0  0.31490  0.60655  0.57781  1.0000 -0.5752411624
O   O26       1.0  0.18510  0.39345  0.07781  1.0000 -0.5741618159
O   O27       1.0  0.68510  0.10655  0.92219  1.0000 -0.5752411624
O   O28       1.0  0.81490  0.89345  0.42218  1.0000 -0.5752411624
O   O29       1.0  0.23092  0.50009  0.55188  1.0000 -0.5297997477
O   O30       1.0  0.26908  0.49991  0.05189  1.0000 -0.5297997477
O   O31       1.0  0.76908  0.00009  0.94811  1.0000 -0.5297997477
O   O32       1.0  0.73092  0.99991  0.44811  1.0000 -0.5297997477
O   O33       1.0  0.54497  0.03877  0.83537  1.0000 -0.5390128973
O   O34       1.0  0.95503  0.96123  0.33536  1.0000 -0.5390128973
O   O35       1.0  0.45503  0.53877  0.66463  1.0000 -0.5390128973
O   O36       1.0  0.04497  0.46123  0.16463  1.0000 -0.5390128973
O   O37       1.0  0.62672  0.92395  0.83501  1.0000 -0.5575031819
O   O38       1.0  0.87328  0.07605  0.33501  1.0000 -0.5575031819
O   O39       1.0  0.37328  0.42395  0.66498  1.0000 -0.5575031819
O   O40       1.0  0.12672  0.57605  0.16498  1.0000 -0.5575031819
