# DDEC6 charges by PACMAN v1.1 (https://github.com/mtap-research/PACMAN-charge/)
data_2016[CuU][nan]3[ASR]1
_chemical_formula_sum              "U4 Cu4 H48 C96 N16 O32"
_cell_length_a       15.6734
_cell_length_b       15.6734
_cell_length_c       15.8081
_cell_angle_alpha    76.361
_cell_angle_beta     103.639
_cell_angle_gamma    67.8438

_symmetry_space_group_name_H-M    "P 1"
_symmetry_Int_Tables_number       1

loop_
  _symmetry_equiv_pos_as_xyz
  'x, y, z'

loop_
  _atom_site_type_symbol
  _atom_site_label
  _atom_site_symmetry_multiplicity
  _atom_site_fract_x
  _atom_site_fract_y
  _atom_site_fract_z
  _atom_site_occupancy
  _atom_site_charge
U   U1        1.0  0.61853  0.91207  0.42287  1.0000 1.9491956087
U   U2        1.0  0.91207  0.61853  0.07713  1.0000 1.9491956087
U   U3        1.0  0.38147  0.08793  0.57713  1.0000 1.9491956087
U   U4        1.0  0.08793  0.38147  0.92287  1.0000 1.9491956087
Cu  Cu1       1.0  0.76921  0.28853  0.51403  1.0000 0.5817026573
Cu  Cu2       1.0  0.28853  0.76921  0.98597  1.0000 0.5817026573
Cu  Cu3       1.0  0.23079  0.71147  0.48597  1.0000 0.5817026573
Cu  Cu4       1.0  0.71147  0.23079  0.01403  1.0000 0.5817026573
H   H1        1.0  0.38460  0.31880  0.38260  1.0000 0.1306452105
H   H2        1.0  0.31880  0.38460  0.11740  1.0000 0.1306452105
H   H3        1.0  0.61540  0.68120  0.61740  1.0000 0.1306452105
H   H4        1.0  0.68120  0.61540  0.88260  1.0000 0.1306452105
H   H5        1.0  0.41050  0.45730  0.35690  1.0000 0.1306452105
H   H6        1.0  0.45730  0.41050  0.14310  1.0000 0.1306452105
H   H7        1.0  0.58950  0.54270  0.64310  1.0000 0.1306452105
H   H8        1.0  0.54270  0.58950  0.85690  1.0000 0.1306452105
H   H9        1.0  0.67650  0.15270  0.49270  1.0000 0.1193581412
H   H10       1.0  0.15270  0.67650  0.00730  1.0000 0.1193581412
H   H11       1.0  0.32350  0.84730  0.50730  1.0000 0.1193581412
H   H12       1.0  0.84730  0.32350  0.99270  1.0000 0.1193581412
H   H13       1.0  0.44400  0.58520  0.34340  1.0000 0.1193581412
H   H14       1.0  0.58520  0.44400  0.15660  1.0000 0.1193581412
H   H15       1.0  0.55600  0.41480  0.65660  1.0000 0.1193581412
H   H16       1.0  0.41480  0.55600  0.84340  1.0000 0.1193581412
H   H17       1.0  0.71900  0.26200  0.32370  1.0000 0.1028101745
H   H18       1.0  0.26200  0.71900  0.17630  1.0000 0.1028101745
H   H19       1.0  0.28100  0.73800  0.67630  1.0000 0.1028101745
H   H20       1.0  0.73800  0.28100  0.82370  1.0000 0.1028101745
H   H21       1.0  0.88250  0.31290  0.67990  1.0000 0.1079131218
H   H22       1.0  0.31290  0.88250  0.82010  1.0000 0.1079131218
H   H23       1.0  0.11750  0.68710  0.32010  1.0000 0.1079131218
H   H24       1.0  0.68710  0.11750  0.17990  1.0000 0.1079131218
H   H25       1.0  0.14550  0.27030  0.66100  1.0000 0.1306452105
H   H26       1.0  0.27030  0.14550  0.83900  1.0000 0.1306452105
H   H27       1.0  0.85450  0.72970  0.33900  1.0000 0.1306452105
H   H28       1.0  0.72970  0.85450  0.16100  1.0000 0.1306452105
H   H29       1.0  0.76910  0.49710  0.48030  1.0000 0.1028101745
H   H30       1.0  0.49710  0.76910  0.01970  1.0000 0.1028101745
H   H31       1.0  0.23090  0.50290  0.51970  1.0000 0.1028101745
H   H32       1.0  0.50290  0.23090  0.98030  1.0000 0.1028101745
H   H33       1.0  0.93700  0.24660  0.23610  1.0000 0.1306452105
H   H34       1.0  0.24660  0.93700  0.26390  1.0000 0.1306452105
H   H35       1.0  0.06300  0.75340  0.76390  1.0000 0.1306452105
H   H36       1.0  0.75340  0.06300  0.73610  1.0000 0.1306452105
H   H37       1.0  0.09550  0.24990  0.52030  1.0000 0.1193581412
H   H38       1.0  0.24990  0.09550  0.97970  1.0000 0.1193581412
H   H39       1.0  0.90450  0.75010  0.47970  1.0000 0.1193581412
H   H40       1.0  0.75010  0.90450  0.02030  1.0000 0.1193581412
H   H41       1.0  0.49440  0.70320  0.35150  1.0000 0.1193581412
H   H42       1.0  0.70320  0.49440  0.14850  1.0000 0.1193581412
H   H43       1.0  0.50560  0.29680  0.64850  1.0000 0.1193581412
H   H44       1.0  0.29680  0.50560  0.85150  1.0000 0.1193581412
H   H45       1.0  0.02160  0.25960  0.37380  1.0000 0.1306452105
H   H46       1.0  0.25960  0.02160  0.12620  1.0000 0.1306452105
H   H47       1.0  0.97840  0.74040  0.62620  1.0000 0.1306452105
H   H48       1.0  0.74040  0.97840  0.87380  1.0000 0.1306452105
C   C1        1.0  0.44830  0.31250  0.39950  1.0000 -0.0607688564
C   C2        1.0  0.31250  0.44830  0.10050  1.0000 -0.0607688564
C   C3        1.0  0.55170  0.68750  0.60050  1.0000 -0.0607688564
C   C4        1.0  0.68750  0.55170  0.89950  1.0000 -0.0607688564
C   C5        1.0  0.46400  0.39440  0.38630  1.0000 -0.1899986787
C   C6        1.0  0.39440  0.46400  0.11370  1.0000 -0.1899986787
C   C7        1.0  0.53600  0.60560  0.61370  1.0000 -0.1899986787
C   C8        1.0  0.60560  0.53600  0.88630  1.0000 -0.1899986787
C   C9        1.0  0.62180  0.21480  0.46600  1.0000 0.0387531093
C   C10       1.0  0.21480  0.62180  0.03400  1.0000 0.0387531093
C   C11       1.0  0.37820  0.78520  0.53400  1.0000 0.0387531093
C   C12       1.0  0.78520  0.37820  0.96600  1.0000 0.0387531093
C   C13       1.0  0.51020  0.56780  0.37200  1.0000 -0.1780193073
C   C14       1.0  0.56780  0.51020  0.12800  1.0000 -0.1780193073
C   C15       1.0  0.48980  0.43220  0.62800  1.0000 -0.1780193073
C   C16       1.0  0.43220  0.48980  0.87200  1.0000 -0.1780193073
C   C17       1.0  0.01830  0.29630  0.68380  1.0000 -0.068190001
C   C18       1.0  0.29630  0.01830  0.81620  1.0000 -0.068190001
C   C19       1.0  0.98170  0.70370  0.31620  1.0000 -0.068190001
C   C20       1.0  0.70370  0.98170  0.18380  1.0000 -0.068190001
C   C21       1.0  0.52010  0.12650  0.45490  1.0000 0.613836095
C   C22       1.0  0.12650  0.52010  0.04510  1.0000 0.6154041143
C   C23       1.0  0.47990  0.87350  0.54510  1.0000 0.6154041143
C   C24       1.0  0.87350  0.47990  0.95490  1.0000 0.6154041143
C   C25       1.0  0.91740  0.26300  0.42970  1.0000 0.1395967196
C   C26       1.0  0.26300  0.91740  0.07030  1.0000 0.1395967196
C   C27       1.0  0.08260  0.73700  0.57030  1.0000 0.1395967196
C   C28       1.0  0.73700  0.08260  0.92970  1.0000 0.1395967196
C   C29       1.0  0.78070  0.26030  0.33390  1.0000 0.046918601
C   C30       1.0  0.26030  0.78070  0.16610  1.0000 0.046918601
C   C31       1.0  0.21930  0.73970  0.66610  1.0000 0.046918601
C   C32       1.0  0.73970  0.21930  0.83390  1.0000 0.046918601
C   C33       1.0  0.52980  0.22080  0.43860  1.0000 -0.0776539256
C   C34       1.0  0.22080  0.52980  0.06140  1.0000 -0.0776539256
C   C35       1.0  0.47020  0.77920  0.56140  1.0000 -0.0776539256
C   C36       1.0  0.77920  0.47020  0.93860  1.0000 -0.0776539256
C   C37       1.0  0.92540  0.30080  0.64740  1.0000 0.078822002
C   C38       1.0  0.30080  0.92540  0.85260  1.0000 0.078822002
C   C39       1.0  0.07460  0.69920  0.35260  1.0000 0.078822002
C   C40       1.0  0.69920  0.07460  0.14740  1.0000 0.078822002
C   C41       1.0  0.63750  0.61110  0.41650  1.0000 -0.068190001
C   C42       1.0  0.61110  0.63750  0.08350  1.0000 -0.068190001
C   C43       1.0  0.36250  0.38890  0.58350  1.0000 -0.068190001
C   C44       1.0  0.38890  0.36250  0.91650  1.0000 -0.068190001
C   C45       1.0  0.08270  0.27570  0.63660  1.0000 -0.0340406585
C   C46       1.0  0.27570  0.08270  0.86340  1.0000 -0.0340406585
C   C47       1.0  0.91730  0.72430  0.36340  1.0000 -0.0340406585
C   C48       1.0  0.72430  0.91730  0.13660  1.0000 -0.0340406585
C   C49       1.0  0.70260  0.51460  0.45280  1.0000 0.0387531093
C   C50       1.0  0.51460  0.70260  0.04720  1.0000 0.0387531093
C   C51       1.0  0.29740  0.48540  0.54720  1.0000 0.0387531093
C   C52       1.0  0.48540  0.29740  0.95280  1.0000 0.0387531093
C   C53       1.0  0.90820  0.25280  0.28090  1.0000 -0.0607688564
C   C54       1.0  0.25280  0.90820  0.21910  1.0000 -0.0607688564
C   C55       1.0  0.09180  0.74720  0.71910  1.0000 -0.0607688564
C   C56       1.0  0.74720  0.09180  0.78090  1.0000 -0.0607688564
C   C57       1.0  0.55920  0.38400  0.41660  1.0000 0.1589739921
C   C58       1.0  0.38400  0.55920  0.08340  1.0000 0.1589739921
C   C59       1.0  0.44080  0.61600  0.58340  1.0000 0.1589739921
C   C60       1.0  0.61600  0.44080  0.91660  1.0000 0.1589739921
C   C61       1.0  0.05310  0.26350  0.55310  1.0000 -0.1780193073
C   C62       1.0  0.26350  0.05310  0.94690  1.0000 -0.1780193073
C   C63       1.0  0.94690  0.73650  0.44690  1.0000 -0.1780193073
C   C64       1.0  0.73650  0.94690  0.05310  1.0000 -0.1780193073
C   C65       1.0  0.54050  0.63690  0.37640  1.0000 -0.068190001
C   C66       1.0  0.63690  0.54050  0.12360  1.0000 -0.068190001
C   C67       1.0  0.45950  0.36310  0.62360  1.0000 -0.068190001
C   C68       1.0  0.36310  0.45950  0.87640  1.0000 -0.068190001
C   C69       1.0  0.95870  0.27170  0.51800  1.0000 0.1395967196
C   C70       1.0  0.27170  0.95870  0.98200  1.0000 0.1395967196
C   C71       1.0  0.04130  0.72830  0.48200  1.0000 0.1395967196
C   C72       1.0  0.72830  0.04130  0.01800  1.0000 0.1395967196
C   C73       1.0  0.58190  0.46930  0.41200  1.0000 0.1589739921
C   C74       1.0  0.46930  0.58190  0.08800  1.0000 0.1589739921
C   C75       1.0  0.41810  0.53070  0.58800  1.0000 0.1589739921
C   C76       1.0  0.53070  0.41810  0.91200  1.0000 0.1589739921
C   C77       1.0  0.67520  0.68720  0.42570  1.0000 0.5817026573
C   C78       1.0  0.68720  0.67520  0.07430  1.0000 0.5817026573
C   C79       1.0  0.32480  0.31280  0.57430  1.0000 0.5817026573
C   C80       1.0  0.31280  0.32480  0.92570  1.0000 0.5817026573
C   C81       1.0  0.04350  0.32030  0.77010  1.0000 0.5372837188
C   C82       1.0  0.32030  0.04350  0.72990  1.0000 0.5372837188
C   C83       1.0  0.95650  0.67970  0.22990  1.0000 0.5372837188
C   C84       1.0  0.67970  0.95650  0.27010  1.0000 0.5372837188
C   C85       1.0  0.96110  0.25870  0.36440  1.0000 -0.1725581584
C   C86       1.0  0.25870  0.96110  0.13560  1.0000 -0.1725581584
C   C87       1.0  0.03890  0.74130  0.63560  1.0000 -0.1725581584
C   C88       1.0  0.74130  0.03890  0.86440  1.0000 -0.1725581584
C   C89       1.0  0.75730  0.25190  0.17310  1.0000 0.4948574158
C   C90       1.0  0.25190  0.75730  0.32690  1.0000 0.4955303522
C   C91       1.0  0.24270  0.74810  0.82690  1.0000 0.4955303522
C   C92       1.0  0.74810  0.24270  0.67310  1.0000 0.4948574158
C   C93       1.0  0.82100  0.25580  0.26450  1.0000 -0.0516952777
C   C94       1.0  0.25580  0.82100  0.23550  1.0000 -0.0516952777
C   C95       1.0  0.17900  0.74420  0.73550  1.0000 -0.0516952777
C   C96       1.0  0.74420  0.17900  0.76450  1.0000 -0.0516952777
N   N1        1.0  0.89800  0.28820  0.56790  1.0000 -0.262058289
N   N2        1.0  0.28820  0.89800  0.93210  1.0000 -0.2657182661
N   N3        1.0  0.10200  0.71180  0.43210  1.0000 -0.262058289
N   N4        1.0  0.71180  0.10200  0.06790  1.0000 -0.262058289
N   N5        1.0  0.82840  0.26220  0.41430  1.0000 -0.262058289
N   N6        1.0  0.26220  0.82840  0.08570  1.0000 -0.262058289
N   N7        1.0  0.17160  0.73780  0.58570  1.0000 -0.262058289
N   N8        1.0  0.73780  0.17160  0.91430  1.0000 -0.262058289
N   N9        1.0  0.67710  0.44310  0.45170  1.0000 -0.262058289
N   N10       1.0  0.44310  0.67710  0.04830  1.0000 -0.262058289
N   N11       1.0  0.32290  0.55690  0.54830  1.0000 -0.262058289
N   N12       1.0  0.55690  0.32290  0.95170  1.0000 -0.262058289
N   N13       1.0  0.63630  0.29530  0.45570  1.0000 -0.2475250994
N   N14       1.0  0.29530  0.63630  0.04430  1.0000 -0.2475250994
N   N15       1.0  0.36370  0.70470  0.54430  1.0000 -0.2475250994
N   N16       1.0  0.70470  0.36370  0.95570  1.0000 -0.2475250994
O   O1        1.0  0.43950  0.13130  0.45660  1.0000 -0.6544828562
O   O2        1.0  0.13130  0.43950  0.04340  1.0000 -0.6567332551
O   O3        1.0  0.56050  0.86870  0.54340  1.0000 -0.6567332551
O   O4        1.0  0.86870  0.56050  0.95660  1.0000 -0.6567332551
O   O5        1.0  0.59440  0.05120  0.46590  1.0000 -0.6431543526
O   O6        1.0  0.05120  0.59440  0.03410  1.0000 -0.6431543526
O   O7        1.0  0.40560  0.94880  0.53410  1.0000 -0.6431543526
O   O8        1.0  0.94880  0.40560  0.96590  1.0000 -0.6431543526
O   O9        1.0  0.98460  0.33700  0.81370  1.0000 -0.6328199802
O   O10       1.0  0.33700  0.98460  0.68630  1.0000 -0.6328199802
O   O11       1.0  0.01540  0.66300  0.18630  1.0000 -0.6328199802
O   O12       1.0  0.66300  0.01540  0.31370  1.0000 -0.6328199802
O   O13       1.0  0.12430  0.32370  0.79760  1.0000 -0.5947327165
O   O14       1.0  0.32370  0.12430  0.70240  1.0000 -0.5961366641
O   O15       1.0  0.87570  0.67630  0.20240  1.0000 -0.5961366641
O   O16       1.0  0.67630  0.87570  0.29760  1.0000 -0.5961366641
O   O17       1.0  0.61030  0.77070  0.41440  1.0000 -0.6567332551
O   O18       1.0  0.77070  0.61030  0.08560  1.0000 -0.6567332551
O   O19       1.0  0.38970  0.22930  0.58560  1.0000 -0.6567332551
O   O20       1.0  0.22930  0.38970  0.91440  1.0000 -0.6567332551
O   O21       1.0  0.76370  0.66330  0.44440  1.0000 -0.5519026068
O   O22       1.0  0.66330  0.76370  0.05560  1.0000 -0.5519026068
O   O23       1.0  0.23630  0.33670  0.55560  1.0000 -0.5519026068
O   O24       1.0  0.33670  0.23630  0.94440  1.0000 -0.5519026068
O   O25       1.0  0.80890  0.21350  0.13150  1.0000 -0.4946410207
O   O26       1.0  0.21350  0.80890  0.36850  1.0000 -0.4946410207
O   O27       1.0  0.19110  0.78650  0.86850  1.0000 -0.4946410207
O   O28       1.0  0.78650  0.19110  0.63150  1.0000 -0.4946410207
O   O29       1.0  0.67090  0.28210  0.15670  1.0000 -0.5307554302
O   O30       1.0  0.28210  0.67090  0.34330  1.0000 -0.5307554302
O   O31       1.0  0.32910  0.71790  0.84330  1.0000 -0.5307554302
O   O32       1.0  0.71790  0.32910  0.65670  1.0000 -0.5307554302
