# DDEC6 charges by PACMAN v1.1 (https://github.com/mtap-research/PACMAN-charge/)
data_2016[Cu][tbo]3[ASR]6
_chemical_formula_sum              "Cu12 H24 C56 I4 N8 O32"
_cell_length_a       16.8792
_cell_length_b       16.8792
_cell_length_c       16.8792
_cell_angle_alpha    115.581
_cell_angle_beta     115.581
_cell_angle_gamma    97.8409

_symmetry_space_group_name_H-M    "P 1"
_symmetry_Int_Tables_number       1

loop_
  _symmetry_equiv_pos_as_xyz
  'x, y, z'

loop_
  _atom_site_type_symbol
  _atom_site_label
  _atom_site_symmetry_multiplicity
  _atom_site_fract_x
  _atom_site_fract_y
  _atom_site_fract_z
  _atom_site_occupancy
  _atom_site_charge
Cu  Cu1       1.0  0.00012  0.00012  0.57914  1.0000 0.8771974298
Cu  Cu2       1.0  0.42098  0.42098  0.42086  1.0000 0.8771974298
Cu  Cu3       1.0  0.00012  0.42098  0.00000  1.0000 0.8771974298
Cu  Cu4       1.0  0.42098  0.00012  0.00000  1.0000 0.8771974298
Cu  Cu5       1.0  0.57902  0.99988  0.00000  1.0000 0.8771974298
Cu  Cu6       1.0  0.99988  0.57902  0.00000  1.0000 0.8771974298
Cu  Cu7       1.0  0.57902  0.57902  0.57914  1.0000 0.8771974298
Cu  Cu8       1.0  0.99988  0.99988  0.42086  1.0000 0.8771974298
Cu  Cu9       1.0  0.50000  0.07404  0.57404  1.0000 0.2030137594
Cu  Cu10      1.0  0.50000  0.92596  0.42596  1.0000 0.2030137594
Cu  Cu11      1.0  0.07404  0.50000  0.57404  1.0000 0.2030137594
Cu  Cu12      1.0  0.92596  0.50000  0.42596  1.0000 0.2030137594
H   H1        1.0  0.30280  0.05210  0.53010  1.0000 0.1177058227
H   H2        1.0  0.52200  0.77270  0.46990  1.0000 0.1177058227
H   H3        1.0  0.05210  0.52200  0.74930  1.0000 0.1177058227
H   H4        1.0  0.77270  0.30280  0.25070  1.0000 0.1177058227
H   H5        1.0  0.47800  0.94790  0.25070  1.0000 0.1177058227
H   H6        1.0  0.69720  0.22730  0.74930  1.0000 0.1177058227
H   H7        1.0  0.22730  0.47800  0.53010  1.0000 0.1177058227
H   H8        1.0  0.94790  0.69720  0.46990  1.0000 0.1177058227
H   H9        1.0  0.69720  0.94790  0.46990  1.0000 0.1177058227
H   H10       1.0  0.47800  0.22730  0.53010  1.0000 0.1177058227
H   H11       1.0  0.94790  0.47800  0.25070  1.0000 0.1177058227
H   H12       1.0  0.22730  0.69720  0.74930  1.0000 0.1177058227
H   H13       1.0  0.52200  0.05210  0.74930  1.0000 0.1177058227
H   H14       1.0  0.30280  0.77270  0.25070  1.0000 0.1177058227
H   H15       1.0  0.77270  0.52200  0.46990  1.0000 0.1177058227
H   H16       1.0  0.05210  0.30280  0.53010  1.0000 0.1177058227
H   H17       1.0  0.28430  0.03850  0.75420  1.0000 0.1442837494
H   H18       1.0  0.28430  0.53010  0.24580  1.0000 0.1442837494
H   H19       1.0  0.03850  0.28430  0.75420  1.0000 0.1442837494
H   H20       1.0  0.53010  0.28430  0.24580  1.0000 0.1442837494
H   H21       1.0  0.71570  0.96150  0.24580  1.0000 0.1442837494
H   H22       1.0  0.71570  0.46990  0.75420  1.0000 0.1442837494
H   H23       1.0  0.46990  0.71570  0.75420  1.0000 0.1442837494
H   H24       1.0  0.96150  0.71570  0.24580  1.0000 0.1442837494
C   C1        1.0  0.33150  0.05170  0.59220  1.0000 0.0714042487
C   C2        1.0  0.45950  0.73930  0.40780  1.0000 0.0714042487
C   C3        1.0  0.05170  0.45950  0.72020  1.0000 0.0714042487
C   C4        1.0  0.73930  0.33150  0.27980  1.0000 0.0714042487
C   C5        1.0  0.54050  0.94830  0.27980  1.0000 0.0714042487
C   C6        1.0  0.66850  0.26070  0.72020  1.0000 0.0714042487
C   C7        1.0  0.26070  0.54050  0.59220  1.0000 0.0714042487
C   C8        1.0  0.94830  0.66850  0.40780  1.0000 0.0714042487
C   C9        1.0  0.66850  0.94830  0.40780  1.0000 0.0714042487
C   C10       1.0  0.54050  0.26070  0.59220  1.0000 0.0714042487
C   C11       1.0  0.94830  0.54050  0.27980  1.0000 0.0714042487
C   C12       1.0  0.26070  0.66850  0.72020  1.0000 0.0714042487
C   C13       1.0  0.45950  0.05170  0.72020  1.0000 0.0714042487
C   C14       1.0  0.33150  0.73930  0.27980  1.0000 0.0714042487
C   C15       1.0  0.73930  0.45950  0.40780  1.0000 0.0714042487
C   C16       1.0  0.05170  0.33150  0.59220  1.0000 0.0714042487
C   C17       1.0  0.27840  0.04480  0.63480  1.0000 -0.057342102
C   C18       1.0  0.41000  0.64360  0.36520  1.0000 -0.057342102
C   C19       1.0  0.04480  0.41000  0.76640  1.0000 -0.057342102
C   C20       1.0  0.64360  0.27840  0.23360  1.0000 -0.057342102
C   C21       1.0  0.59000  0.95520  0.23360  1.0000 -0.057342102
C   C22       1.0  0.72160  0.35640  0.76640  1.0000 -0.057342102
C   C23       1.0  0.35640  0.59000  0.63480  1.0000 -0.057342102
C   C24       1.0  0.95520  0.72160  0.36520  1.0000 -0.057342102
C   C25       1.0  0.72160  0.95520  0.36520  1.0000 -0.057342102
C   C26       1.0  0.59000  0.35640  0.63480  1.0000 -0.057342102
C   C27       1.0  0.95520  0.59000  0.23360  1.0000 -0.057342102
C   C28       1.0  0.35640  0.72160  0.76640  1.0000 -0.057342102
C   C29       1.0  0.41000  0.04480  0.76640  1.0000 -0.057342102
C   C30       1.0  0.27840  0.64360  0.23360  1.0000 -0.057342102
C   C31       1.0  0.64360  0.41000  0.36520  1.0000 -0.057342102
C   C32       1.0  0.04480  0.27840  0.63480  1.0000 -0.057342102
C   C33       1.0  0.31900  0.04220  0.72320  1.0000 -0.0535416572
C   C34       1.0  0.31900  0.59580  0.27680  1.0000 -0.0535416572
C   C35       1.0  0.04220  0.31900  0.72320  1.0000 -0.0535416572
C   C36       1.0  0.59580  0.31900  0.27680  1.0000 -0.0535416572
C   C37       1.0  0.68100  0.95780  0.27680  1.0000 -0.0535416572
C   C38       1.0  0.68100  0.40420  0.72320  1.0000 -0.0535416572
C   C39       1.0  0.40420  0.68100  0.72320  1.0000 -0.0535416572
C   C40       1.0  0.95780  0.68100  0.27680  1.0000 -0.0535416572
C   C41       1.0  0.17590  0.03300  0.58190  1.0000 0.5884460363
C   C42       1.0  0.45110  0.59400  0.41810  1.0000 0.5884460363
C   C43       1.0  0.03300  0.45110  0.85710  1.0000 0.5884460363
C   C44       1.0  0.59400  0.17590  0.14290  1.0000 0.5884460363
C   C45       1.0  0.54890  0.96700  0.14290  1.0000 0.5884460363
C   C46       1.0  0.82410  0.40600  0.85710  1.0000 0.5884460363
C   C47       1.0  0.40600  0.54890  0.58190  1.0000 0.5884460363
C   C48       1.0  0.96700  0.82410  0.41810  1.0000 0.5884460363
C   C49       1.0  0.82410  0.96700  0.41810  1.0000 0.5884460363
C   C50       1.0  0.54890  0.40600  0.58190  1.0000 0.5884460363
C   C51       1.0  0.96700  0.54890  0.14290  1.0000 0.5884460363
C   C52       1.0  0.40600  0.82410  0.85710  1.0000 0.5884460363
C   C53       1.0  0.45110  0.03300  0.85710  1.0000 0.5884460363
C   C54       1.0  0.17590  0.59400  0.14290  1.0000 0.5884460363
C   C55       1.0  0.59400  0.45110  0.41810  1.0000 0.5884460363
C   C56       1.0  0.03300  0.17590  0.58190  1.0000 0.5884460363
I   I1        1.0  0.37304  0.00000  0.37304  1.0000 -0.4356518162
I   I2        1.0  0.62696  0.00000  0.62696  1.0000 -0.4356518162
I   I3        1.0  0.00000  0.62696  0.62696  1.0000 -0.4356518162
I   I4        1.0  0.00000  0.37304  0.37304  1.0000 -0.4356518162
N   N1        1.0  0.42190  0.05760  0.63570  1.0000 -0.1735197303
N   N2        1.0  0.42190  0.78620  0.36430  1.0000 -0.1735197303
N   N3        1.0  0.05760  0.42190  0.63570  1.0000 -0.1735197303
N   N4        1.0  0.78620  0.42190  0.36430  1.0000 -0.1735197303
N   N5        1.0  0.57810  0.94240  0.36430  1.0000 -0.1735197303
N   N6        1.0  0.57810  0.21380  0.63570  1.0000 -0.1735197303
N   N7        1.0  0.21380  0.57810  0.63570  1.0000 -0.1735197303
N   N8        1.0  0.94240  0.57810  0.36430  1.0000 -0.1735197303
O   O1        1.0  0.13460  0.02610  0.62750  1.0000 -0.5399945152
O   O2        1.0  0.39860  0.50710  0.37250  1.0000 -0.5399945152
O   O3        1.0  0.02610  0.39860  0.89150  1.0000 -0.5399945152
O   O4        1.0  0.50710  0.13460  0.10850  1.0000 -0.5399945152
O   O5        1.0  0.60140  0.97390  0.10850  1.0000 -0.5399945152
O   O6        1.0  0.86540  0.49290  0.89150  1.0000 -0.5399945152
O   O7        1.0  0.49290  0.60140  0.62750  1.0000 -0.5399945152
O   O8        1.0  0.97390  0.86540  0.37250  1.0000 -0.5399945152
O   O9        1.0  0.86540  0.97390  0.37250  1.0000 -0.5399945152
O   O10       1.0  0.60140  0.49290  0.62750  1.0000 -0.5399945152
O   O11       1.0  0.97390  0.60140  0.10850  1.0000 -0.5399945152
O   O12       1.0  0.49290  0.86540  0.89150  1.0000 -0.5399945152
O   O13       1.0  0.39860  0.02610  0.89150  1.0000 -0.5399945152
O   O14       1.0  0.13460  0.50710  0.10850  1.0000 -0.5399945152
O   O15       1.0  0.50710  0.39860  0.37250  1.0000 -0.5399945152
O   O16       1.0  0.02610  0.13460  0.62750  1.0000 -0.5399945152
O   O17       1.0  0.13790  0.02843  0.49647  1.0000 -0.5192698722
O   O18       1.0  0.53196  0.64143  0.50353  1.0000 -0.5192698722
O   O19       1.0  0.02843  0.53196  0.89053  1.0000 -0.5192698722
O   O20       1.0  0.64143  0.13790  0.10947  1.0000 -0.5192698722
O   O21       1.0  0.46804  0.97157  0.10947  1.0000 -0.5192698722
O   O22       1.0  0.86210  0.35857  0.89053  1.0000 -0.5192698722
O   O23       1.0  0.35857  0.46804  0.49647  1.0000 -0.5192698722
O   O24       1.0  0.97157  0.86210  0.50353  1.0000 -0.5192698722
O   O25       1.0  0.86210  0.97157  0.50353  1.0000 -0.5192698722
O   O26       1.0  0.46804  0.35857  0.49647  1.0000 -0.5192698722
O   O27       1.0  0.97157  0.46804  0.10947  1.0000 -0.5192698722
O   O28       1.0  0.35857  0.86210  0.89053  1.0000 -0.5192698722
O   O29       1.0  0.53196  0.02843  0.89053  1.0000 -0.5192698722
O   O30       1.0  0.13790  0.64143  0.10947  1.0000 -0.5192698722
O   O31       1.0  0.64143  0.53196  0.50353  1.0000 -0.5192698722
O   O32       1.0  0.02843  0.13790  0.49647  1.0000 -0.5192698722
