# DDEC6 charges by PACMAN v1.1 (https://github.com/mtap-research/PACMAN-charge/)
data_2016[Cd][nan]2[ASR]5
_chemical_formula_sum              "Cd6 H44 C84 O24"
_cell_length_a       10.1889
_cell_length_b       10.1889
_cell_length_c       37.48
_cell_angle_alpha    90
_cell_angle_beta     90
_cell_angle_gamma    137.858

_symmetry_space_group_name_H-M    "P 1"
_symmetry_Int_Tables_number       1

loop_
  _symmetry_equiv_pos_as_xyz
  'x, y, z'

loop_
  _atom_site_type_symbol
  _atom_site_label
  _atom_site_symmetry_multiplicity
  _atom_site_fract_x
  _atom_site_fract_y
  _atom_site_fract_z
  _atom_site_occupancy
  _atom_site_charge
Cd  Cd1       1.0  0.34842  0.92158  0.94511  1.0000 0.9982809455
Cd  Cd2       1.0  0.92158  0.34842  0.05489  1.0000 0.9982809455
Cd  Cd3       1.0  0.97260  0.97260  0.50000  1.0000 0.9949820192
Cd  Cd4       1.0  0.42158  0.84842  0.44511  1.0000 0.9982809455
Cd  Cd5       1.0  0.84842  0.42158  0.55489  1.0000 0.9982809455
Cd  Cd6       1.0  0.47260  0.47260  0.00000  1.0000 0.9982809455
H   H1        1.0  0.85940  0.94040  0.94290  1.0000 0.1406102927
H   H2        1.0  0.04240  0.91940  0.85050  1.0000 0.1163589583
H   H3        1.0  0.68300  0.96440  0.85050  1.0000 0.1163589583
H   H4        1.0  0.88350  0.75670  0.79680  1.0000 0.1115059451
H   H5        1.0  0.88180  0.75260  0.73640  1.0000 0.1115059451
H   H6        1.0  0.84280  0.11980  0.73460  1.0000 0.1115059451
H   H7        1.0  0.82960  0.10980  0.79450  1.0000 0.1163589583
H   H8        1.0  0.03100  0.89480  0.68180  1.0000 0.1115059451
H   H9        1.0  0.04400  0.90220  0.62140  1.0000 0.1309664847
H   H10       1.0  0.71170  0.98190  0.61940  1.0000 0.1309664847
H   H11       1.0  0.70930  0.98330  0.67850  1.0000 0.1115059451
H   H12       1.0  0.94040  0.85940  0.05710  1.0000 0.1406102927
H   H13       1.0  0.91940  0.04240  0.14950  1.0000 0.1163589583
H   H14       1.0  0.96440  0.68300  0.14950  1.0000 0.1163589583
H   H15       1.0  0.75670  0.88350  0.20320  1.0000 0.1115059451
H   H16       1.0  0.75260  0.88180  0.26360  1.0000 0.1115059451
H   H17       1.0  0.11980  0.84280  0.26540  1.0000 0.1115059451
H   H18       1.0  0.10980  0.82960  0.20550  1.0000 0.1163589583
H   H19       1.0  0.89480  0.03100  0.31820  1.0000 0.1115059451
H   H20       1.0  0.90220  0.04400  0.37860  1.0000 0.1309664847
H   H21       1.0  0.98190  0.71170  0.38060  1.0000 0.1309664847
H   H22       1.0  0.98330  0.70930  0.32150  1.0000 0.1115059451
H   H23       1.0  0.44040  0.35940  0.44290  1.0000 0.1406102927
H   H24       1.0  0.41940  0.54240  0.35050  1.0000 0.1163589583
H   H25       1.0  0.46440  0.18300  0.35050  1.0000 0.1163589583
H   H26       1.0  0.25670  0.38350  0.29680  1.0000 0.1115059451
H   H27       1.0  0.25260  0.38180  0.23640  1.0000 0.1115059451
H   H28       1.0  0.61980  0.34280  0.23460  1.0000 0.1115059451
H   H29       1.0  0.60980  0.32960  0.29450  1.0000 0.1163589583
H   H30       1.0  0.39480  0.53100  0.18180  1.0000 0.1115059451
H   H31       1.0  0.40220  0.54400  0.12140  1.0000 0.1309664847
H   H32       1.0  0.48190  0.21170  0.11940  1.0000 0.1309664847
H   H33       1.0  0.48330  0.20930  0.17850  1.0000 0.1115059451
H   H34       1.0  0.35940  0.44040  0.55710  1.0000 0.1406102927
H   H35       1.0  0.54240  0.41940  0.64950  1.0000 0.1163589583
H   H36       1.0  0.18300  0.46440  0.64950  1.0000 0.1163589583
H   H37       1.0  0.38350  0.25670  0.70320  1.0000 0.1115059451
H   H38       1.0  0.38180  0.25260  0.76360  1.0000 0.1115059451
H   H39       1.0  0.34280  0.61980  0.76540  1.0000 0.1115059451
H   H40       1.0  0.32960  0.60980  0.70550  1.0000 0.1163589583
H   H41       1.0  0.53100  0.39480  0.81820  1.0000 0.1115059451
H   H42       1.0  0.54400  0.40220  0.87860  1.0000 0.1309664847
H   H43       1.0  0.21170  0.48190  0.88060  1.0000 0.1309664847
H   H44       1.0  0.20930  0.48330  0.82150  1.0000 0.1115059451
C   C1        1.0  0.63290  0.96510  0.91810  1.0000 0.5587301404
C   C2        1.0  0.75260  0.95340  0.89850  1.0000 -0.0127662345
C   C3        1.0  0.86160  0.94240  0.91810  1.0000 -0.0898625663
C   C4        1.0  0.97390  0.93410  0.89890  1.0000 -0.0018033347
C   C5        1.0  0.97110  0.93090  0.86240  1.0000 -0.1474303397
C   C6        1.0  0.86710  0.94490  0.84250  1.0000 0.0471638829
C   C7        1.0  0.75570  0.95550  0.86270  1.0000 -0.1435403146
C   C8        1.0  0.86640  0.94560  0.80350  1.0000 0.0661467241
C   C9        1.0  0.87610  0.82990  0.78420  1.0000 -0.1435403146
C   C10       1.0  0.87480  0.82760  0.74820  1.0000 -0.1435403146
C   C11       1.0  0.86280  0.93720  0.72740  1.0000 0.0572524742
C   C12       1.0  0.84960  0.04540  0.74680  1.0000 -0.1435403146
C   C13       1.0  0.84700  0.04300  0.78280  1.0000 -0.1435403146
C   C14       1.0  0.86870  0.93930  0.68900  1.0000 0.0471638829
C   C15       1.0  0.96770  0.91430  0.66920  1.0000 -0.1474303397
C   C16       1.0  0.97680  0.91920  0.63310  1.0000 -0.0959961487
C   C17       1.0  0.88400  0.95000  0.61320  1.0000 0.0017083475
C   C18       1.0  0.77970  0.96810  0.63190  1.0000 -0.0898625663
C   C19       1.0  0.77680  0.96580  0.66720  1.0000 -0.1435403146
C   C20       1.0  0.89020  0.95380  0.57300  1.0000 0.542408161
C   C21       1.0  0.09760  0.92440  0.91900  1.0000 0.542408161
C   C22       1.0  0.96510  0.63290  0.08190  1.0000 0.5587301404
C   C23       1.0  0.95340  0.75260  0.10150  1.0000 -0.0127662345
C   C24       1.0  0.94240  0.86160  0.08190  1.0000 -0.0898625663
C   C25       1.0  0.93410  0.97390  0.10110  1.0000 -0.0018033347
C   C26       1.0  0.93090  0.97110  0.13760  1.0000 -0.1474303397
C   C27       1.0  0.94490  0.86710  0.15750  1.0000 0.0471638829
C   C28       1.0  0.95550  0.75570  0.13730  1.0000 -0.1435403146
C   C29       1.0  0.94560  0.86640  0.19650  1.0000 0.0661467241
C   C30       1.0  0.82990  0.87610  0.21580  1.0000 -0.1435403146
C   C31       1.0  0.82760  0.87480  0.25180  1.0000 -0.1435403146
C   C32       1.0  0.93720  0.86280  0.27260  1.0000 0.0572524742
C   C33       1.0  0.04540  0.84960  0.25320  1.0000 -0.1435403146
C   C34       1.0  0.04300  0.84700  0.21720  1.0000 -0.1435403146
C   C35       1.0  0.93930  0.86870  0.31100  1.0000 0.0471638829
C   C36       1.0  0.91430  0.96770  0.33080  1.0000 -0.1474303397
C   C37       1.0  0.91920  0.97680  0.36690  1.0000 -0.0959961487
C   C38       1.0  0.95000  0.88400  0.38680  1.0000 0.0017083475
C   C39       1.0  0.96810  0.77970  0.36810  1.0000 -0.0898625663
C   C40       1.0  0.96580  0.77680  0.33280  1.0000 -0.1435403146
C   C41       1.0  0.95380  0.89020  0.42700  1.0000 0.542408161
C   C42       1.0  0.92440  0.09760  0.08100  1.0000 0.542408161
C   C43       1.0  0.46510  0.13290  0.41810  1.0000 0.5587301404
C   C44       1.0  0.45340  0.25260  0.39850  1.0000 -0.0127662345
C   C45       1.0  0.44240  0.36160  0.41810  1.0000 -0.0898625663
C   C46       1.0  0.43410  0.47390  0.39890  1.0000 -0.0018033347
C   C47       1.0  0.43090  0.47110  0.36240  1.0000 -0.1474303397
C   C48       1.0  0.44490  0.36710  0.34250  1.0000 0.0471638829
C   C49       1.0  0.45550  0.25570  0.36270  1.0000 -0.1435403146
C   C50       1.0  0.44560  0.36640  0.30350  1.0000 0.0661467241
C   C51       1.0  0.32990  0.37610  0.28420  1.0000 -0.1435403146
C   C52       1.0  0.32760  0.37480  0.24820  1.0000 -0.1435403146
C   C53       1.0  0.43720  0.36280  0.22740  1.0000 0.0572524742
C   C54       1.0  0.54540  0.34960  0.24680  1.0000 -0.1435403146
C   C55       1.0  0.54300  0.34700  0.28280  1.0000 -0.1435403146
C   C56       1.0  0.43930  0.36870  0.18900  1.0000 0.0471638829
C   C57       1.0  0.41430  0.46770  0.16920  1.0000 -0.1474303397
C   C58       1.0  0.41920  0.47680  0.13310  1.0000 -0.0959961487
C   C59       1.0  0.45000  0.38400  0.11320  1.0000 0.0017083475
C   C60       1.0  0.46810  0.27970  0.13190  1.0000 -0.0898625663
C   C61       1.0  0.46580  0.27680  0.16720  1.0000 -0.1435403146
C   C62       1.0  0.45380  0.39020  0.07300  1.0000 0.542408161
C   C63       1.0  0.42440  0.59760  0.41900  1.0000 0.542408161
C   C64       1.0  0.13290  0.46510  0.58190  1.0000 0.5587301404
C   C65       1.0  0.25260  0.45340  0.60150  1.0000 -0.0127662345
C   C66       1.0  0.36160  0.44240  0.58190  1.0000 -0.0898625663
C   C67       1.0  0.47390  0.43410  0.60110  1.0000 -0.0018033347
C   C68       1.0  0.47110  0.43090  0.63760  1.0000 -0.1474303397
C   C69       1.0  0.36710  0.44490  0.65750  1.0000 0.0471638829
C   C70       1.0  0.25570  0.45550  0.63730  1.0000 -0.1435403146
C   C71       1.0  0.36640  0.44560  0.69650  1.0000 0.0661467241
C   C72       1.0  0.37610  0.32990  0.71580  1.0000 -0.1435403146
C   C73       1.0  0.37480  0.32760  0.75180  1.0000 -0.1435403146
C   C74       1.0  0.36280  0.43720  0.77260  1.0000 0.0572524742
C   C75       1.0  0.34960  0.54540  0.75320  1.0000 -0.1435403146
C   C76       1.0  0.34700  0.54300  0.71720  1.0000 -0.1435403146
C   C77       1.0  0.36870  0.43930  0.81100  1.0000 0.0471638829
C   C78       1.0  0.46770  0.41430  0.83080  1.0000 -0.1474303397
C   C79       1.0  0.47680  0.41920  0.86690  1.0000 -0.0959961487
C   C80       1.0  0.38400  0.45000  0.88680  1.0000 0.0017083475
C   C81       1.0  0.27970  0.46810  0.86810  1.0000 -0.0898625663
C   C82       1.0  0.27680  0.46580  0.83280  1.0000 -0.1435403146
C   C83       1.0  0.39020  0.45380  0.92700  1.0000 0.542408161
C   C84       1.0  0.59760  0.42440  0.58100  1.0000 0.542408161
O   O1        1.0  0.63680  0.97700  0.95110  1.0000 -0.5314085376
O   O2        1.0  0.51600  0.94620  0.89940  1.0000 -0.5473984628
O   O3        1.0  0.08540  0.90280  0.95190  1.0000 -0.5314085376
O   O4        1.0  0.20140  0.92740  0.90070  1.0000 -0.5314085376
O   O5        1.0  0.82980  0.00700  0.55560  1.0000 -0.5314085376
O   O6        1.0  0.97710  0.92490  0.55720  1.0000 -0.5473984628
O   O7        1.0  0.97700  0.63680  0.04890  1.0000 -0.5314085376
O   O8        1.0  0.94620  0.51600  0.10060  1.0000 -0.5473984628
O   O9        1.0  0.90280  0.08540  0.04810  1.0000 -0.5352161973
O   O10       1.0  0.92740  0.20140  0.09930  1.0000 -0.5352161973
O   O11       1.0  0.00700  0.82980  0.44440  1.0000 -0.5314085376
O   O12       1.0  0.92490  0.97710  0.44280  1.0000 -0.5473984628
O   O13       1.0  0.47700  0.13680  0.45110  1.0000 -0.5314085376
O   O14       1.0  0.44620  0.01600  0.39940  1.0000 -0.5473984628
O   O15       1.0  0.40280  0.58540  0.45190  1.0000 -0.5314085376
O   O16       1.0  0.42740  0.70140  0.40070  1.0000 -0.5314085376
O   O17       1.0  0.50700  0.32980  0.05560  1.0000 -0.5314085376
O   O18       1.0  0.42490  0.47710  0.05720  1.0000 -0.5473984628
O   O19       1.0  0.13680  0.47700  0.54890  1.0000 -0.5314085376
O   O20       1.0  0.01600  0.44620  0.60060  1.0000 -0.5473984628
O   O21       1.0  0.58540  0.40280  0.54810  1.0000 -0.5314085376
O   O22       1.0  0.70140  0.42740  0.59930  1.0000 -0.5314085376
O   O23       1.0  0.32980  0.50700  0.94440  1.0000 -0.5314085376
O   O24       1.0  0.47710  0.42490  0.94280  1.0000 -0.5473984628
