# DDEC6 charges by PACMAN v1.1 (https://github.com/mtap-research/PACMAN-charge/)
data_2016[Zn][sab]3[ASR]1
_chemical_formula_sum              "Zn12 H24 C72 O52"
_cell_length_a       17.0127
_cell_length_b       17.0127
_cell_length_c       17.0127
_cell_angle_alpha    105.917
_cell_angle_beta     105.917
_cell_angle_gamma    116.842

_symmetry_space_group_name_H-M    "P 1"
_symmetry_Int_Tables_number       1

loop_
  _symmetry_equiv_pos_as_xyz
  'x, y, z'

loop_
  _atom_site_type_symbol
  _atom_site_label
  _atom_site_symmetry_multiplicity
  _atom_site_fract_x
  _atom_site_fract_y
  _atom_site_fract_z
  _atom_site_occupancy
  _atom_site_charge
Zn  Zn1       1.0  0.05810  0.86924  0.50000  1.0000 1.0089261917
Zn  Zn2       1.0  0.55810  0.05810  0.18886  1.0000 1.0089261917
Zn  Zn3       1.0  0.36924  0.55810  0.50000  1.0000 1.0089261917
Zn  Zn4       1.0  0.86924  0.36924  0.81114  1.0000 1.0089261917
Zn  Zn5       1.0  0.11714  0.97848  0.37678  1.0000 0.991263905
Zn  Zn6       1.0  0.74036  0.11714  0.13866  1.0000 0.991263905
Zn  Zn7       1.0  0.60170  0.74036  0.62322  1.0000 0.991263905
Zn  Zn8       1.0  0.97848  0.60170  0.86134  1.0000 0.991263905
Zn  Zn9       1.0  0.10170  0.47848  0.86134  1.0000 0.991263905
Zn  Zn10      1.0  0.61714  0.24036  0.13866  1.0000 0.991263905
Zn  Zn11      1.0  0.24036  0.10170  0.62322  1.0000 0.991263905
Zn  Zn12      1.0  0.47848  0.61714  0.37678  1.0000 0.991263905
H   H1        1.0  0.77280  0.80300  0.38940  1.0000 0.1415035253
H   H2        1.0  0.38340  0.77280  0.96980  1.0000 0.1415035253
H   H3        1.0  0.41360  0.38340  0.61060  1.0000 0.1415035253
H   H4        1.0  0.80300  0.41360  0.03020  1.0000 0.1415035253
H   H5        1.0  0.91360  0.30300  0.03020  1.0000 0.1415035253
H   H6        1.0  0.27280  0.88340  0.96980  1.0000 0.1415035253
H   H7        1.0  0.88340  0.91360  0.61060  1.0000 0.1415035253
H   H8        1.0  0.30300  0.27280  0.38940  1.0000 0.1415035253
H   H9        1.0  0.61320  0.91510  0.31650  1.0000 0.134849274
H   H10       1.0  0.29670  0.61320  0.69810  1.0000 0.134849274
H   H11       1.0  0.59860  0.29670  0.68350  1.0000 0.134849274
H   H12       1.0  0.91510  0.59860  0.30190  1.0000 0.134849274
H   H13       1.0  0.09860  0.41510  0.30190  1.0000 0.134849274
H   H14       1.0  0.11320  0.79670  0.69810  1.0000 0.134849274
H   H15       1.0  0.79670  0.09860  0.68350  1.0000 0.134849274
H   H16       1.0  0.41510  0.11320  0.31650  1.0000 0.134849274
H   H17       1.0  0.87940  0.02030  0.31290  1.0000 0.1415035253
H   H18       1.0  0.56650  0.87940  0.85910  1.0000 0.1415035253
H   H19       1.0  0.70740  0.56650  0.68710  1.0000 0.1415035253
H   H20       1.0  0.02030  0.70740  0.14090  1.0000 0.1415035253
H   H21       1.0  0.20740  0.52030  0.14090  1.0000 0.1415035253
H   H22       1.0  0.37940  0.06650  0.85910  1.0000 0.1415035253
H   H23       1.0  0.06650  0.20740  0.68710  1.0000 0.1415035253
H   H24       1.0  0.52030  0.37940  0.31290  1.0000 0.1415035253
C   C1        1.0  0.84100  0.91440  0.35760  1.0000 -0.0024632463
C   C2        1.0  0.48340  0.84100  0.92660  1.0000 -0.0024632463
C   C3        1.0  0.55680  0.48340  0.64240  1.0000 -0.0024632463
C   C4        1.0  0.91440  0.55680  0.07340  1.0000 -0.0024632463
C   C5        1.0  0.05680  0.41440  0.07340  1.0000 -0.0024632463
C   C6        1.0  0.34100  0.98340  0.92660  1.0000 -0.0024632463
C   C7        1.0  0.98340  0.05680  0.64240  1.0000 -0.0024632463
C   C8        1.0  0.41440  0.34100  0.35760  1.0000 -0.0024632463
C   C9        1.0  0.76590  0.84840  0.36990  1.0000 -0.098021323
C   C10       1.0  0.39600  0.76590  0.91750  1.0000 -0.098021323
C   C11       1.0  0.47850  0.39600  0.63010  1.0000 -0.098021323
C   C12       1.0  0.84840  0.47850  0.08250  1.0000 -0.098021323
C   C13       1.0  0.97850  0.34840  0.08250  1.0000 -0.098021323
C   C14       1.0  0.26590  0.89600  0.91750  1.0000 -0.098021323
C   C15       1.0  0.89600  0.97850  0.63010  1.0000 -0.098021323
C   C16       1.0  0.34840  0.26590  0.36990  1.0000 -0.098021323
C   C17       1.0  0.68160  0.84810  0.35510  1.0000 0.0098218465
C   C18       1.0  0.32650  0.68160  0.83350  1.0000 0.0098218465
C   C19       1.0  0.49300  0.32650  0.64490  1.0000 0.0098218465
C   C20       1.0  0.84810  0.49300  0.16650  1.0000 0.0098218465
C   C21       1.0  0.99300  0.34810  0.16650  1.0000 0.0098218465
C   C22       1.0  0.18160  0.82650  0.83350  1.0000 0.0098218465
C   C23       1.0  0.82650  0.99300  0.64490  1.0000 0.0098218465
C   C24       1.0  0.34810  0.18160  0.35510  1.0000 0.0098218465
C   C25       1.0  0.67060  0.91360  0.32480  1.0000 -0.098021323
C   C26       1.0  0.34580  0.67060  0.75700  1.0000 -0.098021323
C   C27       1.0  0.58880  0.34580  0.67520  1.0000 -0.098021323
C   C28       1.0  0.91360  0.58880  0.24300  1.0000 -0.098021323
C   C29       1.0  0.08880  0.41360  0.24300  1.0000 -0.098021323
C   C30       1.0  0.17060  0.84580  0.75700  1.0000 -0.098021323
C   C31       1.0  0.84580  0.08880  0.67520  1.0000 -0.098021323
C   C32       1.0  0.41360  0.17060  0.32480  1.0000 -0.098021323
C   C33       1.0  0.74400  0.97680  0.30780  1.0000 -0.0176284447
C   C34       1.0  0.43620  0.74400  0.76720  1.0000 -0.0176284447
C   C35       1.0  0.66900  0.43620  0.69220  1.0000 -0.0176284447
C   C36       1.0  0.97680  0.66900  0.23280  1.0000 -0.0176284447
C   C37       1.0  0.16900  0.47680  0.23280  1.0000 -0.0176284447
C   C38       1.0  0.24400  0.93620  0.76720  1.0000 -0.0176284447
C   C39       1.0  0.93620  0.16900  0.69220  1.0000 -0.0176284447
C   C40       1.0  0.47680  0.24400  0.30780  1.0000 -0.0176284447
C   C41       1.0  0.82870  0.97700  0.32430  1.0000 -0.0948679062
C   C42       1.0  0.50440  0.82870  0.85170  1.0000 -0.098021323
C   C43       1.0  0.65270  0.50440  0.67570  1.0000 -0.098021323
C   C44       1.0  0.97700  0.65270  0.14830  1.0000 -0.098021323
C   C45       1.0  0.15270  0.47700  0.14830  1.0000 -0.098021323
C   C46       1.0  0.32870  0.00440  0.85170  1.0000 -0.098021323
C   C47       1.0  0.00440  0.15270  0.67570  1.0000 -0.098021323
C   C48       1.0  0.47700  0.32870  0.32430  1.0000 -0.098021323
C   C49       1.0  0.93400  0.91660  0.37760  1.0000 0.5894478721
C   C50       1.0  0.55640  0.93400  0.01740  1.0000 0.5894478721
C   C51       1.0  0.53900  0.55640  0.62240  1.0000 0.5894478721
C   C52       1.0  0.91660  0.53900  0.98260  1.0000 0.5894478721
C   C53       1.0  0.03900  0.41660  0.98260  1.0000 0.5894478721
C   C54       1.0  0.43400  0.05640  0.01740  1.0000 0.5894478721
C   C55       1.0  0.05640  0.03900  0.62240  1.0000 0.5894478721
C   C56       1.0  0.41660  0.43400  0.37760  1.0000 0.5894478721
C   C57       1.0  0.59650  0.77590  0.36440  1.0000 0.5501165626
C   C58       1.0  0.23210  0.59650  0.82060  1.0000 0.5501165626
C   C59       1.0  0.41150  0.23210  0.63560  1.0000 0.5501165626
C   C60       1.0  0.77590  0.41150  0.17940  1.0000 0.5501165626
C   C61       1.0  0.91150  0.27590  0.17940  1.0000 0.5501165626
C   C62       1.0  0.09650  0.73210  0.82060  1.0000 0.5501165626
C   C63       1.0  0.73210  0.91150  0.63560  1.0000 0.5501165626
C   C64       1.0  0.27590  0.09650  0.36440  1.0000 0.5501165626
C   C65       1.0  0.72760  0.03870  0.26830  1.0000 0.6026645017
C   C66       1.0  0.45930  0.72760  0.68890  1.0000 0.6026645017
C   C67       1.0  0.77040  0.45930  0.73170  1.0000 0.6026645017
C   C68       1.0  0.03870  0.77040  0.31110  1.0000 0.6026645017
C   C69       1.0  0.27040  0.53870  0.31110  1.0000 0.6026645017
C   C70       1.0  0.22760  0.95930  0.68890  1.0000 0.6026645017
C   C71       1.0  0.95930  0.27040  0.73170  1.0000 0.6026645017
C   C72       1.0  0.53870  0.22760  0.26830  1.0000 0.6026645017
O   O1        1.0  0.93901  0.85670  0.40171  1.0000 -0.5007111511
O   O2        1.0  0.53730  0.93901  0.08231  1.0000 -0.5007111511
O   O3        1.0  0.45499  0.53730  0.59829  1.0000 -0.5007111511
O   O4        1.0  0.85670  0.45499  0.91769  1.0000 -0.5007111511
O   O5        1.0  0.95499  0.35670  0.91769  1.0000 -0.5007111511
O   O6        1.0  0.43901  0.03730  0.08231  1.0000 -0.5007111511
O   O7        1.0  0.03730  0.95499  0.59829  1.0000 -0.5007111511
O   O8        1.0  0.35670  0.43901  0.40171  1.0000 -0.5007111511
O   O9        1.0  0.99935  0.98029  0.36526  1.0000 -0.5007111511
O   O10       1.0  0.63409  0.99935  0.01906  1.0000 -0.5007111511
O   O11       1.0  0.61503  0.63409  0.63474  1.0000 -0.5007111511
O   O12       1.0  0.98029  0.61503  0.98094  1.0000 -0.5007111511
O   O13       1.0  0.11503  0.48029  0.98094  1.0000 -0.5007111511
O   O14       1.0  0.49935  0.13409  0.01906  1.0000 -0.5007111511
O   O15       1.0  0.13409  0.11503  0.63474  1.0000 -0.5007111511
O   O16       1.0  0.48029  0.49935  0.36526  1.0000 -0.5007111511
O   O17       1.0  0.59450  0.70100  0.36670  1.0000 -0.4928505963
O   O18       1.0  0.22780  0.59450  0.89350  1.0000 -0.4928505963
O   O19       1.0  0.33430  0.22780  0.63330  1.0000 -0.4928505963
O   O20       1.0  0.70100  0.33430  0.10650  1.0000 -0.4928505963
O   O21       1.0  0.83430  0.20100  0.10650  1.0000 -0.4928505963
O   O22       1.0  0.09450  0.72780  0.89350  1.0000 -0.4928505963
O   O23       1.0  0.72780  0.83430  0.63330  1.0000 -0.4928505963
O   O24       1.0  0.20100  0.09450  0.36670  1.0000 -0.4928505963
O   O25       1.0  0.53110  0.78770  0.36520  1.0000 -0.418718225
O   O26       1.0  0.16590  0.53110  0.74340  1.0000 -0.418718225
O   O27       1.0  0.42250  0.16590  0.63480  1.0000 -0.418718225
O   O28       1.0  0.78770  0.42250  0.25660  1.0000 -0.418718225
O   O29       1.0  0.92250  0.28770  0.25660  1.0000 -0.418718225
O   O30       1.0  0.03110  0.66590  0.74340  1.0000 -0.418718225
O   O31       1.0  0.66590  0.92250  0.63480  1.0000 -0.418718225
O   O32       1.0  0.28770  0.03110  0.36520  1.0000 -0.418718225
O   O33       1.0  0.66875  0.06066  0.28321  1.0000 -0.5007111511
O   O34       1.0  0.38554  0.66875  0.60809  1.0000 -0.5007111511
O   O35       1.0  0.77745  0.38554  0.71679  1.0000 -0.5007111511
O   O36       1.0  0.06066  0.77745  0.39191  1.0000 -0.5007111511
O   O37       1.0  0.27745  0.56066  0.39191  1.0000 -0.5007111511
O   O38       1.0  0.16875  0.88554  0.60809  1.0000 -0.4928505963
O   O39       1.0  0.88554  0.27745  0.71679  1.0000 -0.5007111511
O   O40       1.0  0.56066  0.16875  0.28321  1.0000 -0.5007111511
O   O41       1.0  0.77361  0.06510  0.22291  1.0000 -0.512595913
O   O42       1.0  0.55070  0.77361  0.70851  1.0000 -0.512595913
O   O43       1.0  0.84219  0.55070  0.77709  1.0000 -0.512595913
O   O44       1.0  0.06510  0.84219  0.29149  1.0000 -0.512595913
O   O45       1.0  0.34219  0.56510  0.29149  1.0000 -0.512595913
O   O46       1.0  0.27361  0.05070  0.70851  1.0000 -0.512595913
O   O47       1.0  0.05070  0.34219  0.77709  1.0000 -0.512595913
O   O48       1.0  0.56510  0.27361  0.22291  1.0000 -0.512595913
O   O49       1.0  0.17210  0.99070  0.50000  1.0000 -0.853114015
O   O50       1.0  0.67210  0.17210  0.18140  1.0000 -0.853114015
O   O51       1.0  0.49070  0.67210  0.50000  1.0000 -0.853114015
O   O52       1.0  0.99070  0.49070  0.81860  1.0000 -0.853114015
