# DDEC6 charges by PACMAN v1.1 (https://github.com/mtap-research/PACMAN-charge/)
data_2016[La][nan]3[ASR]3
_chemical_formula_sum              "La4 H28 C60 O24"
_cell_length_a       14.0615
_cell_length_b       14.0615
_cell_length_c       14.971
_cell_angle_alpha    84.1521
_cell_angle_beta     95.8479
_cell_angle_gamma    123.722

_symmetry_space_group_name_H-M    "P 1"
_symmetry_Int_Tables_number       1

loop_
  _symmetry_equiv_pos_as_xyz
  'x, y, z'

loop_
  _atom_site_type_symbol
  _atom_site_label
  _atom_site_symmetry_multiplicity
  _atom_site_fract_x
  _atom_site_fract_y
  _atom_site_fract_z
  _atom_site_occupancy
  _atom_site_charge
La  La1       1.0  0.87796  0.53774  0.96936  1.0000 1.8548119471
La  La2       1.0  0.53774  0.87796  0.53064  1.0000 1.8552958176
La  La3       1.0  0.12204  0.46226  0.03064  1.0000 1.8552958176
La  La4       1.0  0.46226  0.12204  0.46936  1.0000 1.8552958176
H   H1        1.0  0.68420  0.22860  0.21130  1.0000 0.1308666945
H   H2        1.0  0.22860  0.68420  0.28870  1.0000 0.1308666945
H   H3        1.0  0.31580  0.77140  0.78870  1.0000 0.1308666945
H   H4        1.0  0.77140  0.31580  0.71130  1.0000 0.1308666945
H   H5        1.0  0.67440  0.93980  0.27000  1.0000 0.1199437216
H   H6        1.0  0.93980  0.67440  0.23000  1.0000 0.1199437216
H   H7        1.0  0.32560  0.06020  0.73000  1.0000 0.1199437216
H   H8        1.0  0.06020  0.32560  0.77000  1.0000 0.1199437216
H   H9        1.0  0.86070  0.15490  0.06920  1.0000 0.1199437216
H   H10       1.0  0.15490  0.86070  0.43080  1.0000 0.1199437216
H   H11       1.0  0.13930  0.84510  0.93080  1.0000 0.1199437216
H   H12       1.0  0.84510  0.13930  0.56920  1.0000 0.1199437216
H   H13       1.0  0.63650  0.80470  0.16830  1.0000 0.1199437216
H   H14       1.0  0.80470  0.63650  0.33170  1.0000 0.1199437216
H   H15       1.0  0.36350  0.19530  0.83170  1.0000 0.1199437216
H   H16       1.0  0.19530  0.36350  0.66830  1.0000 0.1199437216
H   H17       1.0  0.66730  0.67190  0.12370  1.0000 0.1199437216
H   H18       1.0  0.67190  0.66730  0.37630  1.0000 0.1199437216
H   H19       1.0  0.33270  0.32810  0.87630  1.0000 0.1199437216
H   H20       1.0  0.32810  0.33270  0.62370  1.0000 0.1199437216
H   H21       1.0  0.98250  0.92390  0.05720  1.0000 0.1114170656
H   H22       1.0  0.92390  0.98250  0.44280  1.0000 0.1114170656
H   H23       1.0  0.01750  0.07610  0.94280  1.0000 0.1114170656
H   H24       1.0  0.07610  0.01750  0.55720  1.0000 0.1114170656
H   H25       1.0  0.95240  0.05700  0.10300  1.0000 0.1199437216
H   H26       1.0  0.05700  0.95240  0.39700  1.0000 0.1199437216
H   H27       1.0  0.04760  0.94300  0.89700  1.0000 0.1199437216
H   H28       1.0  0.94300  0.04760  0.60300  1.0000 0.1199437216
C   C1        1.0  0.81670  0.31570  0.07390  1.0000 0.5982188985
C   C2        1.0  0.31570  0.81670  0.42610  1.0000 0.5982188985
C   C3        1.0  0.18330  0.68430  0.92610  1.0000 0.5982188985
C   C4        1.0  0.68430  0.18330  0.57390  1.0000 0.5982188985
C   C5        1.0  0.77810  0.20790  0.13040  1.0000 -0.0275043117
C   C6        1.0  0.20790  0.77810  0.36960  1.0000 -0.0275043117
C   C7        1.0  0.22190  0.79210  0.86960  1.0000 -0.0275043117
C   C8        1.0  0.79210  0.22190  0.63040  1.0000 -0.0275043117
C   C9        1.0  0.70660  0.18000  0.20050  1.0000 -0.1000336751
C   C10       1.0  0.18000  0.70660  0.29950  1.0000 -0.1000336751
C   C11       1.0  0.29340  0.82000  0.79950  1.0000 -0.1000336751
C   C12       1.0  0.82000  0.29340  0.70050  1.0000 -0.1000336751
C   C13       1.0  0.66970  0.08150  0.25310  1.0000 -0.0186979964
C   C14       1.0  0.08150  0.66970  0.24690  1.0000 -0.0186979964
C   C15       1.0  0.33030  0.91850  0.74690  1.0000 -0.0186979964
C   C16       1.0  0.91850  0.33030  0.75310  1.0000 -0.0186979964
C   C17       1.0  0.70000  0.00700  0.23440  1.0000 -0.1411590099
C   C18       1.0  0.00700  0.70000  0.26560  1.0000 -0.1411590099
C   C19       1.0  0.30000  0.99300  0.76560  1.0000 -0.1411590099
C   C20       1.0  0.99300  0.30000  0.73440  1.0000 -0.1411590099
C   C21       1.0  0.76800  0.03120  0.16330  1.0000 0.0580413632
C   C22       1.0  0.03120  0.76800  0.33670  1.0000 0.0580413632
C   C23       1.0  0.23200  0.96880  0.83670  1.0000 0.0580413632
C   C24       1.0  0.96880  0.23200  0.66330  1.0000 0.0580413632
C   C25       1.0  0.81020  0.13460  0.11390  1.0000 -0.1493564019
C   C26       1.0  0.13460  0.81020  0.38610  1.0000 -0.1493564019
C   C27       1.0  0.18980  0.86540  0.88610  1.0000 -0.1493564019
C   C28       1.0  0.86540  0.18980  0.61390  1.0000 -0.1493564019
C   C29       1.0  0.59880  0.05360  0.33350  1.0000 0.6196003363
C   C30       1.0  0.05360  0.59880  0.16650  1.0000 0.6196003363
C   C31       1.0  0.40120  0.94640  0.66650  1.0000 0.6196003363
C   C32       1.0  0.94640  0.40120  0.83350  1.0000 0.6196003363
C   C33       1.0  0.79140  0.94620  0.13960  1.0000 0.0719159052
C   C34       1.0  0.94620  0.79140  0.36040  1.0000 0.0719159052
C   C35       1.0  0.20860  0.05380  0.86040  1.0000 0.0719159052
C   C36       1.0  0.05380  0.20860  0.63960  1.0000 0.0719159052
C   C37       1.0  0.70620  0.82940  0.14560  1.0000 -0.1493564019
C   C38       1.0  0.82940  0.70620  0.35440  1.0000 -0.1493564019
C   C39       1.0  0.29380  0.17060  0.85440  1.0000 -0.1493564019
C   C40       1.0  0.17060  0.29380  0.64560  1.0000 -0.1493564019
C   C41       1.0  0.72420  0.74960  0.11810  1.0000 -0.093711999
C   C42       1.0  0.74960  0.72420  0.38190  1.0000 -0.093711999
C   C43       1.0  0.27580  0.25040  0.88190  1.0000 -0.093711999
C   C44       1.0  0.25040  0.27580  0.61810  1.0000 -0.093711999
C   C45       1.0  0.82680  0.78540  0.08230  1.0000 -0.0275043117
C   C46       1.0  0.78540  0.82680  0.41770  1.0000 -0.0275043117
C   C47       1.0  0.17320  0.21460  0.91770  1.0000 -0.0275043117
C   C48       1.0  0.21460  0.17320  0.58230  1.0000 -0.0275043117
C   C49       1.0  0.91220  0.89960  0.07860  1.0000 -0.1000336751
C   C50       1.0  0.89960  0.91220  0.42140  1.0000 -0.1000336751
C   C51       1.0  0.08780  0.10040  0.92140  1.0000 -0.1000336751
C   C52       1.0  0.10040  0.08780  0.57860  1.0000 -0.1000336751
C   C53       1.0  0.89400  0.97960  0.10660  1.0000 -0.1493564019
C   C54       1.0  0.97960  0.89400  0.39340  1.0000 -0.1493564019
C   C55       1.0  0.10600  0.02040  0.89340  1.0000 -0.1493564019
C   C56       1.0  0.02040  0.10600  0.60660  1.0000 -0.1493564019
C   C57       1.0  0.84190  0.70130  0.04260  1.0000 0.5558825985
C   C58       1.0  0.70130  0.84190  0.45740  1.0000 0.5558825985
C   C59       1.0  0.15810  0.29870  0.95740  1.0000 0.5558825985
C   C60       1.0  0.29870  0.15810  0.54260  1.0000 0.5558825985
O   O1        1.0  0.75404  0.35276  0.06370  1.0000 -0.5482502773
O   O2        1.0  0.35276  0.75404  0.43630  1.0000 -0.5482502773
O   O3        1.0  0.24596  0.64724  0.93630  1.0000 -0.5482502773
O   O4        1.0  0.64724  0.24596  0.56370  1.0000 -0.5482502773
O   O5        1.0  0.91296  0.36664  0.03820  1.0000 -0.6869910106
O   O6        1.0  0.36664  0.91296  0.46180  1.0000 -0.6869910106
O   O7        1.0  0.08704  0.63336  0.96180  1.0000 -0.6869910106
O   O8        1.0  0.63336  0.08704  0.53820  1.0000 -0.6869910106
O   O9        1.0  0.57371  0.12349  0.34770  1.0000 -0.6321568086
O   O10       1.0  0.12349  0.57371  0.15230  1.0000 -0.6321568086
O   O11       1.0  0.42629  0.87651  0.65230  1.0000 -0.6321568086
O   O12       1.0  0.87651  0.42629  0.84770  1.0000 -0.6321568086
O   O13       1.0  0.56802  0.96258  0.37640  1.0000 -0.5871344402
O   O14       1.0  0.96258  0.56802  0.12360  1.0000 -0.5871344402
O   O15       1.0  0.43198  0.03742  0.62360  1.0000 -0.5871344402
O   O16       1.0  0.03742  0.43198  0.87640  1.0000 -0.5871344402
O   O17       1.0  0.76472  0.59668  0.04670  1.0000 -0.5802102878
O   O18       1.0  0.59668  0.76472  0.45330  1.0000 -0.5802102878
O   O19       1.0  0.23528  0.40332  0.95330  1.0000 -0.5802102878
O   O20       1.0  0.40332  0.23528  0.54670  1.0000 -0.5802102878
O   O21       1.0  0.93481  0.73879  0.00630  1.0000 -0.6093793109
O   O22       1.0  0.73879  0.93481  0.49370  1.0000 -0.6093793109
O   O23       1.0  0.06519  0.26121  0.99370  1.0000 -0.6093793109
O   O24       1.0  0.26121  0.06519  0.50630  1.0000 -0.6093793109
