# DDEC6 charges by PACMAN v1.1 (https://github.com/mtap-research/PACMAN-charge/)
data_2016[Cd][rtl]3[ASR]1
_chemical_formula_sum              "Cd6 H36 C60 O28"
_cell_length_a       7.863
_cell_length_b       18.3152
_cell_length_c       14.0147
_cell_angle_alpha    90
_cell_angle_beta     105.464
_cell_angle_gamma    90

_symmetry_space_group_name_H-M    "P 1"
_symmetry_Int_Tables_number       1

loop_
  _symmetry_equiv_pos_as_xyz
  'x, y, z'

loop_
  _atom_site_type_symbol
  _atom_site_label
  _atom_site_symmetry_multiplicity
  _atom_site_fract_x
  _atom_site_fract_y
  _atom_site_fract_z
  _atom_site_occupancy
  _atom_site_charge
Cd  Cd1       1.0  0.77207  0.55892  0.18189  1.0000 0.9858410354
Cd  Cd2       1.0  0.72793  0.05892  0.81811  1.0000 0.9858410354
Cd  Cd3       1.0  0.22793  0.44108  0.81811  1.0000 0.9858410354
Cd  Cd4       1.0  0.27207  0.94108  0.18189  1.0000 0.9858410354
Cd  Cd5       1.0  0.00000  0.50000  0.00000  1.0000 1.0517711039
Cd  Cd6       1.0  0.50000  0.00000  0.00000  1.0000 1.0517711039
H   H1        1.0  0.80790  0.27480  0.00740  1.0000 0.1284820005
H   H2        1.0  0.69210  0.77480  0.99260  1.0000 0.1284820005
H   H3        1.0  0.19210  0.72520  0.99260  1.0000 0.1284820005
H   H4        1.0  0.30790  0.22520  0.00740  1.0000 0.1284820005
H   H5        1.0  0.74160  0.11660  0.19160  1.0000 0.1076948415
H   H6        1.0  0.75840  0.61660  0.80840  1.0000 0.1076948415
H   H7        1.0  0.25840  0.88340  0.80840  1.0000 0.1076948415
H   H8        1.0  0.24160  0.38340  0.19160  1.0000 0.1076948415
H   H9        1.0  0.74050  0.32720  0.27180  1.0000 0.1189233116
H   H10       1.0  0.75950  0.82720  0.72820  1.0000 0.1189233116
H   H11       1.0  0.25950  0.67280  0.72820  1.0000 0.1189233116
H   H12       1.0  0.24050  0.17280  0.27180  1.0000 0.1189233116
H   H13       1.0  0.57890  0.10270  0.30560  1.0000 0.104715697
H   H14       1.0  0.92110  0.60270  0.69440  1.0000 0.104715697
H   H15       1.0  0.42110  0.89730  0.69440  1.0000 0.104715697
H   H16       1.0  0.07890  0.39730  0.30560  1.0000 0.104715697
H   H17       1.0  0.56620  0.06430  0.45870  1.0000 0.1284820005
H   H18       1.0  0.93380  0.56430  0.54130  1.0000 0.1284820005
H   H19       1.0  0.43380  0.93570  0.54130  1.0000 0.1284820005
H   H20       1.0  0.06620  0.43570  0.45870  1.0000 0.1284820005
H   H21       1.0  0.83710  0.24270  0.57820  1.0000 0.1189233116
H   H22       1.0  0.66290  0.74270  0.42180  1.0000 0.1189233116
H   H23       1.0  0.16290  0.75730  0.42180  1.0000 0.1189233116
H   H24       1.0  0.33710  0.25730  0.57820  1.0000 0.1189233116
H   H25       1.0  0.86280  0.27720  0.42740  1.0000 0.1076948415
H   H26       1.0  0.63720  0.77720  0.57260  1.0000 0.1076948415
H   H27       1.0  0.13720  0.72280  0.57260  1.0000 0.1076948415
H   H28       1.0  0.36280  0.22280  0.42740  1.0000 0.1076948415
H   H29       1.0  0.15740  0.52080  0.22170  1.0000 0.3993256461
H   H30       1.0  0.34260  0.02080  0.77830  1.0000 0.3993256461
H   H31       1.0  0.84260  0.47920  0.77830  1.0000 0.3993256461
H   H32       1.0  0.65740  0.97920  0.22170  1.0000 0.3993256461
H   H33       1.0  0.14550  0.59590  0.18120  1.0000 0.4191607978
H   H34       1.0  0.35450  0.09590  0.81880  1.0000 0.4191607978
H   H35       1.0  0.85450  0.40410  0.81880  1.0000 0.4191607978
H   H36       1.0  0.64550  0.90410  0.18120  1.0000 0.4191607978
C   C1        1.0  0.77770  0.31250  0.13680  1.0000 -0.019858384
C   C2        1.0  0.72230  0.81250  0.86320  1.0000 -0.019858384
C   C3        1.0  0.22230  0.68750  0.86320  1.0000 -0.019858384
C   C4        1.0  0.27770  0.18750  0.13680  1.0000 -0.019858384
C   C5        1.0  0.78830  0.26080  0.06730  1.0000 -0.1122060348
C   C6        1.0  0.71170  0.76080  0.93270  1.0000 -0.1122060348
C   C7        1.0  0.21170  0.73920  0.93270  1.0000 -0.1122060348
C   C8        1.0  0.28830  0.23920  0.06730  1.0000 -0.1122060348
C   C9        1.0  0.76940  0.18690  0.08770  1.0000 -0.019858384
C   C10       1.0  0.73060  0.68690  0.91230  1.0000 -0.019858384
C   C11       1.0  0.23060  0.81310  0.91230  1.0000 -0.019858384
C   C12       1.0  0.26940  0.31310  0.08770  1.0000 -0.019858384
C   C13       1.0  0.74860  0.16600  0.17780  1.0000 -0.152705424
C   C14       1.0  0.75140  0.66600  0.82220  1.0000 -0.152705424
C   C15       1.0  0.25140  0.83400  0.82220  1.0000 -0.152705424
C   C16       1.0  0.24860  0.33400  0.17780  1.0000 -0.152705424
C   C17       1.0  0.73790  0.21790  0.24960  1.0000 0.0674175802
C   C18       1.0  0.76210  0.71790  0.75040  1.0000 0.0674175802
C   C19       1.0  0.26210  0.78210  0.75040  1.0000 0.0674175802
C   C20       1.0  0.23790  0.28210  0.24960  1.0000 0.0674175802
C   C21       1.0  0.75050  0.29160  0.22630  1.0000 -0.1402709414
C   C22       1.0  0.74950  0.79160  0.77370  1.0000 -0.1402709414
C   C23       1.0  0.24950  0.70840  0.77370  1.0000 -0.1402709414
C   C24       1.0  0.25050  0.20840  0.22630  1.0000 -0.1402709414
C   C25       1.0  0.80360  0.39290  0.11470  1.0000 0.5798259299
C   C26       1.0  0.69640  0.89290  0.88530  1.0000 0.5798259299
C   C27       1.0  0.19640  0.60710  0.88530  1.0000 0.5798259299
C   C28       1.0  0.30360  0.10710  0.11470  1.0000 0.5798259299
C   C29       1.0  0.76460  0.13150  0.00840  1.0000 0.5798259299
C   C30       1.0  0.73540  0.63150  0.99160  1.0000 0.5798259299
C   C31       1.0  0.23540  0.86850  0.99160  1.0000 0.5798259299
C   C32       1.0  0.26460  0.36850  0.00840  1.0000 0.5798259299
C   C33       1.0  0.72150  0.19480  0.34910  1.0000 0.0674175802
C   C34       1.0  0.77850  0.69480  0.65090  1.0000 0.0674175802
C   C35       1.0  0.27850  0.80520  0.65090  1.0000 0.0674175802
C   C36       1.0  0.22150  0.30520  0.34910  1.0000 0.0674175802
C   C37       1.0  0.63320  0.13030  0.36100  1.0000 -0.152705424
C   C38       1.0  0.86680  0.63030  0.63900  1.0000 -0.152705424
C   C39       1.0  0.36680  0.86970  0.63900  1.0000 -0.152705424
C   C40       1.0  0.13320  0.36970  0.36100  1.0000 -0.152705424
C   C41       1.0  0.62520  0.10740  0.45270  1.0000 -0.0991362263
C   C42       1.0  0.87480  0.60740  0.54730  1.0000 -0.0991362263
C   C43       1.0  0.37480  0.89260  0.54730  1.0000 -0.0991362263
C   C44       1.0  0.12520  0.39260  0.45270  1.0000 -0.0991362263
C   C45       1.0  0.70450  0.14770  0.53720  1.0000 -0.0124748055
C   C46       1.0  0.79550  0.64770  0.46280  1.0000 -0.0124748055
C   C47       1.0  0.29550  0.85230  0.46280  1.0000 -0.0124748055
C   C48       1.0  0.20450  0.35230  0.53720  1.0000 -0.0124748055
C   C49       1.0  0.78850  0.21340  0.52360  1.0000 -0.0991362263
C   C50       1.0  0.71150  0.71340  0.47640  1.0000 -0.0991362263
C   C51       1.0  0.21150  0.78660  0.47640  1.0000 -0.0991362263
C   C52       1.0  0.28850  0.28660  0.52360  1.0000 -0.0991362263
C   C53       1.0  0.80070  0.23500  0.43310  1.0000 -0.1402709414
C   C54       1.0  0.69930  0.73500  0.56690  1.0000 -0.1402709414
C   C55       1.0  0.19930  0.76500  0.56690  1.0000 -0.1402709414
C   C56       1.0  0.30070  0.26500  0.43310  1.0000 -0.1402709414
C   C57       1.0  0.70160  0.12090  0.63740  1.0000 0.5308979149
C   C58       1.0  0.79840  0.62090  0.36260  1.0000 0.5308979149
C   C59       1.0  0.29840  0.87910  0.36260  1.0000 0.5308979149
C   C60       1.0  0.20160  0.37910  0.63740  1.0000 0.5308979149
O   O1        1.0  0.77100  0.43810  0.17320  1.0000 -0.5506558422
O   O2        1.0  0.72900  0.93810  0.82680  1.0000 -0.5506558422
O   O3        1.0  0.22900  0.56190  0.82680  1.0000 -0.5506558422
O   O4        1.0  0.27100  0.06190  0.17320  1.0000 -0.5506558422
O   O5        1.0  0.09240  0.55206  0.17700  1.0000 -0.7387619023
O   O6        1.0  0.40760  0.05206  0.82300  1.0000 -0.7387619023
O   O7        1.0  0.90760  0.44794  0.82300  1.0000 -0.7387619023
O   O8        1.0  0.59240  0.94794  0.17700  1.0000 -0.7387619023
O   O9        1.0  0.85890  0.40620  0.04160  1.0000 -0.5695317392
O   O10       1.0  0.64110  0.90620  0.95840  1.0000 -0.5695317392
O   O11       1.0  0.14110  0.59380  0.95840  1.0000 -0.5695317392
O   O12       1.0  0.35890  0.09380  0.04160  1.0000 -0.5695317392
O   O13       1.0  0.76280  0.15510  0.92280  1.0000 -0.5364489262
O   O14       1.0  0.73720  0.65510  0.07720  1.0000 -0.5364489262
O   O15       1.0  0.23720  0.84490  0.07720  1.0000 -0.5364489262
O   O16       1.0  0.26280  0.34490  0.92280  1.0000 -0.5364489262
O   O17       1.0  0.75680  0.06480  0.02620  1.0000 -0.6006682519
O   O18       1.0  0.74320  0.56480  0.97380  1.0000 -0.6006682519
O   O19       1.0  0.24320  0.93520  0.97380  1.0000 -0.6006682519
O   O20       1.0  0.25680  0.43520  0.02620  1.0000 -0.6006682519
O   O21       1.0  0.64680  0.06010  0.64780  1.0000 -0.5198259805
O   O22       1.0  0.85320  0.56010  0.35220  1.0000 -0.5198259805
O   O23       1.0  0.35320  0.93990  0.35220  1.0000 -0.5198259805
O   O24       1.0  0.14680  0.43990  0.64780  1.0000 -0.5198259805
O   O25       1.0  0.76480  0.15840  0.70960  1.0000 -0.5059985373
O   O26       1.0  0.73520  0.65840  0.29040  1.0000 -0.5059985373
O   O27       1.0  0.23520  0.84160  0.29040  1.0000 -0.5059985373
O   O28       1.0  0.26480  0.34160  0.70960  1.0000 -0.5059985373
