# DDEC6 charges by PACMAN v1.1 (https://github.com/mtap-research/PACMAN-charge/)
data_2016[Zn][cds]3[ASR]2
_chemical_formula_sum              "Zn2 H36 C28 N8"
_cell_length_a       9.5463
_cell_length_b       9.5463
_cell_length_c       18.562
_cell_angle_alpha    86.1887
_cell_angle_beta     93.8113
_cell_angle_gamma    59.2233

_symmetry_space_group_name_H-M    "P 1"
_symmetry_Int_Tables_number       1

loop_
  _symmetry_equiv_pos_as_xyz
  'x, y, z'

loop_
  _atom_site_type_symbol
  _atom_site_label
  _atom_site_symmetry_multiplicity
  _atom_site_fract_x
  _atom_site_fract_y
  _atom_site_fract_z
  _atom_site_occupancy
  _atom_site_charge
Zn  Zn1       1.0  0.62493  0.30133  0.01679  1.0000 0.3565977184
Zn  Zn2       1.0  0.69867  0.37507  0.51679  1.0000 0.3565977184
H   H1        1.0  0.36500  0.47140  0.87380  1.0000 0.1002403928
H   H2        1.0  0.52860  0.63500  0.37380  1.0000 0.1002403928
H   H3        1.0  0.42740  0.32480  0.82630  1.0000 0.1002403928
H   H4        1.0  0.67520  0.57260  0.32630  1.0000 0.1002403928
H   H5        1.0  0.44100  0.15180  0.92520  1.0000 0.088349503
H   H6        1.0  0.84820  0.55900  0.42520  1.0000 0.088349503
H   H7        1.0  0.26200  0.30480  0.90920  1.0000 0.1002403928
H   H8        1.0  0.69520  0.73800  0.40920  1.0000 0.1002403928
H   H9        1.0  0.43820  0.08940  0.05050  1.0000 0.1085428061
H   H10       1.0  0.91060  0.56180  0.55050  1.0000 0.1085428061
H   H11       1.0  0.37110  0.22830  0.10180  1.0000 0.1002403928
H   H12       1.0  0.77170  0.62890  0.60180  1.0000 0.1002403928
H   H13       1.0  0.24370  0.02390  0.99420  1.0000 0.1166632032
H   H14       1.0  0.97610  0.75630  0.49420  1.0000 0.1166632032
H   H15       1.0  0.98490  0.06250  0.98150  1.0000 0.0765112159
H   H16       1.0  0.93750  0.01510  0.48150  1.0000 0.0765112159
H   H17       1.0  0.06270  0.44210  0.08160  1.0000 0.1166632032
H   H18       1.0  0.55790  0.93730  0.58160  1.0000 0.1166632032
H   H19       1.0  0.81060  0.47060  0.06490  1.0000 0.088349503
H   H20       1.0  0.52940  0.18940  0.56490  1.0000 0.088349503
H   H21       1.0  0.59060  0.51320  0.86910  1.0000 0.1002403928
H   H22       1.0  0.48680  0.40940  0.36910  1.0000 0.1002403928
H   H23       1.0  0.77170  0.36470  0.88260  1.0000 0.1085428061
H   H24       1.0  0.63530  0.22830  0.38260  1.0000 0.1085428061
H   H25       1.0  0.50980  0.63020  0.74870  1.0000 0.1166632032
H   H26       1.0  0.36980  0.49020  0.24870  1.0000 0.1166632032
H   H27       1.0  0.52170  0.61390  0.62700  1.0000 0.0765112159
H   H28       1.0  0.38610  0.47830  0.12700  1.0000 0.0765112159
H   H29       1.0  0.81670  0.14850  0.78290  1.0000 0.1166632032
H   H30       1.0  0.85150  0.18330  0.28290  1.0000 0.1166632032
H   H31       1.0  0.83180  0.14620  0.66060  1.0000 0.088349503
H   H32       1.0  0.85380  0.16820  0.16060  1.0000 0.088349503
H   H33       1.0  0.67120  0.19460  0.89140  1.0000 0.2193654296
H   H34       1.0  0.80540  0.32880  0.39140  1.0000 0.2193654296
H   H35       1.0  0.30300  0.41400  0.00180  1.0000 0.2193654296
H   H36       1.0  0.58600  0.69700  0.50180  1.0000 0.2193654296
C   C1        1.0  0.43400  0.35320  0.87510  1.0000 -0.1398080917
C   C2        1.0  0.64680  0.56600  0.37510  1.0000 -0.1398080917
C   C3        1.0  0.37480  0.26960  0.92590  1.0000 -0.1398080917
C   C4        1.0  0.73040  0.62520  0.42590  1.0000 -0.1398080917
C   C5        1.0  0.35630  0.20350  0.05300  1.0000 -0.1912886234
C   C6        1.0  0.79650  0.64370  0.55300  1.0000 -0.1912886234
C   C7        1.0  0.18570  0.22630  0.03940  1.0000 0.1085428061
C   C8        1.0  0.77370  0.81430  0.53940  1.0000 0.1085428061
C   C9        1.0  0.15730  0.11690  0.00950  1.0000 -0.2255956935
C   C10       1.0  0.88310  0.84270  0.50950  1.0000 -0.2255956935
C   C11       1.0  0.99980  0.14160  0.00140  1.0000 -0.0063601531
C   C12       1.0  0.85840  0.00020  0.50140  1.0000 -0.0044973236
C   C13       1.0  0.05070  0.36250  0.06060  1.0000 -0.2393846618
C   C14       1.0  0.63750  0.94930  0.56060  1.0000 -0.2393846618
C   C15       1.0  0.89920  0.37840  0.05020  1.0000 0.0297802183
C   C16       1.0  0.62160  0.10080  0.55020  1.0000 0.0297802183
C   C17       1.0  0.66170  0.39930  0.86140  1.0000 -0.1984952348
C   C18       1.0  0.60070  0.33830  0.36140  1.0000 -0.1984952348
C   C19       1.0  0.66330  0.38970  0.78050  1.0000 0.1085428061
C   C20       1.0  0.61030  0.33670  0.28050  1.0000 0.1085428061
C   C21       1.0  0.57530  0.52910  0.73210  1.0000 -0.2199181201
C   C22       1.0  0.47090  0.42470  0.23210  1.0000 -0.2199181201
C   C23       1.0  0.58460  0.51820  0.65890  1.0000 -0.0063601531
C   C24       1.0  0.48180  0.41540  0.15890  1.0000 -0.0063601531
C   C25       1.0  0.75690  0.24650  0.75210  1.0000 -0.2393846618
C   C26       1.0  0.75350  0.24310  0.25210  1.0000 -0.2393846618
C   C27       1.0  0.76380  0.24540  0.67820  1.0000 0.0354452213
C   C28       1.0  0.75460  0.23620  0.17820  1.0000 0.0297802183
N   N1        1.0  0.60660  0.30020  0.90069  1.0000 -0.2919419142
N   N2        1.0  0.69980  0.39340  0.40069  1.0000 -0.2919419142
N   N3        1.0  0.38486  0.30826  0.00059  1.0000 -0.3154241177
N   N4        1.0  0.69174  0.61514  0.50059  1.0000 -0.3154241177
N   N5        1.0  0.67810  0.37910  0.63120  1.0000 -0.2255956935
N   N6        1.0  0.62090  0.32190  0.13120  1.0000 -0.2255956935
N   N7        1.0  0.87020  0.27240  0.02074  1.0000 -0.2393846618
N   N8        1.0  0.72760  0.12980  0.52074  1.0000 -0.2393846618
