# DDEC6 charges by PACMAN v1.1 (https://github.com/mtap-research/PACMAN-charge/)
data_2016[Cu][nbo]3[ASR]24
_chemical_formula_sum              "Cu6 H90 C132 O30"
_cell_length_a       21.5464
_cell_length_b       21.5464
_cell_length_c       21.5464
_cell_angle_alpha    109.986
_cell_angle_beta     109.986
_cell_angle_gamma    109.986

_symmetry_space_group_name_H-M    "P 1"
_symmetry_Int_Tables_number       1

loop_
  _symmetry_equiv_pos_as_xyz
  'x, y, z'

loop_
  _atom_site_type_symbol
  _atom_site_label
  _atom_site_symmetry_multiplicity
  _atom_site_fract_x
  _atom_site_fract_y
  _atom_site_fract_z
  _atom_site_occupancy
  _atom_site_charge
Cu  Cu1       1.0  0.94762  0.42659  0.94763  1.0000 0.8662721106
Cu  Cu2       1.0  0.42659  0.94763  0.94763  1.0000 0.8649257608
Cu  Cu3       1.0  0.94762  0.94763  0.42659  1.0000 0.8662721106
Cu  Cu4       1.0  0.57341  0.05238  0.05237  1.0000 0.8662721106
Cu  Cu5       1.0  0.05237  0.57341  0.05237  1.0000 0.8662721106
Cu  Cu6       1.0  0.05237  0.05237  0.57341  1.0000 0.8649257608
H   H1        1.0  0.09880  0.34150  0.92090  1.0000 0.1278070009
H   H2        1.0  0.34150  0.92090  0.09880  1.0000 0.1278070009
H   H3        1.0  0.92090  0.09880  0.34150  1.0000 0.1278070009
H   H4        1.0  0.65850  0.90120  0.07910  1.0000 0.1278070009
H   H5        1.0  0.07910  0.65850  0.90120  1.0000 0.1278070009
H   H6        1.0  0.90120  0.07910  0.65850  1.0000 0.1278070009
H   H7        1.0  0.90120  0.65850  0.07910  1.0000 0.1278070009
H   H8        1.0  0.65850  0.07910  0.90120  1.0000 0.1278070009
H   H9        1.0  0.07910  0.90120  0.65850  1.0000 0.1278070009
H   H10       1.0  0.34150  0.09880  0.92090  1.0000 0.1278070009
H   H11       1.0  0.92090  0.34150  0.09880  1.0000 0.1278070009
H   H12       1.0  0.09880  0.92090  0.34150  1.0000 0.1278070009
H   H13       1.0  0.19760  0.32080  0.92080  1.0000 0.1278070009
H   H14       1.0  0.32080  0.92080  0.19760  1.0000 0.1278070009
H   H15       1.0  0.92080  0.19760  0.32080  1.0000 0.1278070009
H   H16       1.0  0.67920  0.80240  0.07920  1.0000 0.1278070009
H   H17       1.0  0.07920  0.67920  0.80240  1.0000 0.1278070009
H   H18       1.0  0.80240  0.07920  0.67920  1.0000 0.1278070009
H   H19       1.0  0.80240  0.67920  0.07920  1.0000 0.1278070009
H   H20       1.0  0.67920  0.07920  0.80240  1.0000 0.1278070009
H   H21       1.0  0.07920  0.80240  0.67920  1.0000 0.1278070009
H   H22       1.0  0.32080  0.19760  0.92080  1.0000 0.1278070009
H   H23       1.0  0.92080  0.32080  0.19760  1.0000 0.1278070009
H   H24       1.0  0.19760  0.92080  0.32080  1.0000 0.1278070009
H   H25       1.0  0.35330  0.54230  0.08510  1.0000 0.115761313
H   H26       1.0  0.54230  0.08510  0.35330  1.0000 0.115761313
H   H27       1.0  0.08510  0.35330  0.54230  1.0000 0.115761313
H   H28       1.0  0.45770  0.64670  0.91490  1.0000 0.115761313
H   H29       1.0  0.91490  0.45770  0.64670  1.0000 0.115761313
H   H30       1.0  0.64670  0.91490  0.45770  1.0000 0.115761313
H   H31       1.0  0.64670  0.45770  0.91490  1.0000 0.115761313
H   H32       1.0  0.45770  0.91490  0.64670  1.0000 0.115761313
H   H33       1.0  0.91490  0.64670  0.45770  1.0000 0.115761313
H   H34       1.0  0.54230  0.35330  0.08510  1.0000 0.115761313
H   H35       1.0  0.08510  0.54230  0.35330  1.0000 0.115761313
H   H36       1.0  0.35330  0.08510  0.54230  1.0000 0.115761313
H   H37       1.0  0.25510  0.56360  0.08490  1.0000 0.1278070009
H   H38       1.0  0.56360  0.08490  0.25510  1.0000 0.1278070009
H   H39       1.0  0.08490  0.25510  0.56360  1.0000 0.1278070009
H   H40       1.0  0.43640  0.74490  0.91510  1.0000 0.1278070009
H   H41       1.0  0.91510  0.43640  0.74490  1.0000 0.1278070009
H   H42       1.0  0.74490  0.91510  0.43640  1.0000 0.1278070009
H   H43       1.0  0.74490  0.43640  0.91510  1.0000 0.1278070009
H   H44       1.0  0.43640  0.91510  0.74490  1.0000 0.1278070009
H   H45       1.0  0.91510  0.74490  0.43640  1.0000 0.1278070009
H   H46       1.0  0.56360  0.25510  0.08490  1.0000 0.1278070009
H   H47       1.0  0.08490  0.56360  0.25510  1.0000 0.1278070009
H   H48       1.0  0.25510  0.08490  0.56360  1.0000 0.1278070009
H   H49       1.0  0.40310  0.51610  0.00150  1.0000 0.115761313
H   H50       1.0  0.51610  0.00150  0.40310  1.0000 0.115761313
H   H51       1.0  0.00150  0.40310  0.51610  1.0000 0.115761313
H   H52       1.0  0.48390  0.59690  0.99850  1.0000 0.115761313
H   H53       1.0  0.99850  0.48390  0.59690  1.0000 0.115761313
H   H54       1.0  0.59690  0.99850  0.48390  1.0000 0.115761313
H   H55       1.0  0.59690  0.48390  0.99850  1.0000 0.115761313
H   H56       1.0  0.48390  0.99850  0.59690  1.0000 0.115761313
H   H57       1.0  0.99850  0.59690  0.48390  1.0000 0.115761313
H   H58       1.0  0.51610  0.40310  0.00150  1.0000 0.115761313
H   H59       1.0  0.00150  0.51610  0.40310  1.0000 0.115761313
H   H60       1.0  0.40310  0.00150  0.51610  1.0000 0.115761313
H   H61       1.0  0.36280  0.31830  0.10160  1.0000 0.0721974245
H   H62       1.0  0.31830  0.10160  0.36280  1.0000 0.0721974245
H   H63       1.0  0.10160  0.36280  0.31830  1.0000 0.0721974245
H   H64       1.0  0.68170  0.63720  0.89840  1.0000 0.0721974245
H   H65       1.0  0.89840  0.68170  0.63720  1.0000 0.0721974245
H   H66       1.0  0.63720  0.89840  0.68170  1.0000 0.0721974245
H   H67       1.0  0.63720  0.68170  0.89840  1.0000 0.0721974245
H   H68       1.0  0.68170  0.89840  0.63720  1.0000 0.0721974245
H   H69       1.0  0.89840  0.63720  0.68170  1.0000 0.0721974245
H   H70       1.0  0.31830  0.36280  0.10160  1.0000 0.0721974245
H   H71       1.0  0.10160  0.31830  0.36280  1.0000 0.0721974245
H   H72       1.0  0.36280  0.10160  0.31830  1.0000 0.0721974245
H   H73       1.0  0.25725  0.25725  0.11430  1.0000 0.1067214538
H   H74       1.0  0.25725  0.11430  0.25725  1.0000 0.1067214538
H   H75       1.0  0.11430  0.25725  0.25725  1.0000 0.1067214538
H   H76       1.0  0.74275  0.74275  0.88570  1.0000 0.1067214538
H   H77       1.0  0.88570  0.74275  0.74275  1.0000 0.1067214538
H   H78       1.0  0.74275  0.88570  0.74275  1.0000 0.1067214538
H   H79       1.0  0.24440  0.20000  0.03620  1.0000 0.1067214538
H   H80       1.0  0.20000  0.03620  0.24440  1.0000 0.1067214538
H   H81       1.0  0.03620  0.24440  0.20000  1.0000 0.1067214538
H   H82       1.0  0.80000  0.75560  0.96380  1.0000 0.1067214538
H   H83       1.0  0.96380  0.80000  0.75560  1.0000 0.1067214538
H   H84       1.0  0.75560  0.96380  0.80000  1.0000 0.1067214538
H   H85       1.0  0.75560  0.80000  0.96380  1.0000 0.1067214538
H   H86       1.0  0.80000  0.96380  0.75560  1.0000 0.1067214538
H   H87       1.0  0.96380  0.75560  0.80000  1.0000 0.1067214538
H   H88       1.0  0.20000  0.24440  0.03620  1.0000 0.1067214538
H   H89       1.0  0.03620  0.20000  0.24440  1.0000 0.1067214538
H   H90       1.0  0.24440  0.03620  0.20000  1.0000 0.1067214538
C   C1        1.0  0.10383  0.47025  0.00201  1.0000 0.5810511199
C   C2        1.0  0.47025  0.00201  0.10383  1.0000 0.5810511199
C   C3        1.0  0.00201  0.10383  0.47025  1.0000 0.5810511199
C   C4        1.0  0.52975  0.89617  0.99799  1.0000 0.5810511199
C   C5        1.0  0.99799  0.52975  0.89617  1.0000 0.5810511199
C   C6        1.0  0.89617  0.99799  0.52975  1.0000 0.5810511199
C   C7        1.0  0.89617  0.52975  0.99799  1.0000 0.5810511199
C   C8        1.0  0.52975  0.99799  0.89617  1.0000 0.5810511199
C   C9        1.0  0.99799  0.89617  0.52975  1.0000 0.5810511199
C   C10       1.0  0.47025  0.10383  0.00201  1.0000 0.5810511199
C   C11       1.0  0.00201  0.47025  0.10383  1.0000 0.5810511199
C   C12       1.0  0.10383  0.00201  0.47025  1.0000 0.5810511199
C   C13       1.0  0.16734  0.45550  0.00323  1.0000 -0.0329990253
C   C14       1.0  0.45550  0.00323  0.16734  1.0000 -0.0329990253
C   C15       1.0  0.00323  0.16734  0.45550  1.0000 -0.0329990253
C   C16       1.0  0.54450  0.83266  0.99677  1.0000 -0.0329990253
C   C17       1.0  0.99677  0.54450  0.83266  1.0000 -0.0329990253
C   C18       1.0  0.83266  0.99677  0.54450  1.0000 -0.0329990253
C   C19       1.0  0.83266  0.54450  0.99677  1.0000 -0.0329990253
C   C20       1.0  0.54450  0.99677  0.83266  1.0000 -0.0329990253
C   C21       1.0  0.99677  0.83266  0.54450  1.0000 -0.0329990253
C   C22       1.0  0.45550  0.16734  0.00323  1.0000 -0.0329990253
C   C23       1.0  0.00323  0.45550  0.16734  1.0000 -0.0329990253
C   C24       1.0  0.16734  0.00323  0.45550  1.0000 -0.0329990253
C   C25       1.0  0.14998  0.38214  0.95382  1.0000 -0.0863654732
C   C26       1.0  0.38214  0.95382  0.14998  1.0000 -0.0840223096
C   C27       1.0  0.95382  0.14998  0.38214  1.0000 -0.0863654732
C   C28       1.0  0.61786  0.85002  0.04618  1.0000 -0.0863654732
C   C29       1.0  0.04618  0.61786  0.85002  1.0000 -0.0863654732
C   C30       1.0  0.85002  0.04618  0.61786  1.0000 -0.0863654732
C   C31       1.0  0.85002  0.61786  0.04618  1.0000 -0.0863654732
C   C32       1.0  0.61786  0.04618  0.85002  1.0000 -0.0863654732
C   C33       1.0  0.04618  0.85002  0.61786  1.0000 -0.0863654732
C   C34       1.0  0.38214  0.14998  0.95382  1.0000 -0.0863654732
C   C35       1.0  0.95382  0.38214  0.14998  1.0000 -0.0840223096
C   C36       1.0  0.14998  0.95382  0.38214  1.0000 -0.0863654732
C   C37       1.0  0.20950  0.36988  0.95390  1.0000 -0.1512786696
C   C38       1.0  0.36988  0.95390  0.20950  1.0000 -0.1512786696
C   C39       1.0  0.95390  0.20950  0.36988  1.0000 -0.1512786696
C   C40       1.0  0.63012  0.79050  0.04610  1.0000 -0.1512786696
C   C41       1.0  0.04610  0.63012  0.79050  1.0000 -0.1512786696
C   C42       1.0  0.79050  0.04610  0.63012  1.0000 -0.1512786696
C   C43       1.0  0.79050  0.63012  0.04610  1.0000 -0.1512786696
C   C44       1.0  0.63012  0.04610  0.79050  1.0000 -0.1512786696
C   C45       1.0  0.04610  0.79050  0.63012  1.0000 -0.1512786696
C   C46       1.0  0.36988  0.20950  0.95390  1.0000 -0.1512786696
C   C47       1.0  0.95390  0.36988  0.20950  1.0000 -0.1512786696
C   C48       1.0  0.20950  0.95390  0.36988  1.0000 -0.1512786696
C   C49       1.0  0.28542  0.42901  0.00197  1.0000 0.0853905173
C   C50       1.0  0.42901  0.00197  0.28542  1.0000 0.0853905173
C   C51       1.0  0.00197  0.28542  0.42901  1.0000 0.084090177
C   C52       1.0  0.57099  0.71458  0.99803  1.0000 0.0853905173
C   C53       1.0  0.99803  0.57099  0.71458  1.0000 0.0853905173
C   C54       1.0  0.71458  0.99803  0.57099  1.0000 0.0853905173
C   C55       1.0  0.71458  0.57099  0.99803  1.0000 0.0853905173
C   C56       1.0  0.57099  0.99803  0.71458  1.0000 0.0853905173
C   C57       1.0  0.99803  0.71458  0.57099  1.0000 0.0853905173
C   C58       1.0  0.42901  0.28542  0.00197  1.0000 0.0853905173
C   C59       1.0  0.00197  0.42901  0.28542  1.0000 0.0853905173
C   C60       1.0  0.28542  0.00197  0.42901  1.0000 0.0853905173
C   C61       1.0  0.30210  0.50180  0.05164  1.0000 -0.1620726436
C   C62       1.0  0.50180  0.05164  0.30210  1.0000 -0.1620726436
C   C63       1.0  0.05164  0.30210  0.50180  1.0000 -0.1620726436
C   C64       1.0  0.49820  0.69790  0.94836  1.0000 -0.1620726436
C   C65       1.0  0.94836  0.49820  0.69790  1.0000 -0.1620726436
C   C66       1.0  0.69790  0.94836  0.49820  1.0000 -0.1620726436
C   C67       1.0  0.69790  0.49820  0.94836  1.0000 -0.1620726436
C   C68       1.0  0.49820  0.94836  0.69790  1.0000 -0.1620726436
C   C69       1.0  0.94836  0.69790  0.49820  1.0000 -0.1620726436
C   C70       1.0  0.50180  0.30210  0.05164  1.0000 -0.1620726436
C   C71       1.0  0.05164  0.50180  0.30210  1.0000 -0.1620726436
C   C72       1.0  0.30210  0.05164  0.50180  1.0000 -0.1620726436
C   C73       1.0  0.24304  0.51456  0.05168  1.0000 -0.0863654732
C   C74       1.0  0.51456  0.05168  0.24304  1.0000 -0.0863654732
C   C75       1.0  0.05168  0.24304  0.51456  1.0000 -0.0863654732
C   C76       1.0  0.48544  0.75696  0.94832  1.0000 -0.0863654732
C   C77       1.0  0.94832  0.48544  0.75696  1.0000 -0.0863654732
C   C78       1.0  0.75696  0.94832  0.48544  1.0000 -0.0863654732
C   C79       1.0  0.75696  0.48544  0.94832  1.0000 -0.0863654732
C   C80       1.0  0.48544  0.94832  0.75696  1.0000 -0.0863654732
C   C81       1.0  0.94832  0.75696  0.48544  1.0000 -0.0863654732
C   C82       1.0  0.51456  0.24304  0.05168  1.0000 -0.0863654732
C   C83       1.0  0.05168  0.51456  0.24304  1.0000 -0.0863654732
C   C84       1.0  0.24304  0.05168  0.51456  1.0000 -0.0863654732
C   C85       1.0  0.35043  0.41912  0.00034  1.0000 -0.0178469403
C   C86       1.0  0.41912  0.00034  0.35043  1.0000 -0.0178469403
C   C87       1.0  0.00034  0.35043  0.41912  1.0000 -0.0178469403
C   C88       1.0  0.58088  0.64957  0.99966  1.0000 -0.0178469403
C   C89       1.0  0.99966  0.58088  0.64957  1.0000 -0.0178469403
C   C90       1.0  0.64957  0.99966  0.58088  1.0000 -0.0178469403
C   C91       1.0  0.64957  0.58088  0.99966  1.0000 -0.0178469403
C   C92       1.0  0.58088  0.99966  0.64957  1.0000 -0.0178469403
C   C93       1.0  0.99966  0.64957  0.58088  1.0000 -0.0178469403
C   C94       1.0  0.41912  0.35043  0.00034  1.0000 -0.0178469403
C   C95       1.0  0.00034  0.41912  0.35043  1.0000 -0.0178469403
C   C96       1.0  0.35043  0.00034  0.41912  1.0000 -0.0178469403
C   C97       1.0  0.40708  0.47420  0.00078  1.0000 -0.1938831111
C   C98       1.0  0.47420  0.00078  0.40708  1.0000 -0.1938831111
C   C99       1.0  0.00078  0.40708  0.47420  1.0000 -0.1938831111
C   C100      1.0  0.52580  0.59292  0.99922  1.0000 -0.1938831111
C   C101      1.0  0.99922  0.52580  0.59292  1.0000 -0.1938831111
C   C102      1.0  0.59292  0.99922  0.52580  1.0000 -0.1938831111
C   C103      1.0  0.59292  0.52580  0.99922  1.0000 -0.1938831111
C   C104      1.0  0.52580  0.99922  0.59292  1.0000 -0.1938831111
C   C105      1.0  0.99922  0.59292  0.52580  1.0000 -0.1938831111
C   C106      1.0  0.47420  0.40708  0.00078  1.0000 -0.1938831111
C   C107      1.0  0.00078  0.47420  0.40708  1.0000 -0.1938831111
C   C108      1.0  0.40708  0.00078  0.47420  1.0000 -0.1938831111
C   C109      1.0  0.47028  0.47028  0.00024  1.0000 0.0721974245
C   C110      1.0  0.47028  0.00024  0.47028  1.0000 0.0721974245
C   C111      1.0  0.00024  0.47028  0.47028  1.0000 0.0721974245
C   C112      1.0  0.52972  0.52972  0.99976  1.0000 0.0721974245
C   C113      1.0  0.99976  0.52972  0.52972  1.0000 0.0721974245
C   C114      1.0  0.52972  0.99976  0.52972  1.0000 0.0721974245
C   C115      1.0  0.35647  0.35647  0.00049  1.0000 0.1618269099
C   C116      1.0  0.35647  0.00049  0.35647  1.0000 0.1618269099
C   C117      1.0  0.00049  0.35647  0.35647  1.0000 0.1618269099
C   C118      1.0  0.64353  0.64353  0.99951  1.0000 0.1618269099
C   C119      1.0  0.99951  0.64353  0.64353  1.0000 0.1618269099
C   C120      1.0  0.64353  0.99951  0.64353  1.0000 0.1618269099
C   C121      1.0  0.31433  0.31433  0.07303  1.0000 0.0145803423
C   C122      1.0  0.31433  0.07303  0.31433  1.0000 0.0145803423
C   C123      1.0  0.07303  0.31433  0.31433  1.0000 0.0145803423
C   C124      1.0  0.68566  0.68566  0.92697  1.0000 0.0157314539
C   C125      1.0  0.92697  0.68566  0.68566  1.0000 0.0157314539
C   C126      1.0  0.68566  0.92697  0.68566  1.0000 0.0157314539
C   C127      1.0  0.24770  0.24770  0.06410  1.0000 -0.3739899608
C   C128      1.0  0.24770  0.06410  0.24770  1.0000 -0.3739899608
C   C129      1.0  0.06410  0.24770  0.24770  1.0000 -0.3739899608
C   C130      1.0  0.75230  0.75230  0.93590  1.0000 -0.3763799779
C   C131      1.0  0.93590  0.75230  0.75230  1.0000 -0.3763799779
C   C132      1.0  0.75230  0.93590  0.75230  1.0000 -0.3763799779
O   O1        1.0  0.12446  0.53910  0.04642  1.0000 -0.5200147542
O   O2        1.0  0.53910  0.04642  0.12446  1.0000 -0.5200147542
O   O3        1.0  0.04642  0.12446  0.53910  1.0000 -0.5200147542
O   O4        1.0  0.46090  0.87554  0.95358  1.0000 -0.5200147542
O   O5        1.0  0.95358  0.46090  0.87554  1.0000 -0.5200147542
O   O6        1.0  0.87554  0.95358  0.46090  1.0000 -0.5200147542
O   O7        1.0  0.87554  0.46090  0.95358  1.0000 -0.5200147542
O   O8        1.0  0.46090  0.95358  0.87554  1.0000 -0.5200147542
O   O9        1.0  0.95358  0.87554  0.46090  1.0000 -0.5200147542
O   O10       1.0  0.53910  0.12446  0.04642  1.0000 -0.5200147542
O   O11       1.0  0.04642  0.53910  0.12446  1.0000 -0.5200147542
O   O12       1.0  0.12446  0.04642  0.53910  1.0000 -0.5200147542
O   O13       1.0  0.03558  0.41349  0.95713  1.0000 -0.5200147542
O   O14       1.0  0.41349  0.95713  0.03558  1.0000 -0.5200147542
O   O15       1.0  0.95713  0.03558  0.41349  1.0000 -0.5200147542
O   O16       1.0  0.58651  0.96442  0.04287  1.0000 -0.5200147542
O   O17       1.0  0.04287  0.58651  0.96442  1.0000 -0.5200147542
O   O18       1.0  0.96442  0.04287  0.58651  1.0000 -0.5200147542
O   O19       1.0  0.96442  0.58651  0.04287  1.0000 -0.5200147542
O   O20       1.0  0.58651  0.04287  0.96442  1.0000 -0.5200147542
O   O21       1.0  0.04287  0.96442  0.58651  1.0000 -0.5200147542
O   O22       1.0  0.41349  0.03558  0.95713  1.0000 -0.5200147542
O   O23       1.0  0.95713  0.41349  0.03558  1.0000 -0.5200147542
O   O24       1.0  0.03558  0.95713  0.41349  1.0000 -0.5200147542
O   O25       1.0  0.29981  0.29981  0.99896  1.0000 -0.2265794388
O   O26       1.0  0.29981  0.99896  0.29981  1.0000 -0.2265794388
O   O27       1.0  0.99896  0.29981  0.29981  1.0000 -0.2265794388
O   O28       1.0  0.70018  0.70018  0.00104  1.0000 -0.2232886515
O   O29       1.0  0.00104  0.70018  0.70019  1.0000 -0.2265794388
O   O30       1.0  0.70019  0.00104  0.70019  1.0000 -0.2265794388
