# DDEC6 charges by PACMAN v1.1 (https://github.com/mtap-research/PACMAN-charge/)
data_2016[Co][nan]3[ASR]16
_chemical_formula_sum              "Co18 H48 C84 N36 O36"
_cell_length_a       10.9905
_cell_length_b       10.9905
_cell_length_c       33.1813
_cell_angle_alpha    84.9286
_cell_angle_beta     95.0714
_cell_angle_gamma    99.7007

_symmetry_space_group_name_H-M    "P 1"
_symmetry_Int_Tables_number       1

loop_
  _symmetry_equiv_pos_as_xyz
  'x, y, z'

loop_
  _atom_site_type_symbol
  _atom_site_label
  _atom_site_symmetry_multiplicity
  _atom_site_fract_x
  _atom_site_fract_y
  _atom_site_fract_z
  _atom_site_occupancy
  _atom_site_charge
Co  Co1       1.0  0.07056  0.07056  0.75000  1.0000 0.9238600542
Co  Co2       1.0  0.92944  0.92944  0.25000  1.0000 0.9238600542
Co  Co3       1.0  0.89833  0.91209  0.58266  1.0000 0.9358812183
Co  Co4       1.0  0.91209  0.89833  0.91734  1.0000 0.9358812183
Co  Co5       1.0  0.10167  0.08791  0.41734  1.0000 0.9346148779
Co  Co6       1.0  0.08791  0.10167  0.08266  1.0000 0.9358812183
Co  Co7       1.0  0.00402  0.85500  0.49712  1.0000 0.8593867381
Co  Co8       1.0  0.85500  0.00402  0.00288  1.0000 0.8593867381
Co  Co9       1.0  0.99598  0.14500  0.50288  1.0000 0.8593867381
Co  Co10      1.0  0.14500  0.99598  0.99712  1.0000 0.8593867381
Co  Co11      1.0  0.12253  0.96047  0.66678  1.0000 0.8331730177
Co  Co12      1.0  0.96047  0.12253  0.83322  1.0000 0.8360889961
Co  Co13      1.0  0.87747  0.03953  0.33322  1.0000 0.8360889961
Co  Co14      1.0  0.03953  0.87747  0.16678  1.0000 0.8331730177
Co  Co15      1.0  0.84183  0.02183  0.66446  1.0000 0.8593867381
Co  Co16      1.0  0.02183  0.84183  0.83554  1.0000 0.8593867381
Co  Co17      1.0  0.15817  0.97817  0.33554  1.0000 0.8593867381
Co  Co18      1.0  0.97817  0.15817  0.16446  1.0000 0.8593867381
H   H1        1.0  0.63130  0.10090  0.83080  1.0000 0.1300222536
H   H2        1.0  0.10090  0.63130  0.66920  1.0000 0.1300222536
H   H3        1.0  0.36870  0.89910  0.16920  1.0000 0.1300222536
H   H4        1.0  0.89910  0.36870  0.33080  1.0000 0.1300222536
H   H5        1.0  0.42500  0.07420  0.80100  1.0000 0.1079464459
H   H6        1.0  0.07420  0.42500  0.69900  1.0000 0.1079464459
H   H7        1.0  0.57500  0.92580  0.19900  1.0000 0.1079464459
H   H8        1.0  0.92580  0.57500  0.30100  1.0000 0.1079464459
H   H9        1.0  0.53850  0.02850  0.69110  1.0000 0.1388435682
H   H10       1.0  0.02850  0.53850  0.80890  1.0000 0.1388435682
H   H11       1.0  0.46150  0.97150  0.30890  1.0000 0.1388435682
H   H12       1.0  0.97150  0.46150  0.19110  1.0000 0.1388435682
H   H13       1.0  0.33340  0.87440  0.50280  1.0000 0.1388435682
H   H14       1.0  0.87440  0.33340  0.99720  1.0000 0.1388435682
H   H15       1.0  0.66667  0.12560  0.49720  1.0000 0.1388435682
H   H16       1.0  0.12560  0.66667  0.00280  1.0000 0.1388435682
H   H17       1.0  0.53670  0.88810  0.53220  1.0000 0.1178492349
H   H18       1.0  0.88810  0.53670  0.96780  1.0000 0.1178492349
H   H19       1.0  0.46330  0.11190  0.46780  1.0000 0.1178492349
H   H20       1.0  0.11190  0.46330  0.03220  1.0000 0.1178492349
H   H21       1.0  0.43110  0.94810  0.63900  1.0000 0.1388435682
H   H22       1.0  0.94810  0.43110  0.86100  1.0000 0.1388435682
H   H23       1.0  0.56890  0.05190  0.36100  1.0000 0.1388435682
H   H24       1.0  0.05190  0.56890  0.13900  1.0000 0.1388435682
H   H25       1.0  0.86700  0.55520  0.63100  1.0000 0.1178492349
H   H26       1.0  0.55520  0.86700  0.86900  1.0000 0.1178492349
H   H27       1.0  0.13300  0.44480  0.36900  1.0000 0.1178492349
H   H28       1.0  0.44480  0.13300  0.13100  1.0000 0.1178492349
H   H29       1.0  0.94070  0.44150  0.52410  1.0000 0.1388435682
H   H30       1.0  0.44150  0.94070  0.97590  1.0000 0.1388435682
H   H31       1.0  0.05930  0.55850  0.47590  1.0000 0.1388435682
H   H32       1.0  0.55850  0.05930  0.02410  1.0000 0.1388435682
H   H33       1.0  0.86900  0.35980  0.66140  1.0000 0.1388435682
H   H34       1.0  0.35980  0.86900  0.83860  1.0000 0.1388435682
H   H35       1.0  0.13100  0.64020  0.33860  1.0000 0.1388435682
H   H36       1.0  0.64020  0.13100  0.16140  1.0000 0.1388435682
H   H37       1.0  0.82800  0.96600  0.50500  1.0000 0.3885914197
H   H38       1.0  0.96600  0.82800  0.99500  1.0000 0.3885914197
H   H39       1.0  0.17200  0.03400  0.49500  1.0000 0.3885914197
H   H40       1.0  0.03400  0.17200  0.00500  1.0000 0.3885914197
H   H41       1.0  0.09600  0.15000  0.67800  1.0000 0.3841585626
H   H42       1.0  0.15000  0.09600  0.82200  1.0000 0.3841585626
H   H43       1.0  0.90400  0.85000  0.32200  1.0000 0.3841585626
H   H44       1.0  0.85000  0.90400  0.17800  1.0000 0.3841585626
H   H45       1.0  0.90100  0.81300  0.65300  1.0000 0.3885914197
H   H46       1.0  0.81300  0.90100  0.84700  1.0000 0.3885914197
H   H47       1.0  0.09900  0.18700  0.34700  1.0000 0.3885914197
H   H48       1.0  0.18700  0.09900  0.15300  1.0000 0.3885914197
C   C1        1.0  0.67500  0.05140  0.73610  1.0000 0.1079464459
C   C2        1.0  0.05140  0.67500  0.76390  1.0000 0.1079464459
C   C3        1.0  0.32500  0.94860  0.26390  1.0000 0.1079464459
C   C4        1.0  0.94860  0.32500  0.23610  1.0000 0.1079464459
C   C5        1.0  0.70130  0.07510  0.77620  1.0000 0.1178492349
C   C6        1.0  0.07510  0.70130  0.72380  1.0000 0.1178492349
C   C7        1.0  0.29870  0.92490  0.22380  1.0000 0.1178492349
C   C8        1.0  0.92490  0.29870  0.27620  1.0000 0.1178492349
C   C9        1.0  0.61160  0.08600  0.80370  1.0000 -0.1861090898
C   C10       1.0  0.08600  0.61160  0.69630  1.0000 -0.1861090898
C   C11       1.0  0.38840  0.91400  0.19630  1.0000 -0.1837792049
C   C12       1.0  0.91400  0.38840  0.30370  1.0000 -0.1861090898
C   C13       1.0  0.49060  0.07200  0.78530  1.0000 -0.1123849901
C   C14       1.0  0.07200  0.49060  0.71470  1.0000 -0.1123849901
C   C15       1.0  0.50940  0.92800  0.21470  1.0000 -0.1123849901
C   C16       1.0  0.92800  0.50940  0.28530  1.0000 -0.1123849901
C   C17       1.0  0.46590  0.05410  0.74300  1.0000 -0.0193536358
C   C18       1.0  0.05410  0.46590  0.75700  1.0000 -0.0193536358
C   C19       1.0  0.53410  0.94590  0.25700  1.0000 -0.0193536358
C   C20       1.0  0.94590  0.53410  0.24300  1.0000 -0.0193536358
C   C21       1.0  0.55650  0.04210  0.71840  1.0000 -0.1619705582
C   C22       1.0  0.04210  0.55650  0.78160  1.0000 -0.1619705582
C   C23       1.0  0.44350  0.95790  0.28160  1.0000 -0.1619705582
C   C24       1.0  0.95790  0.44350  0.21840  1.0000 -0.1619705582
C   C25       1.0  0.33110  0.05090  0.72610  1.0000 0.5898276975
C   C26       1.0  0.05090  0.33110  0.77390  1.0000 0.5898276975
C   C27       1.0  0.66890  0.94910  0.27390  1.0000 0.5898276975
C   C28       1.0  0.94910  0.66890  0.22610  1.0000 0.5898276975
C   C29       1.0  0.28640  0.91820  0.59590  1.0000 0.1300222536
C   C30       1.0  0.91820  0.28640  0.90410  1.0000 0.1300222536
C   C31       1.0  0.71360  0.08180  0.40410  1.0000 0.1178492349
C   C32       1.0  0.08180  0.71360  0.09590  1.0000 0.1300222536
C   C33       1.0  0.26410  0.89690  0.55560  1.0000 0.1009939385
C   C34       1.0  0.89690  0.26410  0.94440  1.0000 0.1009939385
C   C35       1.0  0.73590  0.10310  0.44440  1.0000 0.1009939385
C   C36       1.0  0.10310  0.73590  0.05560  1.0000 0.1009939385
C   C37       1.0  0.35250  0.88730  0.53010  1.0000 -0.1837792049
C   C38       1.0  0.88730  0.35250  0.96990  1.0000 -0.1837792049
C   C39       1.0  0.64750  0.11270  0.46990  1.0000 -0.1837792049
C   C40       1.0  0.11270  0.64750  0.03010  1.0000 -0.1837792049
C   C41       1.0  0.47350  0.89830  0.54780  1.0000 -0.0944455157
C   C42       1.0  0.89830  0.47350  0.95220  1.0000 -0.095444497
C   C43       1.0  0.52650  0.10170  0.45220  1.0000 -0.0944455157
C   C44       1.0  0.10170  0.52650  0.04780  1.0000 -0.0944455157
C   C45       1.0  0.50230  0.92390  0.58800  1.0000 -0.029658795
C   C46       1.0  0.92390  0.50230  0.91200  1.0000 -0.029658795
C   C47       1.0  0.49770  0.07610  0.41200  1.0000 -0.029658795
C   C48       1.0  0.07610  0.49770  0.08800  1.0000 -0.029658795
C   C49       1.0  0.41150  0.93250  0.61190  1.0000 -0.1395353789
C   C50       1.0  0.93250  0.41150  0.88810  1.0000 -0.1395353789
C   C51       1.0  0.58850  0.06750  0.38810  1.0000 -0.1395353789
C   C52       1.0  0.06750  0.58850  0.11190  1.0000 -0.1395353789
C   C53       1.0  0.63630  0.93310  0.60510  1.0000 0.5898276975
C   C54       1.0  0.93310  0.63630  0.89490  1.0000 0.5898276975
C   C55       1.0  0.36370  0.06690  0.39490  1.0000 0.5898276975
C   C56       1.0  0.06690  0.36370  0.10510  1.0000 0.5898276975
C   C57       1.0  0.88660  0.27980  0.60860  1.0000 0.1300222536
C   C58       1.0  0.27980  0.88660  0.89140  1.0000 0.1300222536
C   C59       1.0  0.11340  0.72020  0.39140  1.0000 0.1300222536
C   C60       1.0  0.72020  0.11340  0.10860  1.0000 0.1300222536
C   C61       1.0  0.91130  0.30910  0.56840  1.0000 0.1079464459
C   C62       1.0  0.30910  0.91130  0.93160  1.0000 0.1079464459
C   C63       1.0  0.08870  0.69090  0.43160  1.0000 0.1079464459
C   C64       1.0  0.69090  0.08870  0.06840  1.0000 0.1079464459
C   C65       1.0  0.87890  0.49150  0.61590  1.0000 -0.1123849901
C   C66       1.0  0.49150  0.87890  0.88410  1.0000 -0.1123849901
C   C67       1.0  0.12110  0.50850  0.38410  1.0000 -0.1123849901
C   C68       1.0  0.50850  0.12110  0.11590  1.0000 -0.1123849901
C   C69       1.0  0.89990  0.51610  0.57320  1.0000 -0.0097828969
C   C70       1.0  0.51610  0.89990  0.92680  1.0000 -0.0097828969
C   C71       1.0  0.10010  0.48390  0.42680  1.0000 -0.0097828969
C   C72       1.0  0.48390  0.10010  0.07320  1.0000 -0.0097828969
C   C73       1.0  0.92060  0.42440  0.55080  1.0000 -0.1619705582
C   C74       1.0  0.42440  0.92060  0.94920  1.0000 -0.1619705582
C   C75       1.0  0.07940  0.57560  0.44920  1.0000 -0.1653962175
C   C76       1.0  0.57560  0.07940  0.05080  1.0000 -0.1653962175
C   C77       1.0  0.87670  0.37610  0.63360  1.0000 -0.1619705582
C   C78       1.0  0.37610  0.87670  0.86640  1.0000 -0.1619705582
C   C79       1.0  0.12330  0.62390  0.36640  1.0000 -0.1619705582
C   C80       1.0  0.62390  0.12330  0.13360  1.0000 -0.1619705582
C   C81       1.0  0.90670  0.64930  0.55570  1.0000 0.5898276975
C   C82       1.0  0.64930  0.90670  0.94430  1.0000 0.5898276975
C   C83       1.0  0.09330  0.35070  0.44430  1.0000 0.5898276975
C   C84       1.0  0.35070  0.09330  0.05570  1.0000 0.5898276975
N   N1        1.0  0.78910  0.04790  0.72000  1.0000 -0.2330283972
N   N2        1.0  0.04790  0.78910  0.78000  1.0000 -0.2330283972
N   N3        1.0  0.21090  0.95210  0.28000  1.0000 -0.2330283972
N   N4        1.0  0.95210  0.21090  0.22000  1.0000 -0.2330283972
N   N5        1.0  0.87490  0.06370  0.75050  1.0000 -0.0097828969
N   N6        1.0  0.06370  0.87490  0.74950  1.0000 -0.0097828969
N   N7        1.0  0.12510  0.93630  0.24950  1.0000 -0.0097828969
N   N8        1.0  0.93630  0.12510  0.25050  1.0000 -0.0097828969
N   N9        1.0  0.82680  0.07760  0.78460  1.0000 -0.2330283972
N   N10       1.0  0.07760  0.82680  0.71540  1.0000 -0.2330283972
N   N11       1.0  0.17320  0.92240  0.21540  1.0000 -0.2330283972
N   N12       1.0  0.92240  0.17320  0.28460  1.0000 -0.2330283972
N   N13       1.0  0.17670  0.92130  0.61250  1.0000 -0.2474078278
N   N14       1.0  0.92130  0.17670  0.88750  1.0000 -0.2474078278
N   N15       1.0  0.82330  0.07870  0.38750  1.0000 -0.2474078278
N   N16       1.0  0.07870  0.82330  0.11250  1.0000 -0.2474078278
N   N17       1.0  0.09080  0.90200  0.58160  1.0000 -0.029658795
N   N18       1.0  0.90200  0.09080  0.91840  1.0000 -0.029658795
N   N19       1.0  0.90920  0.09800  0.41840  1.0000 -0.029658795
N   N20       1.0  0.09800  0.90920  0.08160  1.0000 -0.029658795
N   N21       1.0  0.13470  0.88230  0.54660  1.0000 -0.2591256091
N   N22       1.0  0.88230  0.13470  0.95340  1.0000 -0.2591256091
N   N23       1.0  0.86530  0.11770  0.45340  1.0000 -0.2591256091
N   N24       1.0  0.11770  0.86530  0.04660  1.0000 -0.2591256091
N   N25       1.0  0.88410  0.15890  0.61880  1.0000 -0.2370656694
N   N26       1.0  0.15890  0.88410  0.88120  1.0000 -0.2370656694
N   N27       1.0  0.11590  0.84110  0.38120  1.0000 -0.2370656694
N   N28       1.0  0.84110  0.11590  0.11880  1.0000 -0.2370656694
N   N29       1.0  0.90860  0.11200  0.58500  1.0000 -0.029658795
N   N30       1.0  0.11200  0.90860  0.91500  1.0000 -0.029658795
N   N31       1.0  0.09140  0.88800  0.41500  1.0000 -0.029658795
N   N32       1.0  0.88800  0.09140  0.08500  1.0000 -0.029658795
N   N33       1.0  0.92220  0.19560  0.55350  1.0000 -0.2330283972
N   N34       1.0  0.19560  0.92220  0.94650  1.0000 -0.2330283972
N   N35       1.0  0.07780  0.80440  0.44650  1.0000 -0.2330283972
N   N36       1.0  0.80440  0.07780  0.05350  1.0000 -0.2330283972
O   O1        1.0  0.03570  0.08310  0.68830  1.0000 -0.8415113504
O   O2        1.0  0.08310  0.03570  0.81170  1.0000 -0.8415113504
O   O3        1.0  0.96430  0.91690  0.31170  1.0000 -0.8415113504
O   O4        1.0  0.91690  0.96430  0.18830  1.0000 -0.8415113504
O   O5        1.0  0.92830  0.89910  0.64440  1.0000 -0.8488628755
O   O6        1.0  0.89910  0.92830  0.85560  1.0000 -0.8488628755
O   O7        1.0  0.07170  0.10090  0.35560  1.0000 -0.8488628755
O   O8        1.0  0.10090  0.07170  0.14440  1.0000 -0.8488628755
O   O9        1.0  0.90190  0.96050  0.52240  1.0000 -0.8415113504
O   O10       1.0  0.96050  0.90190  0.97760  1.0000 -0.8415113504
O   O11       1.0  0.09810  0.03950  0.47760  1.0000 -0.8415113504
O   O12       1.0  0.03950  0.09810  0.02240  1.0000 -0.8415113504
O   O13       1.0  0.29990  0.00730  0.69200  1.0000 -0.5665017555
O   O14       1.0  0.00730  0.29990  0.80800  1.0000 -0.5665017555
O   O15       1.0  0.70010  0.99270  0.30800  1.0000 -0.5665017555
O   O16       1.0  0.99270  0.70010  0.19200  1.0000 -0.5665017555
O   O17       1.0  0.25950  0.08810  0.74800  1.0000 -0.5522292644
O   O18       1.0  0.08810  0.25950  0.75200  1.0000 -0.5522292644
O   O19       1.0  0.74050  0.91190  0.25200  1.0000 -0.5522292644
O   O20       1.0  0.91190  0.74050  0.24800  1.0000 -0.5522292644
O   O21       1.0  0.66380  0.97020  0.63970  1.0000 -0.5522292644
O   O22       1.0  0.97020  0.66380  0.86030  1.0000 -0.5522292644
O   O23       1.0  0.33620  0.02980  0.36030  1.0000 -0.5522292644
O   O24       1.0  0.02980  0.33620  0.13970  1.0000 -0.5522292644
O   O25       1.0  0.70770  0.90430  0.58170  1.0000 -0.5405372868
O   O26       1.0  0.90430  0.70770  0.91830  1.0000 -0.5405372868
O   O27       1.0  0.29230  0.09570  0.41830  1.0000 -0.5405372868
O   O28       1.0  0.09570  0.29230  0.08170  1.0000 -0.5405372868
O   O29       1.0  0.94690  0.67790  0.52150  1.0000 -0.5522292644
O   O30       1.0  0.67790  0.94690  0.97850  1.0000 -0.5522292644
O   O31       1.0  0.05310  0.32210  0.47850  1.0000 -0.5522292644
O   O32       1.0  0.32210  0.05310  0.02150  1.0000 -0.5522292644
O   O33       1.0  0.86510  0.72050  0.57730  1.0000 -0.5592224936
O   O34       1.0  0.72050  0.86510  0.92270  1.0000 -0.5592224936
O   O35       1.0  0.13490  0.27950  0.42270  1.0000 -0.5592224936
O   O36       1.0  0.27950  0.13490  0.07730  1.0000 -0.5592224936
