# DDEC6 charges by PACMAN v1.1 (https://github.com/mtap-research/PACMAN-charge/)
data_2016[Cu][nbo]3[ASR]8
_chemical_formula_sum              "Cu6 H78 C126 O30"
_cell_length_a       21.6588
_cell_length_b       21.6588
_cell_length_c       21.6588
_cell_angle_alpha    106.919
_cell_angle_beta     106.919
_cell_angle_gamma    106.919

_symmetry_space_group_name_H-M    "P 1"
_symmetry_Int_Tables_number       1

loop_
  _symmetry_equiv_pos_as_xyz
  'x, y, z'

loop_
  _atom_site_type_symbol
  _atom_site_label
  _atom_site_symmetry_multiplicity
  _atom_site_fract_x
  _atom_site_fract_y
  _atom_site_fract_z
  _atom_site_occupancy
  _atom_site_charge
Cu  Cu1       1.0  0.43232  0.95926  0.95926  1.0000 0.8614810608
Cu  Cu2       1.0  0.95926  0.95926  0.43232  1.0000 0.8614810608
Cu  Cu3       1.0  0.95926  0.43232  0.95926  1.0000 0.8614810608
Cu  Cu4       1.0  0.04074  0.56768  0.04074  1.0000 0.8614810608
Cu  Cu5       1.0  0.04074  0.04074  0.56768  1.0000 0.8614810608
Cu  Cu6       1.0  0.56768  0.04074  0.04074  1.0000 0.8614810608
H   H1        1.0  0.64050  0.06220  0.87920  1.0000 0.13007441
H   H2        1.0  0.06220  0.87920  0.64050  1.0000 0.13007441
H   H3        1.0  0.87920  0.64050  0.06220  1.0000 0.13007441
H   H4        1.0  0.93780  0.35950  0.12080  1.0000 0.13007441
H   H5        1.0  0.12080  0.93780  0.35950  1.0000 0.13007441
H   H6        1.0  0.35950  0.12080  0.93780  1.0000 0.13007441
H   H7        1.0  0.35950  0.93780  0.12080  1.0000 0.13007441
H   H8        1.0  0.93780  0.12080  0.35950  1.0000 0.13007441
H   H9        1.0  0.12080  0.35950  0.93780  1.0000 0.13007441
H   H10       1.0  0.06220  0.64050  0.87920  1.0000 0.13007441
H   H11       1.0  0.87920  0.06220  0.64050  1.0000 0.13007441
H   H12       1.0  0.64050  0.87920  0.06220  1.0000 0.13007441
H   H13       1.0  0.66110  0.05830  0.77970  1.0000 0.1218009765
H   H14       1.0  0.05830  0.77970  0.66110  1.0000 0.1218009765
H   H15       1.0  0.77970  0.66110  0.05830  1.0000 0.1218009765
H   H16       1.0  0.94170  0.33890  0.22030  1.0000 0.1218009765
H   H17       1.0  0.22030  0.94170  0.33890  1.0000 0.1218009765
H   H18       1.0  0.33890  0.22030  0.94170  1.0000 0.1218009765
H   H19       1.0  0.33890  0.94170  0.22030  1.0000 0.1218009765
H   H20       1.0  0.94170  0.22030  0.33890  1.0000 0.1218009765
H   H21       1.0  0.22030  0.33890  0.94170  1.0000 0.1218009765
H   H22       1.0  0.05830  0.66110  0.77970  1.0000 0.1218009765
H   H23       1.0  0.77970  0.05830  0.66110  1.0000 0.1218009765
H   H24       1.0  0.66110  0.77970  0.05830  1.0000 0.1218009765
H   H25       1.0  0.45850  0.92380  0.65630  1.0000 0.1121859641
H   H26       1.0  0.92380  0.65630  0.45850  1.0000 0.1121859641
H   H27       1.0  0.65630  0.45850  0.92380  1.0000 0.1121859641
H   H28       1.0  0.07620  0.54150  0.34370  1.0000 0.1121859641
H   H29       1.0  0.34370  0.07620  0.54150  1.0000 0.1121859641
H   H30       1.0  0.54150  0.34370  0.07620  1.0000 0.1121859641
H   H31       1.0  0.54150  0.07620  0.34370  1.0000 0.1218009765
H   H32       1.0  0.07620  0.34370  0.54150  1.0000 0.1121859641
H   H33       1.0  0.34370  0.54150  0.07620  1.0000 0.1121859641
H   H34       1.0  0.92380  0.45850  0.65630  1.0000 0.1121859641
H   H35       1.0  0.65630  0.92380  0.45850  1.0000 0.1121859641
H   H36       1.0  0.45850  0.65630  0.92380  1.0000 0.1121859641
H   H37       1.0  0.43750  0.92700  0.75600  1.0000 0.13007441
H   H38       1.0  0.92700  0.75600  0.43750  1.0000 0.13007441
H   H39       1.0  0.75600  0.43750  0.92700  1.0000 0.13007441
H   H40       1.0  0.07300  0.56250  0.24400  1.0000 0.13007441
H   H41       1.0  0.24400  0.07300  0.56250  1.0000 0.13007441
H   H42       1.0  0.56250  0.24400  0.07300  1.0000 0.13007441
H   H43       1.0  0.56250  0.07300  0.24400  1.0000 0.13007441
H   H44       1.0  0.07300  0.24400  0.56250  1.0000 0.13007441
H   H45       1.0  0.24400  0.56250  0.07300  1.0000 0.13007441
H   H46       1.0  0.92700  0.43750  0.75600  1.0000 0.13007441
H   H47       1.0  0.75600  0.92700  0.43750  1.0000 0.13007441
H   H48       1.0  0.43750  0.75600  0.92700  1.0000 0.13007441
H   H49       1.0  0.48110  0.99940  0.59680  1.0000 0.1121859641
H   H50       1.0  0.99940  0.59680  0.48110  1.0000 0.1121859641
H   H51       1.0  0.59680  0.48110  0.99940  1.0000 0.1121859641
H   H52       1.0  0.00060  0.51890  0.40320  1.0000 0.1121859641
H   H53       1.0  0.40320  0.00060  0.51890  1.0000 0.1121859641
H   H54       1.0  0.51890  0.40320  0.00060  1.0000 0.1121859641
H   H55       1.0  0.51890  0.00060  0.40320  1.0000 0.1121859641
H   H56       1.0  0.00060  0.40320  0.51890  1.0000 0.1121859641
H   H57       1.0  0.40320  0.51890  0.00060  1.0000 0.1121859641
H   H58       1.0  0.99940  0.48110  0.59680  1.0000 0.1121859641
H   H59       1.0  0.59680  0.99940  0.48110  1.0000 0.1121859641
H   H60       1.0  0.48110  0.59680  0.99940  1.0000 0.1121859641
H   H61       1.0  0.71935  0.92390  0.71935  1.0000 0.1218009765
H   H62       1.0  0.92390  0.71935  0.71935  1.0000 0.1218009765
H   H63       1.0  0.71935  0.71935  0.92390  1.0000 0.1218009765
H   H64       1.0  0.07610  0.28065  0.28065  1.0000 0.1218009765
H   H65       1.0  0.28065  0.07610  0.28065  1.0000 0.1218009765
H   H66       1.0  0.28065  0.28065  0.07610  1.0000 0.1218009765
H   H67       1.0  0.63510  0.89430  0.68110  1.0000 0.1121859641
H   H68       1.0  0.89430  0.68110  0.63510  1.0000 0.1121859641
H   H69       1.0  0.68110  0.63510  0.89430  1.0000 0.1121859641
H   H70       1.0  0.10570  0.36490  0.31890  1.0000 0.1121859641
H   H71       1.0  0.31890  0.10570  0.36490  1.0000 0.1121859641
H   H72       1.0  0.36490  0.31890  0.10570  1.0000 0.1121859641
H   H73       1.0  0.36490  0.10570  0.31890  1.0000 0.1121859641
H   H74       1.0  0.10570  0.31890  0.36490  1.0000 0.1121859641
H   H75       1.0  0.31890  0.36490  0.10570  1.0000 0.1121859641
H   H76       1.0  0.89430  0.63510  0.68110  1.0000 0.1121859641
H   H77       1.0  0.68110  0.89430  0.63510  1.0000 0.1121859641
H   H78       1.0  0.63510  0.68110  0.89430  1.0000 0.1121859641
C   C1        1.0  0.52368  0.99489  0.89209  1.0000 0.5801471425
C   C2        1.0  0.99489  0.89209  0.52368  1.0000 0.5801471425
C   C3        1.0  0.89209  0.52368  0.99489  1.0000 0.5801471425
C   C4        1.0  0.00511  0.47632  0.10791  1.0000 0.5801471425
C   C5        1.0  0.10791  0.00511  0.47632  1.0000 0.5801471425
C   C6        1.0  0.47632  0.10791  0.00511  1.0000 0.5801471425
C   C7        1.0  0.47632  0.00511  0.10791  1.0000 0.5801471425
C   C8        1.0  0.00511  0.10791  0.47632  1.0000 0.5801471425
C   C9        1.0  0.10791  0.47632  0.00511  1.0000 0.5801471425
C   C10       1.0  0.99489  0.52368  0.89209  1.0000 0.5801471425
C   C11       1.0  0.89209  0.99489  0.52368  1.0000 0.5801471425
C   C12       1.0  0.52368  0.89209  0.99489  1.0000 0.5801471425
C   C13       1.0  0.53701  0.99274  0.82706  1.0000 -0.0278932931
C   C14       1.0  0.99274  0.82706  0.53701  1.0000 -0.0278932931
C   C15       1.0  0.82706  0.53701  0.99274  1.0000 -0.0278932931
C   C16       1.0  0.00726  0.46299  0.17294  1.0000 -0.0278932931
C   C17       1.0  0.17294  0.00726  0.46299  1.0000 -0.0278932931
C   C18       1.0  0.46299  0.17294  0.00726  1.0000 -0.0278932931
C   C19       1.0  0.46299  0.00726  0.17294  1.0000 -0.0278932931
C   C20       1.0  0.00726  0.17294  0.46299  1.0000 -0.0278932931
C   C21       1.0  0.17294  0.46299  0.00726  1.0000 -0.0278932931
C   C22       1.0  0.99274  0.53701  0.82706  1.0000 -0.0278932931
C   C23       1.0  0.82706  0.99274  0.53701  1.0000 -0.0278932931
C   C24       1.0  0.53701  0.82706  0.99274  1.0000 -0.0278932931
C   C25       1.0  0.60317  0.03318  0.83359  1.0000 -0.0918018145
C   C26       1.0  0.03318  0.83359  0.60317  1.0000 -0.0918018145
C   C27       1.0  0.83359  0.60317  0.03318  1.0000 -0.0918018145
C   C28       1.0  0.96682  0.39683  0.16641  1.0000 -0.0918018145
C   C29       1.0  0.16641  0.96682  0.39683  1.0000 -0.0918018145
C   C30       1.0  0.39683  0.16641  0.96682  1.0000 -0.0918018145
C   C31       1.0  0.39683  0.96682  0.16641  1.0000 -0.0918018145
C   C32       1.0  0.96682  0.16641  0.39683  1.0000 -0.0918018145
C   C33       1.0  0.16641  0.39683  0.96682  1.0000 -0.0918018145
C   C34       1.0  0.03318  0.60317  0.83359  1.0000 -0.0918018145
C   C35       1.0  0.83359  0.03318  0.60317  1.0000 -0.0918018145
C   C36       1.0  0.60317  0.83359  0.03318  1.0000 -0.0918018145
C   C37       1.0  0.61505  0.03145  0.77436  1.0000 -0.1532574194
C   C38       1.0  0.03145  0.77436  0.61505  1.0000 -0.1532574194
C   C39       1.0  0.77436  0.61505  0.03145  1.0000 -0.1532574194
C   C40       1.0  0.96855  0.38495  0.22564  1.0000 -0.1532574194
C   C41       1.0  0.22564  0.96855  0.38495  1.0000 -0.1532574194
C   C42       1.0  0.38495  0.22564  0.96855  1.0000 -0.1532574194
C   C43       1.0  0.38495  0.96855  0.22564  1.0000 -0.1532574194
C   C44       1.0  0.96855  0.22564  0.38495  1.0000 -0.1532574194
C   C45       1.0  0.22564  0.38495  0.96855  1.0000 -0.1532574194
C   C46       1.0  0.03145  0.61505  0.77436  1.0000 -0.1532574194
C   C47       1.0  0.77436  0.03145  0.61505  1.0000 -0.1532574194
C   C48       1.0  0.61505  0.77436  0.03145  1.0000 -0.1532574194
C   C49       1.0  0.56179  0.99176  0.70744  1.0000 0.0844852015
C   C50       1.0  0.99176  0.70744  0.56179  1.0000 0.0844852015
C   C51       1.0  0.70744  0.56179  0.99176  1.0000 0.0844852015
C   C52       1.0  0.00824  0.43821  0.29256  1.0000 0.0844852015
C   C53       1.0  0.29256  0.00824  0.43821  1.0000 0.0844852015
C   C54       1.0  0.43821  0.29256  0.00824  1.0000 0.0844852015
C   C55       1.0  0.43821  0.00824  0.29256  1.0000 0.0844852015
C   C56       1.0  0.00824  0.29256  0.43821  1.0000 0.0844852015
C   C57       1.0  0.29256  0.43821  0.00824  1.0000 0.0844852015
C   C58       1.0  0.99176  0.56179  0.70744  1.0000 0.0854268126
C   C59       1.0  0.70744  0.99176  0.56179  1.0000 0.0844852015
C   C60       1.0  0.56179  0.70744  0.99176  1.0000 0.0844852015
C   C61       1.0  0.49604  0.95235  0.70184  1.0000 -0.1639420177
C   C62       1.0  0.95235  0.70184  0.49604  1.0000 -0.1639420177
C   C63       1.0  0.70184  0.49604  0.95235  1.0000 -0.1639420177
C   C64       1.0  0.04765  0.50396  0.29816  1.0000 -0.1639420177
C   C65       1.0  0.29816  0.04765  0.50396  1.0000 -0.1639420177
C   C66       1.0  0.50396  0.29816  0.04765  1.0000 -0.1639420177
C   C67       1.0  0.50396  0.04765  0.29816  1.0000 -0.1639420177
C   C68       1.0  0.04765  0.29816  0.50396  1.0000 -0.1639420177
C   C69       1.0  0.29816  0.50396  0.04765  1.0000 -0.1639420177
C   C70       1.0  0.95235  0.49604  0.70184  1.0000 -0.1639420177
C   C71       1.0  0.70184  0.95235  0.49604  1.0000 -0.1639420177
C   C72       1.0  0.49604  0.70184  0.95235  1.0000 -0.1639420177
C   C73       1.0  0.48359  0.95357  0.76116  1.0000 -0.0918018145
C   C74       1.0  0.95357  0.76116  0.48359  1.0000 -0.0918018145
C   C75       1.0  0.76116  0.48359  0.95357  1.0000 -0.0918018145
C   C76       1.0  0.04643  0.51641  0.23884  1.0000 -0.0918018145
C   C77       1.0  0.23884  0.04643  0.51641  1.0000 -0.0918018145
C   C78       1.0  0.51641  0.23884  0.04643  1.0000 -0.0918018145
C   C79       1.0  0.51641  0.04643  0.23884  1.0000 -0.0918018145
C   C80       1.0  0.04643  0.23884  0.51641  1.0000 -0.0918018145
C   C81       1.0  0.23884  0.51641  0.04643  1.0000 -0.0918018145
C   C82       1.0  0.95357  0.48359  0.76116  1.0000 -0.0918018145
C   C83       1.0  0.76116  0.95357  0.48359  1.0000 -0.0918018145
C   C84       1.0  0.48359  0.76116  0.95357  1.0000 -0.0918018145
C   C85       1.0  0.57266  0.99189  0.64247  1.0000 -0.0278932931
C   C86       1.0  0.99189  0.64247  0.57266  1.0000 -0.0278932931
C   C87       1.0  0.64247  0.57266  0.99189  1.0000 -0.0278932931
C   C88       1.0  0.00811  0.42734  0.35753  1.0000 -0.0278932931
C   C89       1.0  0.35753  0.00811  0.42734  1.0000 -0.0278932931
C   C90       1.0  0.42734  0.35753  0.00811  1.0000 -0.0278932931
C   C91       1.0  0.42734  0.00811  0.35753  1.0000 -0.0278932931
C   C92       1.0  0.00811  0.35753  0.42734  1.0000 -0.0278932931
C   C93       1.0  0.35753  0.42734  0.00811  1.0000 -0.0278932931
C   C94       1.0  0.99189  0.57266  0.64247  1.0000 -0.0278932931
C   C95       1.0  0.64247  0.99189  0.57266  1.0000 -0.0278932931
C   C96       1.0  0.57266  0.64247  0.99189  1.0000 -0.0278932931
C   C97       1.0  0.52169  0.99656  0.58989  1.0000 -0.2027794269
C   C98       1.0  0.99656  0.58989  0.52169  1.0000 -0.2027794269
C   C99       1.0  0.58989  0.52169  0.99656  1.0000 -0.2027794269
C   C100      1.0  0.00344  0.47831  0.41011  1.0000 -0.2027794269
C   C101      1.0  0.41011  0.00344  0.47831  1.0000 -0.2027794269
C   C102      1.0  0.47831  0.41011  0.00344  1.0000 -0.2027794269
C   C103      1.0  0.47831  0.00344  0.41011  1.0000 -0.2027794269
C   C104      1.0  0.00344  0.41011  0.47831  1.0000 -0.2027794269
C   C105      1.0  0.41011  0.47831  0.00344  1.0000 -0.2027794269
C   C106      1.0  0.99656  0.52169  0.58989  1.0000 -0.2027794269
C   C107      1.0  0.58989  0.99656  0.52169  1.0000 -0.2027794269
C   C108      1.0  0.52169  0.58989  0.99656  1.0000 -0.2027794269
C   C109      1.0  0.52717  0.99725  0.52717  1.0000 0.0703078163
C   C110      1.0  0.99725  0.52717  0.52717  1.0000 0.0703078163
C   C111      1.0  0.52717  0.52717  0.99725  1.0000 0.0703078163
C   C112      1.0  0.00275  0.47283  0.47283  1.0000 0.0703078163
C   C113      1.0  0.47283  0.00275  0.47283  1.0000 0.0703078163
C   C114      1.0  0.47283  0.47283  0.00275  1.0000 0.0703078163
C   C115      1.0  0.63369  0.99004  0.63369  1.0000 0.1469661795
C   C116      1.0  0.99004  0.63369  0.63369  1.0000 0.1469661795
C   C117      1.0  0.63369  0.63369  0.99004  1.0000 0.1469661795
C   C118      1.0  0.00996  0.36631  0.36631  1.0000 0.1469661795
C   C119      1.0  0.36631  0.00996  0.36631  1.0000 0.1469661795
C   C120      1.0  0.36631  0.36631  0.00996  1.0000 0.1469661795
C   C121      1.0  0.67992  0.91997  0.67992  1.0000 -0.211836072
C   C122      1.0  0.91997  0.67992  0.67992  1.0000 -0.211836072
C   C123      1.0  0.67992  0.67992  0.91997  1.0000 -0.211836072
C   C124      1.0  0.08003  0.32009  0.32009  1.0000 -0.211836072
C   C125      1.0  0.32009  0.08003  0.32009  1.0000 -0.211836072
C   C126      1.0  0.32009  0.32009  0.08003  1.0000 -0.211836072
O   O1        1.0  0.46078  0.96068  0.88147  1.0000 -0.5180129555
O   O2        1.0  0.96068  0.88147  0.46078  1.0000 -0.5180129555
O   O3        1.0  0.88147  0.46078  0.96068  1.0000 -0.5180129555
O   O4        1.0  0.03932  0.53922  0.11853  1.0000 -0.5180129555
O   O5        1.0  0.11853  0.03932  0.53922  1.0000 -0.5180129555
O   O6        1.0  0.53922  0.11853  0.03932  1.0000 -0.5180129555
O   O7        1.0  0.53922  0.03932  0.11853  1.0000 -0.5180129555
O   O8        1.0  0.03932  0.11853  0.53922  1.0000 -0.5180129555
O   O9        1.0  0.11853  0.53922  0.03932  1.0000 -0.5180129555
O   O10       1.0  0.96068  0.46078  0.88147  1.0000 -0.5180129555
O   O11       1.0  0.88147  0.96068  0.46078  1.0000 -0.5180129555
O   O12       1.0  0.46078  0.88147  0.96068  1.0000 -0.5180129555
O   O13       1.0  0.57594  0.03056  0.95110  1.0000 -0.5180129555
O   O14       1.0  0.03056  0.95110  0.57594  1.0000 -0.5180129555
O   O15       1.0  0.95110  0.57594  0.03056  1.0000 -0.5180129555
O   O16       1.0  0.96944  0.42406  0.04890  1.0000 -0.5180129555
O   O17       1.0  0.04890  0.96944  0.42406  1.0000 -0.5180129555
O   O18       1.0  0.42406  0.04890  0.96944  1.0000 -0.5180129555
O   O19       1.0  0.42406  0.96944  0.04890  1.0000 -0.5180129555
O   O20       1.0  0.96944  0.04890  0.42406  1.0000 -0.5180129555
O   O21       1.0  0.04890  0.42406  0.96944  1.0000 -0.5180129555
O   O22       1.0  0.03056  0.57594  0.95110  1.0000 -0.5180129555
O   O23       1.0  0.95110  0.03056  0.57594  1.0000 -0.5180129555
O   O24       1.0  0.57594  0.95110  0.03056  1.0000 -0.5180129555
O   O25       1.0  0.68564  0.98611  0.68563  1.0000 -0.1639420177
O   O26       1.0  0.98611  0.68563  0.68563  1.0000 -0.1663749762
O   O27       1.0  0.68563  0.68564  0.98611  1.0000 -0.1663749762
O   O28       1.0  0.01389  0.31437  0.31437  1.0000 -0.1663749762
O   O29       1.0  0.31437  0.01389  0.31437  1.0000 -0.1663749762
O   O30       1.0  0.31437  0.31437  0.01389  1.0000 -0.1663749762
