# DDEC6 charges by PACMAN v1.1 (https://github.com/mtap-research/PACMAN-charge/)
data_2016[FeAu][fsc]3[ASR]1
_chemical_formula_sum              "Fe4 H40 Au8 C72 N32"
_cell_length_a       10.1438
_cell_length_b       10.1438
_cell_length_c       30.4429
_cell_angle_alpha    85.724
_cell_angle_beta     94.276
_cell_angle_gamma    89.0458

_symmetry_space_group_name_H-M    "P 1"
_symmetry_Int_Tables_number       1

loop_
  _symmetry_equiv_pos_as_xyz
  'x, y, z'

loop_
  _atom_site_type_symbol
  _atom_site_label
  _atom_site_symmetry_multiplicity
  _atom_site_fract_x
  _atom_site_fract_y
  _atom_site_fract_z
  _atom_site_occupancy
  _atom_site_charge
Fe  Fe1       1.0  0.78056  0.17946  0.54969  1.0000 0.5817000951
Fe  Fe2       1.0  0.17946  0.78056  0.95031  1.0000 0.5817000951
Fe  Fe3       1.0  0.21944  0.82054  0.45031  1.0000 0.5817000951
Fe  Fe4       1.0  0.82054  0.21944  0.04969  1.0000 0.5817000951
H   H1        1.0  0.64800  0.32160  0.61550  1.0000 0.1192872717
H   H2        1.0  0.32160  0.64800  0.88450  1.0000 0.1192872717
H   H3        1.0  0.35200  0.67840  0.38450  1.0000 0.1192872717
H   H4        1.0  0.67840  0.35200  0.11550  1.0000 0.1192872717
H   H5        1.0  0.65910  0.34230  0.69070  1.0000 0.1310706391
H   H6        1.0  0.34230  0.65910  0.80930  1.0000 0.1310706391
H   H7        1.0  0.34090  0.65770  0.30930  1.0000 0.1310706391
H   H8        1.0  0.65770  0.34090  0.19070  1.0000 0.1310706391
H   H9        1.0  0.93930  0.05130  0.70610  1.0000 0.1310706391
H   H10       1.0  0.05130  0.93930  0.79390  1.0000 0.1310706391
H   H11       1.0  0.06070  0.94870  0.29390  1.0000 0.1310706391
H   H12       1.0  0.94870  0.06070  0.20610  1.0000 0.1310706391
H   H13       1.0  0.92180  0.03880  0.63020  1.0000 0.1192872717
H   H14       1.0  0.03880  0.92180  0.86980  1.0000 0.1192872717
H   H15       1.0  0.07820  0.96120  0.36980  1.0000 0.1192872717
H   H16       1.0  0.96120  0.07820  0.13020  1.0000 0.1192872717
H   H17       1.0  0.76920  0.41540  0.75230  1.0000 0.1192872717
H   H18       1.0  0.41540  0.76920  0.74770  1.0000 0.1192872717
H   H19       1.0  0.23080  0.58460  0.24770  1.0000 0.1192872717
H   H20       1.0  0.58460  0.23080  0.25230  1.0000 0.1192872717
H   H21       1.0  0.79110  0.42770  0.82880  1.0000 0.1350495304
H   H22       1.0  0.42770  0.79110  0.67120  1.0000 0.1350495304
H   H23       1.0  0.20890  0.57230  0.17120  1.0000 0.1350495304
H   H24       1.0  0.57230  0.20890  0.32880  1.0000 0.1350495304
H   H25       1.0  0.75620  0.04520  0.90120  1.0000 0.1310706391
H   H26       1.0  0.04520  0.75620  0.59880  1.0000 0.1310706391
H   H27       1.0  0.24380  0.95480  0.09880  1.0000 0.1310706391
H   H28       1.0  0.95480  0.24380  0.40120  1.0000 0.1310706391
H   H29       1.0  0.74360  0.05040  0.97640  1.0000 0.1088363837
H   H30       1.0  0.05040  0.74360  0.52360  1.0000 0.1088363837
H   H31       1.0  0.25640  0.94960  0.02360  1.0000 0.1088363837
H   H32       1.0  0.94960  0.25640  0.47640  1.0000 0.1088363837
H   H33       1.0  0.91370  0.39530  0.97560  1.0000 0.1192872717
H   H34       1.0  0.39530  0.91370  0.52440  1.0000 0.1192872717
H   H35       1.0  0.08630  0.60470  0.02440  1.0000 0.1192872717
H   H36       1.0  0.60470  0.08630  0.47560  1.0000 0.1192872717
H   H37       1.0  0.91620  0.40640  0.89940  1.0000 0.1310706391
H   H38       1.0  0.40640  0.91620  0.60060  1.0000 0.1310706391
H   H39       1.0  0.08380  0.59360  0.10060  1.0000 0.1310706391
H   H40       1.0  0.59360  0.08380  0.39940  1.0000 0.1310706391
Au  Au1       1.0  0.78097  0.68131  0.54401  1.0000 -0.0423630217
Au  Au2       1.0  0.68132  0.78097  0.95599  1.0000 -0.0423630217
Au  Au3       1.0  0.21904  0.31868  0.45599  1.0000 -0.0458872941
Au  Au4       1.0  0.31868  0.21904  0.04401  1.0000 -0.0423630217
Au  Au5       1.0  0.28042  0.19250  0.55265  1.0000 -0.0276654222
Au  Au6       1.0  0.19250  0.28042  0.94735  1.0000 -0.0276654222
Au  Au7       1.0  0.71958  0.80750  0.44735  1.0000 -0.0276654222
Au  Au8       1.0  0.80750  0.71958  0.05265  1.0000 -0.0276654222
C   C1        1.0  0.47540  0.19320  0.54960  1.0000 0.0405183622
C   C2        1.0  0.19320  0.47540  0.95040  1.0000 0.0405183622
C   C3        1.0  0.52460  0.80680  0.45040  1.0000 0.0405183622
C   C4        1.0  0.80680  0.52460  0.04960  1.0000 0.0405183622
C   C5        1.0  0.77630  0.87430  0.55120  1.0000 0.0405183622
C   C6        1.0  0.87430  0.77630  0.94880  1.0000 0.0405183622
C   C7        1.0  0.22370  0.12570  0.44880  1.0000 0.0405183622
C   C8        1.0  0.12570  0.22370  0.05120  1.0000 0.0405183622
C   C9        1.0  0.08680  0.18220  0.55590  1.0000 0.0528346851
C   C10       1.0  0.18220  0.08680  0.94410  1.0000 0.0528346851
C   C11       1.0  0.91320  0.81780  0.44410  1.0000 0.0528346851
C   C12       1.0  0.81780  0.91320  0.05590  1.0000 0.0528346851
C   C13       1.0  0.78560  0.48620  0.54130  1.0000 0.0682244787
C   C14       1.0  0.48620  0.78560  0.95870  1.0000 0.0682244787
C   C15       1.0  0.21440  0.51380  0.45870  1.0000 0.0682244787
C   C16       1.0  0.51380  0.21440  0.04130  1.0000 0.0682244787
C   C17       1.0  0.70940  0.26720  0.63410  1.0000 0.0894527893
C   C18       1.0  0.26720  0.70940  0.86590  1.0000 0.0894527893
C   C19       1.0  0.29060  0.73280  0.36590  1.0000 0.0894527893
C   C20       1.0  0.73280  0.29060  0.13410  1.0000 0.0894527893
C   C21       1.0  0.71490  0.27970  0.67900  1.0000 -0.1884762597
C   C22       1.0  0.27970  0.71490  0.82100  1.0000 -0.1884762597
C   C23       1.0  0.28510  0.72030  0.32100  1.0000 -0.1884762597
C   C24       1.0  0.72030  0.28510  0.17900  1.0000 -0.1884762597
C   C25       1.0  0.80280  0.20000  0.70700  1.0000 0.0789233969
C   C26       1.0  0.20000  0.80280  0.79300  1.0000 0.0789233969
C   C27       1.0  0.19720  0.80000  0.29300  1.0000 0.0789233969
C   C28       1.0  0.80000  0.19720  0.20700  1.0000 0.0789233969
C   C29       1.0  0.87960  0.10900  0.68810  1.0000 -0.1687182933
C   C30       1.0  0.10900  0.87960  0.81190  1.0000 -0.1687182933
C   C31       1.0  0.12040  0.89100  0.31190  1.0000 -0.1687182933
C   C32       1.0  0.89100  0.12040  0.18810  1.0000 -0.1687182933
C   C33       1.0  0.86890  0.10230  0.64270  1.0000 0.0894527893
C   C34       1.0  0.10230  0.86890  0.85730  1.0000 0.0894527893
C   C35       1.0  0.13110  0.89770  0.35730  1.0000 0.0894527893
C   C36       1.0  0.89770  0.13110  0.14270  1.0000 0.0894527893
C   C37       1.0  0.81340  0.21600  0.75530  1.0000 0.1661006987
C   C38       1.0  0.21600  0.81340  0.74470  1.0000 0.1661006987
C   C39       1.0  0.18660  0.78400  0.24470  1.0000 0.1661006987
C   C40       1.0  0.78400  0.18660  0.25530  1.0000 0.1661006987
C   C41       1.0  0.79140  0.33920  0.77160  1.0000 -0.1583187704
C   C42       1.0  0.33920  0.79140  0.72840  1.0000 -0.1583187704
C   C43       1.0  0.20860  0.66080  0.22840  1.0000 -0.1583187704
C   C44       1.0  0.66080  0.20860  0.27160  1.0000 -0.1583187704
C   C45       1.0  0.80300  0.34600  0.81620  1.0000 -0.154222763
C   C46       1.0  0.34600  0.80300  0.68380  1.0000 -0.154222763
C   C47       1.0  0.19700  0.65400  0.18380  1.0000 -0.154222763
C   C48       1.0  0.65400  0.19700  0.31620  1.0000 -0.154222763
C   C49       1.0  0.83270  0.23030  0.84260  1.0000 0.1661006987
C   C50       1.0  0.23030  0.83270  0.65740  1.0000 0.1661006987
C   C51       1.0  0.16730  0.76970  0.15740  1.0000 0.1661006987
C   C52       1.0  0.76970  0.16730  0.34260  1.0000 0.1661006987
C   C53       1.0  0.83500  0.22740  0.89150  1.0000 0.0682244787
C   C54       1.0  0.22740  0.83500  0.60850  1.0000 0.0682244787
C   C55       1.0  0.16500  0.77260  0.10850  1.0000 0.0682244787
C   C56       1.0  0.77260  0.16500  0.39150  1.0000 0.0682244787
C   C57       1.0  0.78610  0.12030  0.91560  1.0000 -0.1583187704
C   C58       1.0  0.12030  0.78610  0.58440  1.0000 -0.1687182933
C   C59       1.0  0.21390  0.87970  0.08440  1.0000 -0.1687182933
C   C60       1.0  0.87970  0.21390  0.41560  1.0000 -0.1687182933
C   C61       1.0  0.78100  0.12320  0.96070  1.0000 0.0894527893
C   C62       1.0  0.12320  0.78100  0.53930  1.0000 0.0894527893
C   C63       1.0  0.21900  0.87680  0.03930  1.0000 0.0894527893
C   C64       1.0  0.87680  0.21900  0.46070  1.0000 0.0894527893
C   C65       1.0  0.87780  0.32440  0.96020  1.0000 0.0789233969
C   C66       1.0  0.32440  0.87780  0.53980  1.0000 0.0789233969
C   C67       1.0  0.12220  0.67560  0.03980  1.0000 0.0789233969
C   C68       1.0  0.67560  0.12220  0.46020  1.0000 0.0789233969
C   C69       1.0  0.88160  0.33100  0.91460  1.0000 -0.1884762597
C   C70       1.0  0.33100  0.88160  0.58540  1.0000 -0.1884762597
C   C71       1.0  0.11840  0.66900  0.08540  1.0000 -0.1884762597
C   C72       1.0  0.66900  0.11840  0.41460  1.0000 -0.1884762597
N   N1        1.0  0.58860  0.18820  0.54797  1.0000 -0.3087343935
N   N2        1.0  0.18820  0.58860  0.95203  1.0000 -0.3087343935
N   N3        1.0  0.41140  0.81180  0.45203  1.0000 -0.3087343935
N   N4        1.0  0.81180  0.41140  0.04797  1.0000 -0.3087343935
N   N5        1.0  0.77670  0.98730  0.55377  1.0000 -0.3002684031
N   N6        1.0  0.98730  0.77670  0.94623  1.0000 -0.3002684031
N   N7        1.0  0.22330  0.01270  0.44623  1.0000 -0.3002684031
N   N8        1.0  0.01270  0.22330  0.05377  1.0000 -0.3002684031
N   N9        1.0  0.97270  0.17510  0.55424  1.0000 -0.3002684031
N   N10       1.0  0.17510  0.97270  0.94576  1.0000 -0.3002684031
N   N11       1.0  0.02730  0.82490  0.44576  1.0000 -0.3002684031
N   N12       1.0  0.82490  0.02730  0.05424  1.0000 -0.3002684031
N   N13       1.0  0.78540  0.37260  0.54336  1.0000 -0.3002684031
N   N14       1.0  0.37260  0.78540  0.95664  1.0000 -0.3002684031
N   N15       1.0  0.21460  0.62740  0.45664  1.0000 -0.3002684031
N   N16       1.0  0.62740  0.21460  0.04336  1.0000 -0.3002684031
N   N17       1.0  0.78640  0.18240  0.61549  1.0000 -0.1406157242
N   N18       1.0  0.18240  0.78640  0.88451  1.0000 -0.1406157242
N   N19       1.0  0.21360  0.81760  0.38451  1.0000 -0.1406157242
N   N20       1.0  0.81760  0.21360  0.11549  1.0000 -0.1406157242
N   N21       1.0  0.85370  0.11410  0.82580  1.0000 -0.1406157242
N   N22       1.0  0.11410  0.85370  0.67420  1.0000 -0.1406157242
N   N23       1.0  0.14630  0.88590  0.17420  1.0000 -0.1406157242
N   N24       1.0  0.88590  0.14630  0.32580  1.0000 -0.1406157242
N   N25       1.0  0.84710  0.10850  0.78170  1.0000 -0.1406157242
N   N26       1.0  0.10850  0.84710  0.71830  1.0000 -0.1406157242
N   N27       1.0  0.15290  0.89150  0.21830  1.0000 -0.1406157242
N   N28       1.0  0.89150  0.15290  0.28170  1.0000 -0.1406157242
N   N29       1.0  0.82630  0.22350  0.98364  1.0000 -0.1291175325
N   N30       1.0  0.22350  0.82630  0.51636  1.0000 -0.1291175325
N   N31       1.0  0.17370  0.77650  0.01636  1.0000 -0.1291175325
N   N32       1.0  0.77650  0.17370  0.48364  1.0000 -0.1291175325
