# DDEC6 charges by PACMAN v1.1 (https://github.com/mtap-research/PACMAN-charge/)
data_2016[Cu][fsc]3[ASR]1
_chemical_formula_sum              "Cu6 H76 C116 S4 N8 O28"
_cell_length_a       18.5304
_cell_length_b       18.5304
_cell_length_c       21.117
_cell_angle_alpha    64.6876
_cell_angle_beta     115.312
_cell_angle_gamma    89.9257

_symmetry_space_group_name_H-M    "P 1"
_symmetry_Int_Tables_number       1

loop_
  _symmetry_equiv_pos_as_xyz
  'x, y, z'

loop_
  _atom_site_type_symbol
  _atom_site_label
  _atom_site_symmetry_multiplicity
  _atom_site_fract_x
  _atom_site_fract_y
  _atom_site_fract_z
  _atom_site_occupancy
  _atom_site_charge
Cu  Cu1       1.0  0.18055  0.25467  0.67175  1.0000 0.8595287721
Cu  Cu2       1.0  0.25467  0.18055  0.82825  1.0000 0.8595287721
Cu  Cu3       1.0  0.81945  0.74533  0.32825  1.0000 0.8595287721
Cu  Cu4       1.0  0.74533  0.81945  0.17175  1.0000 0.8595287721
Cu  Cu5       1.0  0.71791  0.71791  0.75000  1.0000 0.7066472988
Cu  Cu6       1.0  0.28209  0.28209  0.25000  1.0000 0.7066472988
H   H1        1.0  0.43860  0.99340  0.87800  1.0000 0.1330543938
H   H2        1.0  0.99340  0.43860  0.62200  1.0000 0.1330543938
H   H3        1.0  0.56140  0.00660  0.12200  1.0000 0.1330543938
H   H4        1.0  0.00660  0.56140  0.37800  1.0000 0.1330543938
H   H5        1.0  0.34360  0.12500  0.64150  1.0000 0.1375969905
H   H6        1.0  0.12500  0.34360  0.85850  1.0000 0.1375969905
H   H7        1.0  0.65640  0.87500  0.35850  1.0000 0.1375969905
H   H8        1.0  0.87500  0.65640  0.14150  1.0000 0.1375969905
H   H9        1.0  0.02290  0.90850  0.87180  1.0000 0.1193899985
H   H10       1.0  0.90850  0.02290  0.62820  1.0000 0.1193899985
H   H11       1.0  0.97710  0.09150  0.12820  1.0000 0.1193899985
H   H12       1.0  0.09150  0.97710  0.37180  1.0000 0.1193899985
H   H13       1.0  0.40340  0.53120  0.63010  1.0000 0.1193899985
H   H14       1.0  0.53120  0.40340  0.86990  1.0000 0.1193899985
H   H15       1.0  0.59660  0.46880  0.36990  1.0000 0.1193899985
H   H16       1.0  0.46880  0.59660  0.13010  1.0000 0.1193899985
H   H17       1.0  0.11420  0.99680  0.87220  1.0000 0.1330543938
H   H18       1.0  0.99680  0.11420  0.62780  1.0000 0.1330543938
H   H19       1.0  0.88580  0.00320  0.12780  1.0000 0.1330543938
H   H20       1.0  0.00320  0.88580  0.37220  1.0000 0.1330543938
H   H21       1.0  0.41480  0.02540  0.63740  1.0000 0.1115288208
H   H22       1.0  0.02540  0.41480  0.86260  1.0000 0.1115288208
H   H23       1.0  0.58520  0.97460  0.36260  1.0000 0.1115288208
H   H24       1.0  0.97460  0.58520  0.13740  1.0000 0.1115288208
H   H25       1.0  0.68200  0.98220  0.50100  1.0000 0.1193899985
H   H26       1.0  0.98220  0.68200  0.99900  1.0000 0.1193899985
H   H27       1.0  0.31800  0.01780  0.49900  1.0000 0.1193899985
H   H28       1.0  0.01780  0.31800  0.00100  1.0000 0.1193899985
H   H29       1.0  0.65280  0.11200  0.49010  1.0000 0.1115288208
H   H30       1.0  0.11200  0.65280  0.00990  1.0000 0.1115288208
H   H31       1.0  0.34720  0.88800  0.50990  1.0000 0.1115288208
H   H32       1.0  0.88800  0.34720  0.99010  1.0000 0.1115288208
H   H33       1.0  0.52660  0.14240  0.48850  1.0000 0.1193899985
H   H34       1.0  0.14240  0.52660  0.01150  1.0000 0.1193899985
H   H35       1.0  0.47340  0.85760  0.51150  1.0000 0.1193899985
H   H36       1.0  0.85760  0.47340  0.98850  1.0000 0.1193899985
H   H37       1.0  0.45040  0.64220  0.65880  1.0000 0.1330543938
H   H38       1.0  0.64220  0.45040  0.84120  1.0000 0.1330543938
H   H39       1.0  0.54960  0.35780  0.34120  1.0000 0.1330543938
H   H40       1.0  0.35780  0.54960  0.15880  1.0000 0.1330543938
H   H41       1.0  0.92880  0.85340  0.86730  1.0000 0.1375969905
H   H42       1.0  0.85340  0.92880  0.63270  1.0000 0.1375969905
H   H43       1.0  0.07120  0.14660  0.13270  1.0000 0.1375969905
H   H44       1.0  0.14660  0.07120  0.36730  1.0000 0.1375969905
H   H45       1.0  0.51920  0.89600  0.87900  1.0000 0.1193899985
H   H46       1.0  0.89600  0.51920  0.62100  1.0000 0.1193899985
H   H47       1.0  0.48080  0.10400  0.12100  1.0000 0.1193899985
H   H48       1.0  0.10400  0.48080  0.37900  1.0000 0.1193899985
H   H49       1.0  0.55190  0.79610  0.85620  1.0000 0.1330543938
H   H50       1.0  0.79610  0.55190  0.64380  1.0000 0.1330543938
H   H51       1.0  0.44810  0.20390  0.14380  1.0000 0.1330543938
H   H52       1.0  0.20390  0.44810  0.35620  1.0000 0.1330543938
H   H53       1.0  0.33470  0.42810  0.63540  1.0000 0.1375969905
H   H54       1.0  0.42810  0.33470  0.86460  1.0000 0.1375969905
H   H55       1.0  0.66530  0.57190  0.36460  1.0000 0.1375969905
H   H56       1.0  0.57190  0.66530  0.13540  1.0000 0.1375969905
H   H57       1.0  0.54320  0.72640  0.65920  1.0000 0.1193899985
H   H58       1.0  0.72640  0.54320  0.84080  1.0000 0.1193899985
H   H59       1.0  0.45680  0.27360  0.34080  1.0000 0.1193899985
H   H60       1.0  0.27360  0.45680  0.15920  1.0000 0.1193899985
H   H61       1.0  0.64070  0.71130  0.85220  1.0000 0.1193899985
H   H62       1.0  0.71130  0.64070  0.64780  1.0000 0.1193899985
H   H63       1.0  0.35930  0.28870  0.14780  1.0000 0.1193899985
H   H64       1.0  0.28870  0.35930  0.35220  1.0000 0.1193899985
H   H65       1.0  0.55290  0.98590  0.66520  1.0000 0.1375969905
H   H66       1.0  0.98590  0.55290  0.83480  1.0000 0.1375969905
H   H67       1.0  0.44710  0.01410  0.33480  1.0000 0.1375969905
H   H68       1.0  0.01410  0.44710  0.16520  1.0000 0.1375969905
H   H69       1.0  0.64040  0.89280  0.66630  1.0000 0.1000156258
H   H70       1.0  0.89280  0.64040  0.83370  1.0000 0.1000156258
H   H71       1.0  0.35960  0.10720  0.33370  1.0000 0.1000156258
H   H72       1.0  0.10720  0.35960  0.16630  1.0000 0.1000156258
H   H73       1.0  0.81860  0.78720  0.85410  1.0000 0.1193899985
H   H74       1.0  0.78720  0.81860  0.64590  1.0000 0.1193899985
H   H75       1.0  0.18140  0.21280  0.14590  1.0000 0.1193899985
H   H76       1.0  0.21280  0.18140  0.35410  1.0000 0.1193899985
C   C1        1.0  0.36760  0.36760  0.75000  1.0000 -0.0445201699
C   C2        1.0  0.63240  0.63240  0.25000  1.0000 -0.0445201699
C   C3        1.0  0.37200  0.06160  0.75660  1.0000 -0.0162225095
C   C4        1.0  0.06160  0.37200  0.74340  1.0000 -0.0162225095
C   C5        1.0  0.62800  0.93840  0.24340  1.0000 -0.0162225095
C   C6        1.0  0.93840  0.62800  0.25660  1.0000 -0.0162225095
C   C7        1.0  0.43240  0.99800  0.82930  1.0000 -0.0901663382
C   C8        1.0  0.99800  0.43240  0.67070  1.0000 -0.0901663382
C   C9        1.0  0.56760  0.00200  0.17070  1.0000 -0.0901663382
C   C10       1.0  0.00200  0.56760  0.32930  1.0000 -0.0901663382
C   C11       1.0  0.47820  0.47820  0.75000  1.0000 0.0610644229
C   C12       1.0  0.52180  0.52180  0.25000  1.0000 0.0610644229
C   C13       1.0  0.37500  0.07520  0.68890  1.0000 -0.0628673811
C   C14       1.0  0.07520  0.37500  0.81110  1.0000 -0.0628673811
C   C15       1.0  0.62500  0.92480  0.31110  1.0000 -0.0628673811
C   C16       1.0  0.92480  0.62500  0.18890  1.0000 -0.0628673811
C   C17       1.0  0.53450  0.53450  0.75000  1.0000 0.1115288208
C   C18       1.0  0.46550  0.46550  0.25000  1.0000 0.1115288208
C   C19       1.0  0.48070  0.95290  0.75890  1.0000 0.0695265214
C   C20       1.0  0.95290  0.48070  0.74110  1.0000 0.0695265214
C   C21       1.0  0.51930  0.04710  0.24110  1.0000 0.0695265214
C   C22       1.0  0.04710  0.51930  0.25890  1.0000 0.0695265214
C   C23       1.0  0.53550  0.89750  0.75600  1.0000 0.1193899985
C   C24       1.0  0.89750  0.53550  0.74400  1.0000 0.1193899985
C   C25       1.0  0.46450  0.10250  0.24400  1.0000 0.1193899985
C   C26       1.0  0.10250  0.46450  0.25600  1.0000 0.1193899985
C   C27       1.0  0.31100  0.31100  0.75000  1.0000 0.5782977145
C   C28       1.0  0.68900  0.68900  0.25000  1.0000 0.5716537357
C   C29       1.0  0.01870  0.94970  0.82320  1.0000 -0.1573152621
C   C30       1.0  0.94970  0.01870  0.67680  1.0000 -0.1573152621
C   C31       1.0  0.98130  0.05030  0.17680  1.0000 -0.1573152621
C   C32       1.0  0.05030  0.98130  0.32320  1.0000 -0.1573152621
C   C33       1.0  0.95810  0.95810  0.75000  1.0000 0.0799483831
C   C34       1.0  0.04190  0.04190  0.25000  1.0000 0.0695265214
C   C35       1.0  0.11970  0.11970  0.75000  1.0000 0.5716537357
C   C36       1.0  0.88030  0.88030  0.25000  1.0000 0.5716537357
C   C37       1.0  0.31250  0.12010  0.75480  1.0000 0.5782977145
C   C38       1.0  0.12010  0.31250  0.74520  1.0000 0.5782977145
C   C39       1.0  0.68750  0.87990  0.24520  1.0000 0.5782977145
C   C40       1.0  0.87990  0.68750  0.25480  1.0000 0.5782977145
C   C41       1.0  0.41510  0.48630  0.67990  1.0000 -0.137607696
C   C42       1.0  0.48630  0.41510  0.82010  1.0000 -0.137607696
C   C43       1.0  0.58490  0.51370  0.32010  1.0000 -0.137607696
C   C44       1.0  0.51370  0.58490  0.17990  1.0000 -0.137607696
C   C45       1.0  0.07220  0.00180  0.82360  1.0000 -0.0901663382
C   C46       1.0  0.00180  0.07220  0.67640  1.0000 -0.0901663382
C   C47       1.0  0.92780  0.99820  0.17640  1.0000 -0.0901663382
C   C48       1.0  0.99820  0.92780  0.32360  1.0000 -0.0901663382
C   C49       1.0  0.42190  0.01930  0.68680  1.0000 -0.1283746217
C   C50       1.0  0.01930  0.42190  0.81320  1.0000 -0.1283746217
C   C51       1.0  0.57810  0.98070  0.31320  1.0000 -0.1283746217
C   C52       1.0  0.98070  0.57810  0.18680  1.0000 -0.1283746217
C   C53       1.0  0.58820  0.93500  0.50820  1.0000 -0.1835835022
C   C54       1.0  0.93500  0.58820  0.99180  1.0000 -0.1835835022
C   C55       1.0  0.41180  0.06500  0.49180  1.0000 -0.1835835022
C   C56       1.0  0.06500  0.41180  0.00820  1.0000 -0.1835835022
C   C57       1.0  0.63260  0.99600  0.50090  1.0000 -0.1031360929
C   C58       1.0  0.99600  0.63260  0.99910  1.0000 -0.1031360929
C   C59       1.0  0.36740  0.00400  0.49910  1.0000 -0.1031360929
C   C60       1.0  0.00400  0.36740  0.00090  1.0000 -0.1031360929
C   C61       1.0  0.61710  0.07530  0.49340  1.0000 -0.1055534561
C   C62       1.0  0.07530  0.61710  0.00660  1.0000 -0.1055534561
C   C63       1.0  0.38290  0.92470  0.50660  1.0000 -0.1055534561
C   C64       1.0  0.92470  0.38290  0.99340  1.0000 -0.1031360929
C   C65       1.0  0.54150  0.09170  0.49130  1.0000 -0.137607696
C   C66       1.0  0.09170  0.54150  0.00870  1.0000 -0.137607696
C   C67       1.0  0.45850  0.90830  0.50870  1.0000 -0.137607696
C   C68       1.0  0.90830  0.45850  0.99130  1.0000 -0.137607696
C   C69       1.0  0.51530  0.96130  0.50690  1.0000 0.0610644229
C   C70       1.0  0.96130  0.51530  0.99310  1.0000 0.0610644229
C   C71       1.0  0.48470  0.03870  0.49310  1.0000 0.0610644229
C   C72       1.0  0.03870  0.48470  0.00690  1.0000 0.0610644229
C   C73       1.0  0.06250  0.06250  0.75000  1.0000 -0.013927109
C   C74       1.0  0.93750  0.93750  0.25000  1.0000 -0.013927109
C   C75       1.0  0.50690  0.61950  0.69600  1.0000 -0.1991878864
C   C76       1.0  0.61950  0.50690  0.80400  1.0000 -0.1991878864
C   C77       1.0  0.49310  0.38050  0.30400  1.0000 -0.1991878864
C   C78       1.0  0.38050  0.49310  0.19600  1.0000 -0.1991878864
C   C79       1.0  0.89350  0.85410  0.81840  1.0000 -0.1938924272
C   C80       1.0  0.85410  0.89350  0.68160  1.0000 -0.1938924272
C   C81       1.0  0.10650  0.14590  0.18160  1.0000 -0.1938924272
C   C82       1.0  0.14590  0.10650  0.31840  1.0000 -0.1938924272
C   C83       1.0  0.48270  0.94230  0.83000  1.0000 -0.1510829334
C   C84       1.0  0.94230  0.48270  0.67000  1.0000 -0.1510829334
C   C85       1.0  0.51730  0.05770  0.17000  1.0000 -0.1510829334
C   C86       1.0  0.05770  0.51730  0.33000  1.0000 -0.1510829334
C   C87       1.0  0.56670  0.81710  0.81490  1.0000 -0.1835835022
C   C88       1.0  0.81710  0.56670  0.68510  1.0000 -0.1835835022
C   C89       1.0  0.43330  0.18290  0.18510  1.0000 -0.1835835022
C   C90       1.0  0.18290  0.43330  0.31490  1.0000 -0.1835835022
C   C91       1.0  0.36940  0.42720  0.68440  1.0000 -0.1031360929
C   C92       1.0  0.42720  0.36940  0.81560  1.0000 -0.1031360929
C   C93       1.0  0.63060  0.57280  0.31560  1.0000 -0.1031360929
C   C94       1.0  0.57280  0.63060  0.18440  1.0000 -0.1031360929
C   C95       1.0  0.56320  0.67000  0.69750  1.0000 0.0931356433
C   C96       1.0  0.67000  0.56320  0.80250  1.0000 0.0931356433
C   C97       1.0  0.43680  0.33000  0.30250  1.0000 0.0931356433
C   C98       1.0  0.33000  0.43680  0.19750  1.0000 0.0931356433
C   C99       1.0  0.62070  0.76710  0.81240  1.0000 0.0799483831
C   C100      1.0  0.76710  0.62070  0.68760  1.0000 0.0799483831
C   C101      1.0  0.37930  0.23290  0.18760  1.0000 0.0799483831
C   C102      1.0  0.23290  0.37930  0.31240  1.0000 0.0799483831
C   C103      1.0  0.56720  0.92900  0.70180  1.0000 -0.1835835022
C   C104      1.0  0.92900  0.56720  0.79820  1.0000 -0.1835835022
C   C105      1.0  0.43280  0.07100  0.29820  1.0000 -0.1835835022
C   C106      1.0  0.07100  0.43280  0.20180  1.0000 -0.1835835022
C   C107      1.0  0.62110  0.87270  0.70430  1.0000 0.1000156258
C   C108      1.0  0.87270  0.62110  0.79570  1.0000 0.1000156258
C   C109      1.0  0.37890  0.12730  0.29570  1.0000 0.1000156258
C   C110      1.0  0.12730  0.37890  0.20430  1.0000 0.1000156258
C   C111      1.0  0.83310  0.80870  0.81250  1.0000 0.0931356433
C   C112      1.0  0.80870  0.83310  0.68750  1.0000 0.0931356433
C   C113      1.0  0.16690  0.19130  0.18750  1.0000 0.0931356433
C   C114      1.0  0.19130  0.16690  0.31250  1.0000 0.0931356433
C   C115      1.0  0.90030  0.90030  0.75000  1.0000 0.1193899985
C   C116      1.0  0.09970  0.09970  0.25000  1.0000 0.1193899985
S   S1        1.0  0.61300  0.83336  0.52450  1.0000 1.1750928681
S   S2        1.0  0.83336  0.61300  0.97550  1.0000 1.1750928681
S   S3        1.0  0.38700  0.16664  0.47550  1.0000 1.1750928681
S   S4        1.0  0.16664  0.38700  0.02450  1.0000 1.1750928681
N   N1        1.0  0.64670  0.79290  0.75670  1.0000 -0.2220381298
N   N2        1.0  0.79290  0.64670  0.74330  1.0000 -0.2220381298
N   N3        1.0  0.35330  0.20710  0.24330  1.0000 -0.2220381298
N   N4        1.0  0.20710  0.35330  0.25670  1.0000 -0.2220381298
N   N5        1.0  0.64380  0.64380  0.75000  1.0000 -0.2220381298
N   N6        1.0  0.35620  0.35620  0.25000  1.0000 -0.2220381298
N   N7        1.0  0.79450  0.79450  0.75000  1.0000 -0.2220381298
N   N8        1.0  0.20550  0.20550  0.25000  1.0000 -0.2220381298
O   O1        1.0  0.25985  0.32585  0.68050  1.0000 -0.5179594834
O   O2        1.0  0.32585  0.25985  0.81950  1.0000 -0.5179594834
O   O3        1.0  0.74015  0.67415  0.31950  1.0000 -0.5179594834
O   O4        1.0  0.67415  0.74015  0.18050  1.0000 -0.5179594834
O   O5        1.0  0.55230  0.80330  0.47670  1.0000 -0.6053916891
O   O6        1.0  0.80330  0.55230  0.02330  1.0000 -0.6047039707
O   O7        1.0  0.44770  0.19670  0.52330  1.0000 -0.6047039707
O   O8        1.0  0.19670  0.44770  0.97670  1.0000 -0.6053916891
O   O9        1.0  0.64467  0.78923  0.61000  1.0000 -0.659334295
O   O10       1.0  0.78923  0.64467  0.89000  1.0000 -0.659334295
O   O11       1.0  0.35533  0.21077  0.39000  1.0000 -0.659334295
O   O12       1.0  0.21077  0.35533  0.11000  1.0000 -0.659334295
O   O13       1.0  0.32600  0.10800  0.82380  1.0000 -0.5265408684
O   O14       1.0  0.10800  0.32600  0.67620  1.0000 -0.5265408684
O   O15       1.0  0.67400  0.89200  0.17620  1.0000 -0.5265408684
O   O16       1.0  0.89200  0.67400  0.32380  1.0000 -0.5265408684
O   O17       1.0  0.26320  0.17380  0.68860  1.0000 -0.4847136815
O   O18       1.0  0.17380  0.26320  0.81140  1.0000 -0.4847136815
O   O19       1.0  0.73680  0.82620  0.31140  1.0000 -0.4847136815
O   O20       1.0  0.82620  0.73680  0.18860  1.0000 -0.4847136815
O   O21       1.0  0.11380  0.17740  0.67990  1.0000 -0.5658069928
O   O22       1.0  0.17740  0.11380  0.82010  1.0000 -0.5658069928
O   O23       1.0  0.88620  0.82260  0.32010  1.0000 -0.5658069928
O   O24       1.0  0.82260  0.88620  0.17990  1.0000 -0.5658069928
O   O25       1.0  0.68900  0.83620  0.51140  1.0000 -0.640767165
O   O26       1.0  0.83620  0.68900  0.98860  1.0000 -0.640767165
O   O27       1.0  0.31100  0.16380  0.48860  1.0000 -0.640767165
O   O28       1.0  0.16380  0.31100  0.01140  1.0000 -0.640767165
