# DDEC6 charges by PACMAN v1.1 (https://github.com/mtap-research/PACMAN-charge/)
data_2016[In][bpq]3[ASR]1
_chemical_formula_sum              "In12 H12 C96 O60 F48"
_cell_length_a       13.8905
_cell_length_b       16.9789
_cell_length_c       21.612
_cell_angle_alpha    90
_cell_angle_beta     90
_cell_angle_gamma    90

_symmetry_space_group_name_H-M    "P 1"
_symmetry_Int_Tables_number       1

loop_
  _symmetry_equiv_pos_as_xyz
  'x, y, z'

loop_
  _atom_site_type_symbol
  _atom_site_label
  _atom_site_symmetry_multiplicity
  _atom_site_fract_x
  _atom_site_fract_y
  _atom_site_fract_z
  _atom_site_occupancy
  _atom_site_charge
In  In1       1.0  0.75000  0.25044  0.25000  1.0000 1.5197477428
In  In2       1.0  0.75000  0.24956  0.75000  1.0000 1.5197477428
In  In3       1.0  0.25000  0.74956  0.75000  1.0000 1.5197477428
In  In4       1.0  0.25000  0.75044  0.25000  1.0000 1.5197477428
In  In5       1.0  0.75091  0.25003  0.08327  1.0000 1.5197477428
In  In6       1.0  0.75091  0.24997  0.91673  1.0000 1.5197477428
In  In7       1.0  0.74909  0.25003  0.41673  1.0000 1.5197477428
In  In8       1.0  0.74909  0.24997  0.58327  1.0000 1.5197477428
In  In9       1.0  0.24909  0.74997  0.91673  1.0000 1.5197477428
In  In10      1.0  0.24909  0.75003  0.08327  1.0000 1.5197477428
In  In11      1.0  0.25091  0.74997  0.58327  1.0000 1.5197477428
In  In12      1.0  0.25091  0.75003  0.41673  1.0000 1.5197477428
H   H1        1.0  0.88000  0.27800  0.16690  1.0000 0.4114096898
H   H2        1.0  0.88000  0.22200  0.83310  1.0000 0.4114096898
H   H3        1.0  0.62000  0.27800  0.33310  1.0000 0.4114096898
H   H4        1.0  0.62000  0.22200  0.66690  1.0000 0.4114096898
H   H5        1.0  0.12000  0.72200  0.83310  1.0000 0.4114096898
H   H6        1.0  0.12000  0.77800  0.16690  1.0000 0.4114096898
H   H7        1.0  0.38000  0.72200  0.66690  1.0000 0.4114096898
H   H8        1.0  0.38000  0.77800  0.33310  1.0000 0.4114096898
H   H9        1.0  0.61570  0.25000  0.00000  1.0000 0.4114096898
H   H10       1.0  0.88430  0.25000  0.50000  1.0000 0.4114096898
H   H11       1.0  0.38430  0.75000  0.00000  1.0000 0.4114096898
H   H12       1.0  0.11570  0.75000  0.50000  1.0000 0.4114096898
C   C1        1.0  0.61930  0.35800  0.16840  1.0000 0.6633132995
C   C2        1.0  0.61930  0.14200  0.83160  1.0000 0.6633132995
C   C3        1.0  0.88070  0.35800  0.33160  1.0000 0.6633132995
C   C4        1.0  0.88070  0.14200  0.66840  1.0000 0.6633132995
C   C5        1.0  0.38070  0.64200  0.83160  1.0000 0.6633132995
C   C6        1.0  0.38070  0.85800  0.16840  1.0000 0.6633132995
C   C7        1.0  0.11930  0.64200  0.66840  1.0000 0.6633132995
C   C8        1.0  0.11930  0.85800  0.33160  1.0000 0.6633132995
C   C9        1.0  0.54780  0.42560  0.16610  1.0000 -0.2108796126
C   C10       1.0  0.54780  0.07440  0.83390  1.0000 -0.2108796126
C   C11       1.0  0.95220  0.42560  0.33390  1.0000 -0.2108796126
C   C12       1.0  0.95220  0.07440  0.66610  1.0000 -0.2108796126
C   C13       1.0  0.45220  0.57440  0.83390  1.0000 -0.2108796126
C   C14       1.0  0.45220  0.92560  0.16610  1.0000 -0.2108796126
C   C15       1.0  0.04780  0.57440  0.66610  1.0000 -0.2108796126
C   C16       1.0  0.04780  0.92560  0.33390  1.0000 -0.2108796126
C   C17       1.0  0.48400  0.43920  0.21430  1.0000 0.1708104686
C   C18       1.0  0.48400  0.06080  0.78570  1.0000 0.1708104686
C   C19       1.0  0.01600  0.43920  0.28570  1.0000 0.1708104686
C   C20       1.0  0.01600  0.06080  0.71430  1.0000 0.1708104686
C   C21       1.0  0.51600  0.56080  0.78570  1.0000 0.1708104686
C   C22       1.0  0.51600  0.93920  0.21430  1.0000 0.1708104686
C   C23       1.0  0.98400  0.56080  0.71430  1.0000 0.1708104686
C   C24       1.0  0.98400  0.93920  0.28570  1.0000 0.1708104686
C   C25       1.0  0.42110  0.50370  0.21300  1.0000 0.1708104686
C   C26       1.0  0.42110  0.99630  0.78700  1.0000 0.1708104686
C   C27       1.0  0.07890  0.50370  0.28700  1.0000 0.1708104686
C   C28       1.0  0.07890  0.99630  0.71300  1.0000 0.1708104686
C   C29       1.0  0.57890  0.49630  0.78700  1.0000 0.1708104686
C   C30       1.0  0.57890  0.00370  0.21300  1.0000 0.1708104686
C   C31       1.0  0.92110  0.49630  0.71300  1.0000 0.1708104686
C   C32       1.0  0.92110  0.00370  0.28700  1.0000 0.1708104686
C   C33       1.0  0.42150  0.55570  0.16520  1.0000 -0.2108796126
C   C34       1.0  0.42150  0.94430  0.83480  1.0000 -0.2108796126
C   C35       1.0  0.07850  0.55570  0.33480  1.0000 -0.2108796126
C   C36       1.0  0.07850  0.94430  0.66520  1.0000 -0.2108796126
C   C37       1.0  0.57850  0.44430  0.83480  1.0000 -0.2108796126
C   C38       1.0  0.57850  0.05570  0.16520  1.0000 -0.2108796126
C   C39       1.0  0.92150  0.44430  0.66520  1.0000 -0.2108796126
C   C40       1.0  0.92150  0.05570  0.33480  1.0000 -0.2108796126
C   C41       1.0  0.48500  0.54260  0.11610  1.0000 0.1805478941
C   C42       1.0  0.48500  0.95740  0.88390  1.0000 0.186107237
C   C43       1.0  0.01500  0.54260  0.38390  1.0000 0.1805478941
C   C44       1.0  0.01500  0.95740  0.61610  1.0000 0.186107237
C   C45       1.0  0.51500  0.45740  0.88390  1.0000 0.1805478941
C   C46       1.0  0.51500  0.04260  0.11610  1.0000 0.1805478941
C   C47       1.0  0.98500  0.45740  0.61610  1.0000 0.1805478941
C   C48       1.0  0.98500  0.04260  0.38390  1.0000 0.1805478941
C   C49       1.0  0.54830  0.47770  0.11720  1.0000 0.1708104686
C   C50       1.0  0.54830  0.02230  0.88280  1.0000 0.1708104686
C   C51       1.0  0.95170  0.47770  0.38280  1.0000 0.1708104686
C   C52       1.0  0.95170  0.02230  0.61720  1.0000 0.1708104686
C   C53       1.0  0.45170  0.52230  0.88280  1.0000 0.1708104686
C   C54       1.0  0.45170  0.97770  0.11720  1.0000 0.1708104686
C   C55       1.0  0.04830  0.52230  0.61720  1.0000 0.1708104686
C   C56       1.0  0.04830  0.97770  0.38280  1.0000 0.1708104686
C   C57       1.0  0.35750  0.62710  0.16470  1.0000 0.6670101472
C   C58       1.0  0.35750  0.87290  0.83530  1.0000 0.6670101472
C   C59       1.0  0.14250  0.62710  0.33530  1.0000 0.6670101472
C   C60       1.0  0.14250  0.87290  0.66470  1.0000 0.6670101472
C   C61       1.0  0.64250  0.37290  0.83530  1.0000 0.6670101472
C   C62       1.0  0.64250  0.12710  0.16470  1.0000 0.6670101472
C   C63       1.0  0.85750  0.37290  0.66470  1.0000 0.6670101472
C   C64       1.0  0.85750  0.12710  0.33530  1.0000 0.6670101472
C   C65       1.0  0.87140  0.13510  0.99670  1.0000 0.6633132995
C   C66       1.0  0.87140  0.36490  0.00330  1.0000 0.6633132995
C   C67       1.0  0.62860  0.13510  0.50330  1.0000 0.6633132995
C   C68       1.0  0.62860  0.36490  0.49670  1.0000 0.6633132995
C   C69       1.0  0.12860  0.86490  0.00330  1.0000 0.6633132995
C   C70       1.0  0.12860  0.63510  0.99670  1.0000 0.6633132995
C   C71       1.0  0.37140  0.86490  0.49670  1.0000 0.6633132995
C   C72       1.0  0.37140  0.63510  0.50330  1.0000 0.6633132995
C   C73       1.0  0.93830  0.06580  0.99810  1.0000 -0.2108796126
C   C74       1.0  0.93830  0.43420  0.00190  1.0000 -0.2108796126
C   C75       1.0  0.56170  0.06580  0.50190  1.0000 -0.2108796126
C   C76       1.0  0.56170  0.43420  0.49810  1.0000 -0.2108796126
C   C77       1.0  0.06170  0.93420  0.00190  1.0000 -0.2108796126
C   C78       1.0  0.06170  0.56580  0.99810  1.0000 -0.2108796126
C   C79       1.0  0.43830  0.93420  0.49810  1.0000 -0.2108796126
C   C80       1.0  0.43830  0.56580  0.50190  1.0000 -0.2108796126
C   C81       1.0  0.94060  0.01760  0.04910  1.0000 0.1805478941
C   C82       1.0  0.94060  0.48240  0.95090  1.0000 0.1805478941
C   C83       1.0  0.55940  0.01760  0.45090  1.0000 0.1805478941
C   C84       1.0  0.55940  0.48240  0.54910  1.0000 0.1805478941
C   C85       1.0  0.05940  0.98240  0.95090  1.0000 0.1805478941
C   C86       1.0  0.05940  0.51760  0.04910  1.0000 0.1805478941
C   C87       1.0  0.44060  0.98240  0.54910  1.0000 0.1805478941
C   C88       1.0  0.44060  0.51760  0.45090  1.0000 0.1805478941
C   C89       1.0  0.00160  0.95120  0.05010  1.0000 0.1805478941
C   C90       1.0  0.00160  0.54880  0.94990  1.0000 0.1805478941
C   C91       1.0  0.49840  0.95120  0.44990  1.0000 0.1805478941
C   C92       1.0  0.49840  0.54880  0.55010  1.0000 0.1805478941
C   C93       1.0  0.99840  0.04880  0.94990  1.0000 0.1805478941
C   C94       1.0  0.99840  0.45120  0.05010  1.0000 0.1805478941
C   C95       1.0  0.50160  0.04880  0.55010  1.0000 0.1805478941
C   C96       1.0  0.50160  0.45120  0.44990  1.0000 0.1805478941
O   O1        1.0  0.65370  0.34450  0.22010  1.0000 -0.5599464627
O   O2        1.0  0.65370  0.15550  0.77990  1.0000 -0.5599464627
O   O3        1.0  0.84630  0.34450  0.27990  1.0000 -0.5599464627
O   O4        1.0  0.84630  0.15550  0.72010  1.0000 -0.5599464627
O   O5        1.0  0.34630  0.65550  0.77990  1.0000 -0.5599464627
O   O6        1.0  0.34630  0.84450  0.22010  1.0000 -0.5599464627
O   O7        1.0  0.15370  0.65550  0.72010  1.0000 -0.5489994365
O   O8        1.0  0.15370  0.84450  0.27990  1.0000 -0.5599464627
O   O9        1.0  0.63760  0.32440  0.11810  1.0000 -0.5754383854
O   O10       1.0  0.63760  0.17560  0.88190  1.0000 -0.5754383854
O   O11       1.0  0.86240  0.32440  0.38190  1.0000 -0.5754383854
O   O12       1.0  0.86240  0.17560  0.61810  1.0000 -0.5754383854
O   O13       1.0  0.36240  0.67560  0.88190  1.0000 -0.5754383854
O   O14       1.0  0.36240  0.82440  0.11810  1.0000 -0.5754383854
O   O15       1.0  0.13760  0.67560  0.61810  1.0000 -0.5754383854
O   O16       1.0  0.13760  0.82440  0.38190  1.0000 -0.5754383854
O   O17       1.0  0.34470  0.66270  0.21510  1.0000 -0.5707482423
O   O18       1.0  0.34470  0.83730  0.78490  1.0000 -0.5707482423
O   O19       1.0  0.15530  0.66270  0.28490  1.0000 -0.5707482423
O   O20       1.0  0.15530  0.83730  0.71510  1.0000 -0.5707482423
O   O21       1.0  0.65530  0.33730  0.78490  1.0000 -0.5707482423
O   O22       1.0  0.65530  0.16270  0.21510  1.0000 -0.5707482423
O   O23       1.0  0.84470  0.33730  0.71510  1.0000 -0.5707482423
O   O24       1.0  0.84470  0.16270  0.28490  1.0000 -0.5707482423
O   O25       1.0  0.32290  0.64560  0.11270  1.0000 -0.5599464627
O   O26       1.0  0.32290  0.85440  0.88730  1.0000 -0.5599464627
O   O27       1.0  0.17710  0.64560  0.38730  1.0000 -0.5599464627
O   O28       1.0  0.17710  0.85440  0.61270  1.0000 -0.5599464627
O   O29       1.0  0.67710  0.35440  0.88730  1.0000 -0.5599464627
O   O30       1.0  0.67710  0.14560  0.11270  1.0000 -0.5599464627
O   O31       1.0  0.82290  0.35440  0.61270  1.0000 -0.5599464627
O   O32       1.0  0.82290  0.14560  0.38730  1.0000 -0.5599464627
O   O33       1.0  0.86190  0.17300  0.04530  1.0000 -0.5489994365
O   O34       1.0  0.86190  0.32700  0.95470  1.0000 -0.5489994365
O   O35       1.0  0.63810  0.17300  0.45470  1.0000 -0.5489994365
O   O36       1.0  0.63810  0.32700  0.54530  1.0000 -0.5489994365
O   O37       1.0  0.13810  0.82700  0.95470  1.0000 -0.5489994365
O   O38       1.0  0.13810  0.67300  0.04530  1.0000 -0.5489994365
O   O39       1.0  0.36190  0.82700  0.54530  1.0000 -0.5489994365
O   O40       1.0  0.36190  0.67300  0.45470  1.0000 -0.5489994365
O   O41       1.0  0.82960  0.14830  0.94510  1.0000 -0.5707482423
O   O42       1.0  0.82960  0.35170  0.05490  1.0000 -0.5754383854
O   O43       1.0  0.67040  0.14830  0.55490  1.0000 -0.5707482423
O   O44       1.0  0.67040  0.35170  0.44510  1.0000 -0.5707482423
O   O45       1.0  0.17040  0.85170  0.05490  1.0000 -0.5707482423
O   O46       1.0  0.17040  0.64830  0.94510  1.0000 -0.5707482423
O   O47       1.0  0.32960  0.85170  0.44510  1.0000 -0.5754383854
O   O48       1.0  0.32960  0.64830  0.55490  1.0000 -0.5707482423
O   O49       1.0  0.82670  0.25460  0.16670  1.0000 -0.851583333
O   O50       1.0  0.82670  0.24540  0.83330  1.0000 -0.851583333
O   O51       1.0  0.67330  0.25460  0.33333  1.0000 -0.851583333
O   O52       1.0  0.67330  0.24540  0.66667  1.0000 -0.851583333
O   O53       1.0  0.17330  0.74540  0.83330  1.0000 -0.851583333
O   O54       1.0  0.17330  0.75460  0.16670  1.0000 -0.851583333
O   O55       1.0  0.32670  0.74540  0.66667  1.0000 -0.851583333
O   O56       1.0  0.32670  0.75460  0.33333  1.0000 -0.851583333
O   O57       1.0  0.67520  0.25000  0.00000  1.0000 -0.851583333
O   O58       1.0  0.82480  0.25000  0.50000  1.0000 -0.851583333
O   O59       1.0  0.32480  0.75000  0.00000  1.0000 -0.851583333
O   O60       1.0  0.17520  0.75000  0.50000  1.0000 -0.851583333
F   F1        1.0  0.47870  0.38960  0.26290  1.0000 -0.1181880868
F   F2        1.0  0.47870  0.11040  0.73710  1.0000 -0.1181880868
F   F3        1.0  0.02130  0.38960  0.23710  1.0000 -0.1181880868
F   F4        1.0  0.02130  0.11040  0.76290  1.0000 -0.1181880868
F   F5        1.0  0.52130  0.61040  0.73710  1.0000 -0.1181880868
F   F6        1.0  0.52130  0.88960  0.26290  1.0000 -0.1181880868
F   F7        1.0  0.97870  0.61040  0.76290  1.0000 -0.1181880868
F   F8        1.0  0.97870  0.88960  0.23710  1.0000 -0.1181880868
F   F9        1.0  0.36120  0.51170  0.26140  1.0000 -0.1013196115
F   F10       1.0  0.36120  0.98830  0.73860  1.0000 -0.1013196115
F   F11       1.0  0.13880  0.51170  0.23860  1.0000 -0.1013196115
F   F12       1.0  0.13880  0.98830  0.76140  1.0000 -0.1013196115
F   F13       1.0  0.63880  0.48830  0.73860  1.0000 -0.1013196115
F   F14       1.0  0.63880  0.01170  0.26140  1.0000 -0.1013196115
F   F15       1.0  0.86120  0.48830  0.76140  1.0000 -0.1013196115
F   F16       1.0  0.86120  0.01170  0.23860  1.0000 -0.1013196115
F   F17       1.0  0.49170  0.59150  0.06730  1.0000 -0.1097884274
F   F18       1.0  0.49170  0.90850  0.93270  1.0000 -0.1097884274
F   F19       1.0  0.00830  0.59150  0.43270  1.0000 -0.1097884274
F   F20       1.0  0.00830  0.90850  0.56730  1.0000 -0.1097884274
F   F21       1.0  0.50830  0.40850  0.93270  1.0000 -0.1097884274
F   F22       1.0  0.50830  0.09150  0.06730  1.0000 -0.1097884274
F   F23       1.0  0.99170  0.40850  0.56730  1.0000 -0.1097884274
F   F24       1.0  0.99170  0.09150  0.43270  1.0000 -0.1097884274
F   F25       1.0  0.60830  0.46920  0.06830  1.0000 -0.1097884274
F   F26       1.0  0.60830  0.03080  0.93170  1.0000 -0.1097884274
F   F27       1.0  0.89170  0.46920  0.43170  1.0000 -0.1097884274
F   F28       1.0  0.89170  0.03080  0.56830  1.0000 -0.1097884274
F   F29       1.0  0.39170  0.53080  0.93170  1.0000 -0.1097884274
F   F30       1.0  0.39170  0.96920  0.06830  1.0000 -0.1097884274
F   F31       1.0  0.10830  0.53080  0.56830  1.0000 -0.1097884274
F   F32       1.0  0.10830  0.96920  0.43170  1.0000 -0.1097884274
F   F33       1.0  0.88100  0.02840  0.09680  1.0000 -0.1013196115
F   F34       1.0  0.88100  0.47160  0.90320  1.0000 -0.1013196115
F   F35       1.0  0.61900  0.02840  0.40320  1.0000 -0.1013196115
F   F36       1.0  0.61900  0.47160  0.59680  1.0000 -0.1013196115
F   F37       1.0  0.11900  0.97160  0.90320  1.0000 -0.1013196115
F   F38       1.0  0.11900  0.52840  0.09680  1.0000 -0.1013196115
F   F39       1.0  0.38100  0.97160  0.59680  1.0000 -0.1013196115
F   F40       1.0  0.38100  0.52840  0.40320  1.0000 -0.1013196115
F   F41       1.0  0.99640  0.90430  0.09990  1.0000 -0.1097884274
F   F42       1.0  0.99640  0.59570  0.90010  1.0000 -0.1097884274
F   F43       1.0  0.50360  0.90430  0.40010  1.0000 -0.1097884274
F   F44       1.0  0.50360  0.59570  0.59990  1.0000 -0.1097884274
F   F45       1.0  0.00360  0.09570  0.90010  1.0000 -0.1097884274
F   F46       1.0  0.00360  0.40430  0.09990  1.0000 -0.1097884274
F   F47       1.0  0.49640  0.09570  0.59990  1.0000 -0.1097884274
F   F48       1.0  0.49640  0.40430  0.40010  1.0000 -0.1097884274
