# DDEC6 charges by PACMAN v1.1 (https://github.com/mtap-research/PACMAN-charge/)
data_2016[Cd][nan]3[ASR]4
_chemical_formula_sum              "Cd16 H72 C184 O80"
_cell_length_a       11.1912
_cell_length_b       22.9833
_cell_length_c       29.218
_cell_angle_alpha    90
_cell_angle_beta     90
_cell_angle_gamma    90

_symmetry_space_group_name_H-M    "P 1"
_symmetry_Int_Tables_number       1

loop_
  _symmetry_equiv_pos_as_xyz
  'x, y, z'

loop_
  _atom_site_type_symbol
  _atom_site_label
  _atom_site_symmetry_multiplicity
  _atom_site_fract_x
  _atom_site_fract_y
  _atom_site_fract_z
  _atom_site_occupancy
  _atom_site_charge
Cd  Cd1       1.0  0.54311  0.80865  0.11480  1.0000 1.0393493164
Cd  Cd2       1.0  0.95689  0.80865  0.38520  1.0000 1.0393493164
Cd  Cd3       1.0  0.04311  0.69135  0.88520  1.0000 1.0393493164
Cd  Cd4       1.0  0.45689  0.69135  0.61480  1.0000 1.0393493164
Cd  Cd5       1.0  0.45689  0.19135  0.88520  1.0000 1.0393493164
Cd  Cd6       1.0  0.04311  0.19135  0.61480  1.0000 1.0393493164
Cd  Cd7       1.0  0.95689  0.30865  0.11480  1.0000 1.0393493164
Cd  Cd8       1.0  0.54311  0.30865  0.38520  1.0000 1.0393493164
Cd  Cd9       1.0  0.75361  0.90652  0.06184  1.0000 1.0393493164
Cd  Cd10      1.0  0.74639  0.90652  0.43816  1.0000 1.0393493164
Cd  Cd11      1.0  0.25361  0.59348  0.93816  1.0000 1.0393493164
Cd  Cd12      1.0  0.24639  0.59348  0.56184  1.0000 1.0393493164
Cd  Cd13      1.0  0.24639  0.09348  0.93816  1.0000 1.0393493164
Cd  Cd14      1.0  0.25361  0.09348  0.56184  1.0000 1.0393493164
Cd  Cd15      1.0  0.74639  0.40652  0.06184  1.0000 1.0393493164
Cd  Cd16      1.0  0.75361  0.40652  0.43816  1.0000 1.0393493164
H   H1        1.0  0.56920  0.96570  0.23360  1.0000 0.1305904667
H   H2        1.0  0.93080  0.96570  0.26640  1.0000 0.1305904667
H   H3        1.0  0.06920  0.53430  0.76640  1.0000 0.1305904667
H   H4        1.0  0.43080  0.53430  0.73360  1.0000 0.1305904667
H   H5        1.0  0.43080  0.03430  0.76640  1.0000 0.1305904667
H   H6        1.0  0.06920  0.03430  0.73360  1.0000 0.1305904667
H   H7        1.0  0.93080  0.46570  0.23360  1.0000 0.1305904667
H   H8        1.0  0.56920  0.46570  0.26640  1.0000 0.1305904667
H   H9        1.0  0.58890  0.13470  0.20200  1.0000 0.1305904667
H   H10       1.0  0.91110  0.13470  0.29800  1.0000 0.1305904667
H   H11       1.0  0.08890  0.36530  0.79800  1.0000 0.1305904667
H   H12       1.0  0.41110  0.36530  0.70200  1.0000 0.1305904667
H   H13       1.0  0.41110  0.86530  0.79800  1.0000 0.1305904667
H   H14       1.0  0.08890  0.86530  0.70200  1.0000 0.1305904667
H   H15       1.0  0.91110  0.63470  0.20200  1.0000 0.1305904667
H   H16       1.0  0.58890  0.63470  0.29800  1.0000 0.1305904667
H   H17       1.0  0.56660  0.01560  0.10260  1.0000 0.1305904667
H   H18       1.0  0.93340  0.01560  0.39740  1.0000 0.1305904667
H   H19       1.0  0.06660  0.48440  0.89740  1.0000 0.1305904667
H   H20       1.0  0.43340  0.48440  0.60260  1.0000 0.1305904667
H   H21       1.0  0.43340  0.98440  0.89740  1.0000 0.1305904667
H   H22       1.0  0.06660  0.98440  0.60260  1.0000 0.1305904667
H   H23       1.0  0.93340  0.51560  0.10260  1.0000 0.1305904667
H   H24       1.0  0.56660  0.51560  0.39740  1.0000 0.1305904667
H   H25       1.0  0.59810  0.10420  0.39970  1.0000 0.1393700603
H   H26       1.0  0.90190  0.10420  0.10030  1.0000 0.1393700603
H   H27       1.0  0.09810  0.39580  0.60030  1.0000 0.1393700603
H   H28       1.0  0.40190  0.39580  0.89970  1.0000 0.1393700603
H   H29       1.0  0.40190  0.89580  0.60030  1.0000 0.1393700603
H   H30       1.0  0.09810  0.89580  0.89970  1.0000 0.1393700603
H   H31       1.0  0.90190  0.60420  0.39970  1.0000 0.1393700603
H   H32       1.0  0.59810  0.60420  0.10030  1.0000 0.1393700603
H   H33       1.0  0.62720  0.98840  0.29880  1.0000 0.1305904667
H   H34       1.0  0.87280  0.98840  0.20120  1.0000 0.1305904667
H   H35       1.0  0.12720  0.51160  0.70120  1.0000 0.1305904667
H   H36       1.0  0.37280  0.51160  0.79880  1.0000 0.1305904667
H   H37       1.0  0.37280  0.01160  0.70120  1.0000 0.1305904667
H   H38       1.0  0.12720  0.01160  0.79880  1.0000 0.1305904667
H   H39       1.0  0.87280  0.48840  0.29880  1.0000 0.1305904667
H   H40       1.0  0.62720  0.48840  0.20120  1.0000 0.1305904667
H   H41       1.0  0.53280  0.15180  0.27090  1.0000 0.1305904667
H   H42       1.0  0.96720  0.15180  0.22910  1.0000 0.1305904667
H   H43       1.0  0.03280  0.34820  0.72910  1.0000 0.1305904667
H   H44       1.0  0.46720  0.34820  0.77090  1.0000 0.1305904667
H   H45       1.0  0.46720  0.84820  0.72910  1.0000 0.1305904667
H   H46       1.0  0.03280  0.84820  0.77090  1.0000 0.1305904667
H   H47       1.0  0.96720  0.65180  0.27090  1.0000 0.1305904667
H   H48       1.0  0.53280  0.65180  0.22910  1.0000 0.1305904667
H   H49       1.0  0.55640  0.24240  0.02050  1.0000 0.1453878868
H   H50       1.0  0.94360  0.24240  0.47950  1.0000 0.1453878868
H   H51       1.0  0.05640  0.25760  0.97950  1.0000 0.1453878868
H   H52       1.0  0.44360  0.25760  0.52050  1.0000 0.1453878868
H   H53       1.0  0.44360  0.75760  0.97950  1.0000 0.1453878868
H   H54       1.0  0.05640  0.75760  0.52050  1.0000 0.1453878868
H   H55       1.0  0.94360  0.74240  0.02050  1.0000 0.1453878868
H   H56       1.0  0.55640  0.74240  0.47950  1.0000 0.1453878868
H   H57       1.0  0.67460  0.18940  0.14280  1.0000 0.1305904667
H   H58       1.0  0.82540  0.18940  0.35720  1.0000 0.1305904667
H   H59       1.0  0.17460  0.31060  0.85720  1.0000 0.1305904667
H   H60       1.0  0.32540  0.31060  0.64280  1.0000 0.1305904667
H   H61       1.0  0.32540  0.81060  0.85720  1.0000 0.1305904667
H   H62       1.0  0.17460  0.81060  0.64280  1.0000 0.1305904667
H   H63       1.0  0.82540  0.68940  0.14280  1.0000 0.1305904667
H   H64       1.0  0.67460  0.68940  0.35720  1.0000 0.1305904667
H   H65       1.0  0.47130  0.08480  0.06660  1.0000 0.1305904667
H   H66       1.0  0.02870  0.08480  0.43340  1.0000 0.1305904667
H   H67       1.0  0.97130  0.41520  0.93340  1.0000 0.1305904667
H   H68       1.0  0.52870  0.41520  0.56660  1.0000 0.1305904667
H   H69       1.0  0.52870  0.91520  0.93340  1.0000 0.1305904667
H   H70       1.0  0.97130  0.91520  0.56660  1.0000 0.1305904667
H   H71       1.0  0.02870  0.58480  0.06660  1.0000 0.1305904667
H   H72       1.0  0.47130  0.58480  0.43340  1.0000 0.1305904667
C   C1        1.0  0.56530  0.91880  0.15140  1.0000 0.5796619493
C   C2        1.0  0.93470  0.91880  0.34860  1.0000 0.5796619493
C   C3        1.0  0.06530  0.58120  0.84860  1.0000 0.5796619493
C   C4        1.0  0.43470  0.58120  0.65140  1.0000 0.5796619493
C   C5        1.0  0.43470  0.08120  0.84860  1.0000 0.5796619493
C   C6        1.0  0.06530  0.08120  0.65140  1.0000 0.5796619493
C   C7        1.0  0.93470  0.41880  0.15140  1.0000 0.5796619493
C   C8        1.0  0.56530  0.41880  0.34860  1.0000 0.5796619493
C   C9        1.0  0.56990  0.98190  0.16640  1.0000 0.0049711342
C   C10       1.0  0.93010  0.98190  0.33360  1.0000 0.0049711342
C   C11       1.0  0.06990  0.51810  0.83360  1.0000 0.0049711342
C   C12       1.0  0.43010  0.51810  0.66640  1.0000 0.0049711342
C   C13       1.0  0.43010  0.01810  0.83360  1.0000 0.0049711342
C   C14       1.0  0.06990  0.01810  0.66640  1.0000 0.0049711342
C   C15       1.0  0.93010  0.48190  0.16640  1.0000 0.0049711342
C   C16       1.0  0.56990  0.48190  0.33360  1.0000 0.0049711342
C   C17       1.0  0.57240  0.99520  0.21190  1.0000 -0.1435841511
C   C18       1.0  0.92760  0.99520  0.28810  1.0000 -0.1435841511
C   C19       1.0  0.07240  0.50480  0.78810  1.0000 -0.1435841511
C   C20       1.0  0.42760  0.50480  0.71190  1.0000 -0.1435841511
C   C21       1.0  0.42760  0.00480  0.78810  1.0000 -0.1435841511
C   C22       1.0  0.07240  0.00480  0.71190  1.0000 -0.1435841511
C   C23       1.0  0.92760  0.49520  0.21190  1.0000 -0.1435841511
C   C24       1.0  0.57240  0.49520  0.28810  1.0000 -0.1435841511
C   C25       1.0  0.57970  0.05320  0.22590  1.0000 0.0858441207
C   C26       1.0  0.92030  0.05320  0.27410  1.0000 0.0811761859
C   C27       1.0  0.07970  0.44680  0.77410  1.0000 0.0858441207
C   C28       1.0  0.42030  0.44680  0.72590  1.0000 0.0858441207
C   C29       1.0  0.42030  0.94680  0.77410  1.0000 0.0858441207
C   C30       1.0  0.07970  0.94680  0.72590  1.0000 0.0858441207
C   C31       1.0  0.92030  0.55320  0.22590  1.0000 0.0858441207
C   C32       1.0  0.57970  0.55320  0.27410  1.0000 0.0811761859
C   C33       1.0  0.58240  0.09610  0.19280  1.0000 -0.1756102135
C   C34       1.0  0.91760  0.09610  0.30720  1.0000 -0.1756102135
C   C35       1.0  0.08240  0.40390  0.80720  1.0000 -0.1756102135
C   C36       1.0  0.41760  0.40390  0.69280  1.0000 -0.1756102135
C   C37       1.0  0.41760  0.90390  0.80720  1.0000 -0.1756102135
C   C38       1.0  0.08240  0.90390  0.69280  1.0000 -0.1746406716
C   C39       1.0  0.91760  0.59610  0.19280  1.0000 -0.1756102135
C   C40       1.0  0.58240  0.59610  0.30720  1.0000 -0.1756102135
C   C41       1.0  0.57570  0.08380  0.14660  1.0000 0.0811761859
C   C42       1.0  0.92430  0.08380  0.35340  1.0000 0.0811761859
C   C43       1.0  0.07570  0.41620  0.85340  1.0000 0.0811761859
C   C44       1.0  0.42430  0.41620  0.64660  1.0000 0.0811761859
C   C45       1.0  0.42430  0.91620  0.85340  1.0000 0.0811761859
C   C46       1.0  0.07570  0.91620  0.64660  1.0000 0.0811761859
C   C47       1.0  0.92430  0.58380  0.14660  1.0000 0.0811761859
C   C48       1.0  0.57570  0.58380  0.35340  1.0000 0.0811761859
C   C49       1.0  0.57020  0.02540  0.13350  1.0000 -0.1435841511
C   C50       1.0  0.92980  0.02540  0.36650  1.0000 -0.1435841511
C   C51       1.0  0.07020  0.47460  0.86650  1.0000 -0.1435841511
C   C52       1.0  0.42980  0.47460  0.63350  1.0000 -0.1435841511
C   C53       1.0  0.42980  0.97460  0.86650  1.0000 -0.1435841511
C   C54       1.0  0.07020  0.97460  0.63350  1.0000 -0.1435841511
C   C55       1.0  0.92980  0.52540  0.13350  1.0000 -0.1435841511
C   C56       1.0  0.57020  0.52540  0.36650  1.0000 -0.1435841511
C   C57       1.0  0.54260  0.19880  0.35330  1.0000 0.549383803
C   C58       1.0  0.95740  0.19880  0.14670  1.0000 0.549383803
C   C59       1.0  0.04260  0.30120  0.64670  1.0000 0.549383803
C   C60       1.0  0.45740  0.30120  0.85330  1.0000 0.549383803
C   C61       1.0  0.45740  0.80120  0.64670  1.0000 0.549383803
C   C62       1.0  0.04260  0.80120  0.85330  1.0000 0.549383803
C   C63       1.0  0.95740  0.69880  0.35330  1.0000 0.549383803
C   C64       1.0  0.54260  0.69880  0.14670  1.0000 0.549383803
C   C65       1.0  0.65930  0.99210  0.38560  1.0000 0.5399080056
C   C66       1.0  0.84070  0.99210  0.11440  1.0000 0.5399080056
C   C67       1.0  0.15930  0.50790  0.61440  1.0000 0.5399080056
C   C68       1.0  0.34070  0.50790  0.88560  1.0000 0.5399080056
C   C69       1.0  0.34070  0.00790  0.61440  1.0000 0.5399080056
C   C70       1.0  0.15930  0.00790  0.88560  1.0000 0.5399080056
C   C71       1.0  0.84070  0.49210  0.38560  1.0000 0.5399080056
C   C72       1.0  0.65930  0.49210  0.11440  1.0000 0.5399080056
C   C73       1.0  0.56830  0.13800  0.33790  1.0000 -0.0088402661
C   C74       1.0  0.93170  0.13800  0.16210  1.0000 -0.0088402661
C   C75       1.0  0.06830  0.36200  0.66210  1.0000 -0.0088402661
C   C76       1.0  0.43170  0.36200  0.83790  1.0000 -0.0088402661
C   C77       1.0  0.43170  0.86200  0.66210  1.0000 -0.0088402661
C   C78       1.0  0.06830  0.86200  0.83790  1.0000 -0.0088402661
C   C79       1.0  0.93170  0.63800  0.33790  1.0000 -0.0088402661
C   C80       1.0  0.56830  0.63800  0.16210  1.0000 -0.0088402661
C   C81       1.0  0.59660  0.09560  0.36860  1.0000 -0.0984252023
C   C82       1.0  0.90340  0.09560  0.13140  1.0000 -0.0984252023
C   C83       1.0  0.09660  0.40440  0.63140  1.0000 -0.0984252023
C   C84       1.0  0.40340  0.40440  0.86860  1.0000 -0.0984252023
C   C85       1.0  0.40340  0.90440  0.63140  1.0000 -0.0984252023
C   C86       1.0  0.09660  0.90440  0.86860  1.0000 -0.0984252023
C   C87       1.0  0.90340  0.59560  0.36860  1.0000 -0.0984252023
C   C88       1.0  0.59660  0.59560  0.13140  1.0000 -0.0984252023
C   C89       1.0  0.62390  0.03830  0.35350  1.0000 -0.019692946
C   C90       1.0  0.87610  0.03830  0.14650  1.0000 -0.019692946
C   C91       1.0  0.12390  0.46170  0.64650  1.0000 -0.019692946
C   C92       1.0  0.37610  0.46170  0.85350  1.0000 -0.019692946
C   C93       1.0  0.37610  0.96170  0.64650  1.0000 -0.019692946
C   C94       1.0  0.12390  0.96170  0.85350  1.0000 -0.019692946
C   C95       1.0  0.87610  0.53830  0.35350  1.0000 -0.019692946
C   C96       1.0  0.62390  0.53830  0.14650  1.0000 -0.019692946
C   C97       1.0  0.61430  0.02650  0.30840  1.0000 -0.1295668895
C   C98       1.0  0.88570  0.02650  0.19160  1.0000 -0.1295668895
C   C99       1.0  0.11430  0.47350  0.69160  1.0000 -0.1295668895
C   C100      1.0  0.38570  0.47350  0.80840  1.0000 -0.1295668895
C   C101      1.0  0.38570  0.97350  0.69160  1.0000 -0.1295668895
C   C102      1.0  0.11430  0.97350  0.80840  1.0000 -0.1295668895
C   C103      1.0  0.88570  0.52650  0.30840  1.0000 -0.1295668895
C   C104      1.0  0.61430  0.52650  0.19160  1.0000 -0.1295668895
C   C105      1.0  0.58650  0.06780  0.27590  1.0000 0.0641009833
C   C106      1.0  0.91350  0.06780  0.22410  1.0000 0.0641009833
C   C107      1.0  0.08650  0.43220  0.72410  1.0000 0.0641009833
C   C108      1.0  0.41350  0.43220  0.77590  1.0000 0.0641009833
C   C109      1.0  0.41350  0.93220  0.72410  1.0000 0.0641009833
C   C110      1.0  0.08650  0.93220  0.77590  1.0000 0.0641009833
C   C111      1.0  0.91350  0.56780  0.27590  1.0000 0.0641009833
C   C112      1.0  0.58650  0.56780  0.22410  1.0000 0.0641009833
C   C113      1.0  0.55840  0.12370  0.29160  1.0000 -0.1475174085
C   C114      1.0  0.94160  0.12370  0.20840  1.0000 -0.1475174085
C   C115      1.0  0.05840  0.37630  0.70840  1.0000 -0.1475174085
C   C116      1.0  0.44160  0.37630  0.79160  1.0000 -0.1475174085
C   C117      1.0  0.44160  0.87630  0.70840  1.0000 -0.1475174085
C   C118      1.0  0.05840  0.87630  0.79160  1.0000 -0.1475174085
C   C119      1.0  0.94160  0.62370  0.29160  1.0000 -0.1475174085
C   C120      1.0  0.55840  0.62370  0.20840  1.0000 -0.1475174085
C   C121      1.0  0.43820  0.15160  0.99360  1.0000 0.6096836168
C   C122      1.0  0.06180  0.15160  0.50640  1.0000 0.6096836168
C   C123      1.0  0.93820  0.34840  0.00640  1.0000 0.6096836168
C   C124      1.0  0.56180  0.34840  0.49360  1.0000 0.6096836168
C   C125      1.0  0.56180  0.84840  0.00640  1.0000 0.6096836168
C   C126      1.0  0.93820  0.84840  0.49360  1.0000 0.6096836168
C   C127      1.0  0.06180  0.65160  0.99360  1.0000 0.6096836168
C   C128      1.0  0.43820  0.65160  0.50640  1.0000 0.6096836168
C   C129      1.0  0.68660  0.28230  0.08910  1.0000 0.5956654984
C   C130      1.0  0.81340  0.28230  0.41090  1.0000 0.5956654984
C   C131      1.0  0.18660  0.21770  0.91090  1.0000 0.5956654984
C   C132      1.0  0.31340  0.21770  0.58910  1.0000 0.5956654984
C   C133      1.0  0.31340  0.71770  0.91090  1.0000 0.5956654984
C   C134      1.0  0.18660  0.71770  0.58910  1.0000 0.5956654984
C   C135      1.0  0.81340  0.78230  0.08910  1.0000 0.5956654984
C   C136      1.0  0.68660  0.78230  0.41090  1.0000 0.5956654984
C   C137      1.0  0.50590  0.16250  0.03750  1.0000 -0.0088402661
C   C138      1.0  0.99410  0.16250  0.46250  1.0000 -0.0088402661
C   C139      1.0  0.00590  0.33750  0.96250  1.0000 -0.0088402661
C   C140      1.0  0.49410  0.33750  0.53750  1.0000 -0.0088402661
C   C141      1.0  0.49410  0.83750  0.96250  1.0000 -0.0088402661
C   C142      1.0  0.00590  0.83750  0.53750  1.0000 -0.0088402661
C   C143      1.0  0.99410  0.66250  0.03750  1.0000 -0.0088402661
C   C144      1.0  0.50590  0.66250  0.46250  1.0000 -0.0088402661
C   C145      1.0  0.56090  0.21420  0.04320  1.0000 -0.0868747442
C   C146      1.0  0.93910  0.21420  0.45680  1.0000 -0.0868747442
C   C147      1.0  0.06090  0.28580  0.95680  1.0000 -0.0868747442
C   C148      1.0  0.43910  0.28580  0.54320  1.0000 -0.0868747442
C   C149      1.0  0.43910  0.78580  0.95680  1.0000 -0.0868747442
C   C150      1.0  0.06090  0.78580  0.54320  1.0000 -0.0868747442
C   C151      1.0  0.93910  0.71420  0.04320  1.0000 -0.0868747442
C   C152      1.0  0.56090  0.71420  0.45680  1.0000 -0.0868747442
C   C153      1.0  0.62430  0.22520  0.08320  1.0000 -0.0088402661
C   C154      1.0  0.87570  0.22520  0.41680  1.0000 -0.0088402661
C   C155      1.0  0.12430  0.27480  0.91680  1.0000 -0.0088402661
C   C156      1.0  0.37570  0.27480  0.58320  1.0000 -0.0088402661
C   C157      1.0  0.37570  0.77480  0.91680  1.0000 -0.0088402661
C   C158      1.0  0.12430  0.77480  0.58320  1.0000 -0.0088402661
C   C159      1.0  0.87570  0.72520  0.08320  1.0000 -0.0088402661
C   C160      1.0  0.62430  0.72520  0.41680  1.0000 -0.0088402661
C   C161      1.0  0.63060  0.18230  0.11630  1.0000 -0.1248760123
C   C162      1.0  0.86940  0.18230  0.38370  1.0000 -0.1248760123
C   C163      1.0  0.13060  0.31770  0.88370  1.0000 -0.1248760123
C   C164      1.0  0.36940  0.31770  0.61630  1.0000 -0.1248760123
C   C165      1.0  0.36940  0.81770  0.88370  1.0000 -0.1248760123
C   C166      1.0  0.13060  0.81770  0.61630  1.0000 -0.1248760123
C   C167      1.0  0.86940  0.68230  0.11630  1.0000 -0.1248760123
C   C168      1.0  0.63060  0.68230  0.38370  1.0000 -0.1248760123
C   C169      1.0  0.57400  0.12950  0.11140  1.0000 0.0693430368
C   C170      1.0  0.92600  0.12950  0.38860  1.0000 0.0693430368
C   C171      1.0  0.07400  0.37050  0.88860  1.0000 0.0693430368
C   C172      1.0  0.42600  0.37050  0.61140  1.0000 0.0693430368
C   C173      1.0  0.42600  0.87050  0.88860  1.0000 0.0693430368
C   C174      1.0  0.07400  0.87050  0.61140  1.0000 0.0693430368
C   C175      1.0  0.92600  0.62950  0.11140  1.0000 0.0693430368
C   C176      1.0  0.57400  0.62950  0.38860  1.0000 0.0693430368
C   C177      1.0  0.51070  0.12000  0.07110  1.0000 -0.1295668895
C   C178      1.0  0.98930  0.12000  0.42890  1.0000 -0.1295668895
C   C179      1.0  0.01070  0.38000  0.92890  1.0000 -0.1295668895
C   C180      1.0  0.48930  0.38000  0.57110  1.0000 -0.1295668895
C   C181      1.0  0.48930  0.88000  0.92890  1.0000 -0.1295668895
C   C182      1.0  0.01070  0.88000  0.57110  1.0000 -0.1295668895
C   C183      1.0  0.98930  0.62000  0.07110  1.0000 -0.1295668895
C   C184      1.0  0.51070  0.62000  0.42890  1.0000 -0.1295668895
O   O1        1.0  0.57890  0.90790  0.10890  1.0000 -0.5882505563
O   O2        1.0  0.92110  0.90790  0.39110  1.0000 -0.5882505563
O   O3        1.0  0.07890  0.59210  0.89110  1.0000 -0.5882505563
O   O4        1.0  0.42110  0.59210  0.60890  1.0000 -0.5882505563
O   O5        1.0  0.42110  0.09210  0.89110  1.0000 -0.5882505563
O   O6        1.0  0.07890  0.09210  0.60890  1.0000 -0.5882505563
O   O7        1.0  0.92110  0.40790  0.10890  1.0000 -0.5882505563
O   O8        1.0  0.57890  0.40790  0.39110  1.0000 -0.5882505563
O   O9        1.0  0.54800  0.88010  0.17900  1.0000 -0.4596062724
O   O10       1.0  0.95200  0.88010  0.32100  1.0000 -0.4596062724
O   O11       1.0  0.04800  0.61990  0.82100  1.0000 -0.4596062724
O   O12       1.0  0.45200  0.61990  0.67900  1.0000 -0.4596062724
O   O13       1.0  0.45200  0.11990  0.82100  1.0000 -0.4596062724
O   O14       1.0  0.04800  0.11990  0.67900  1.0000 -0.4596062724
O   O15       1.0  0.95200  0.38010  0.17900  1.0000 -0.4596062724
O   O16       1.0  0.54800  0.38010  0.32100  1.0000 -0.4596062724
O   O17       1.0  0.53550  0.23760  0.32450  1.0000 -0.5024426442
O   O18       1.0  0.96450  0.23760  0.17550  1.0000 -0.5024426442
O   O19       1.0  0.03550  0.26240  0.67550  1.0000 -0.5024426442
O   O20       1.0  0.46450  0.26240  0.82450  1.0000 -0.5024426442
O   O21       1.0  0.46450  0.76240  0.67550  1.0000 -0.5024426442
O   O22       1.0  0.03550  0.76240  0.82450  1.0000 -0.5024426442
O   O23       1.0  0.96450  0.73760  0.32450  1.0000 -0.5024426442
O   O24       1.0  0.53550  0.73760  0.17550  1.0000 -0.5024426442
O   O25       1.0  0.53620  0.20830  0.39530  1.0000 -0.520939098
O   O26       1.0  0.96380  0.20830  0.10470  1.0000 -0.520939098
O   O27       1.0  0.03620  0.29170  0.60470  1.0000 -0.520939098
O   O28       1.0  0.46380  0.29170  0.89530  1.0000 -0.520939098
O   O29       1.0  0.46380  0.79170  0.60470  1.0000 -0.520939098
O   O30       1.0  0.03620  0.79170  0.89530  1.0000 -0.520939098
O   O31       1.0  0.96380  0.70830  0.39530  1.0000 -0.520939098
O   O32       1.0  0.53620  0.70830  0.10470  1.0000 -0.520939098
O   O33       1.0  0.65610  0.94120  0.37300  1.0000 -0.4946340483
O   O34       1.0  0.84390  0.94120  0.12700  1.0000 -0.4946340483
O   O35       1.0  0.15610  0.55880  0.62700  1.0000 -0.4946340483
O   O36       1.0  0.34390  0.55880  0.87300  1.0000 -0.4946340483
O   O37       1.0  0.34390  0.05880  0.62700  1.0000 -0.4946340483
O   O38       1.0  0.15610  0.05880  0.87300  1.0000 -0.4946340483
O   O39       1.0  0.84390  0.44120  0.37300  1.0000 -0.4946340483
O   O40       1.0  0.65610  0.44120  0.12700  1.0000 -0.4946340483
O   O41       1.0  0.69650  0.00490  0.42520  1.0000 -0.5304231655
O   O42       1.0  0.80350  0.00490  0.07480  1.0000 -0.5304231655
O   O43       1.0  0.19650  0.49510  0.57480  1.0000 -0.5304231655
O   O44       1.0  0.30350  0.49510  0.92520  1.0000 -0.5304231655
O   O45       1.0  0.30350  0.99510  0.57480  1.0000 -0.5304231655
O   O46       1.0  0.19650  0.99510  0.92520  1.0000 -0.5304231655
O   O47       1.0  0.80350  0.50490  0.42520  1.0000 -0.5304231655
O   O48       1.0  0.69650  0.50490  0.07480  1.0000 -0.5304231655
O   O49       1.0  0.44680  0.18740  0.96270  1.0000 -0.520939098
O   O50       1.0  0.05320  0.18740  0.53730  1.0000 -0.520939098
O   O51       1.0  0.94680  0.31260  0.03730  1.0000 -0.520939098
O   O52       1.0  0.55320  0.31260  0.46270  1.0000 -0.520939098
O   O53       1.0  0.55320  0.81260  0.03730  1.0000 -0.520939098
O   O54       1.0  0.94680  0.81260  0.46270  1.0000 -0.520939098
O   O55       1.0  0.05320  0.68740  0.96270  1.0000 -0.520939098
O   O56       1.0  0.44680  0.68740  0.53730  1.0000 -0.520939098
O   O57       1.0  0.37640  0.10390  0.99190  1.0000 -0.55238177
O   O58       1.0  0.12360  0.10390  0.50810  1.0000 -0.55238177
O   O59       1.0  0.87640  0.39610  0.00810  1.0000 -0.55238177
O   O60       1.0  0.62360  0.39610  0.49190  1.0000 -0.55238177
O   O61       1.0  0.62360  0.89610  0.00810  1.0000 -0.55238177
O   O62       1.0  0.87640  0.89610  0.49190  1.0000 -0.55238177
O   O63       1.0  0.12360  0.60390  0.99190  1.0000 -0.55238177
O   O64       1.0  0.37640  0.60390  0.50810  1.0000 -0.55238177
O   O65       1.0  0.75370  0.29020  0.12260  1.0000 -0.5304231655
O   O66       1.0  0.74630  0.29020  0.37740  1.0000 -0.5304231655
O   O67       1.0  0.25370  0.20980  0.87740  1.0000 -0.5304231655
O   O68       1.0  0.24630  0.20980  0.62260  1.0000 -0.5304231655
O   O69       1.0  0.24630  0.70980  0.87740  1.0000 -0.5304231655
O   O70       1.0  0.25370  0.70980  0.62260  1.0000 -0.5304231655
O   O71       1.0  0.74630  0.79020  0.12260  1.0000 -0.5304231655
O   O72       1.0  0.75370  0.79020  0.37740  1.0000 -0.5304231655
O   O73       1.0  0.66400  0.32020  0.05980  1.0000 -0.5304231655
O   O74       1.0  0.83600  0.32020  0.44020  1.0000 -0.5304231655
O   O75       1.0  0.16400  0.17980  0.94020  1.0000 -0.5304231655
O   O76       1.0  0.33600  0.17980  0.55980  1.0000 -0.5304231655
O   O77       1.0  0.33600  0.67980  0.94020  1.0000 -0.5304231655
O   O78       1.0  0.16400  0.67980  0.55980  1.0000 -0.5304231655
O   O79       1.0  0.83600  0.82020  0.05980  1.0000 -0.5304231655
O   O80       1.0  0.66400  0.82020  0.44020  1.0000 -0.5304231655
