# DDEC6 charges by PACMAN v1.1 (https://github.com/mtap-research/PACMAN-charge/)
data_2016[Mn][acs]3[ASR]1
_chemical_formula_sum              "Mn8 H24 C24 O48"
_cell_length_a       16.137
_cell_length_b       7.605
_cell_length_c       16.14
_cell_angle_alpha    90
_cell_angle_beta     119.984
_cell_angle_gamma    90

_symmetry_space_group_name_H-M    "P 1"
_symmetry_Int_Tables_number       1

loop_
  _symmetry_equiv_pos_as_xyz
  'x, y, z'

loop_
  _atom_site_type_symbol
  _atom_site_label
  _atom_site_symmetry_multiplicity
  _atom_site_fract_x
  _atom_site_fract_y
  _atom_site_fract_z
  _atom_site_occupancy
  _atom_site_charge
Mn  Mn1       1.0  0.81688  0.62330  0.66604  1.0000 0.9906180616
Mn  Mn2       1.0  0.18312  0.12330  0.33396  1.0000 0.9906180616
Mn  Mn3       1.0  0.66600  0.12340  0.84899  1.0000 0.9906180616
Mn  Mn4       1.0  0.33400  0.62340  0.15101  1.0000 0.9906180616
Mn  Mn5       1.0  0.15077  0.12341  0.81711  1.0000 0.9957856254
Mn  Mn6       1.0  0.84923  0.62341  0.18289  1.0000 0.9957856254
Mn  Mn7       1.0  0.33322  0.64278  0.66667  1.0000 0.9906180616
Mn  Mn8       1.0  0.66678  0.14278  0.33333  1.0000 0.9906180616
H   H1        1.0  0.00330  0.42180  0.77440  1.0000 0.1008055718
H   H2        1.0  0.99670  0.92180  0.22560  1.0000 0.1008055718
H   H3        1.0  0.71170  0.37540  0.72790  1.0000 0.1077531473
H   H4        1.0  0.28830  0.87540  0.27210  1.0000 0.1077531473
H   H5        1.0  0.20320  0.40500  0.70370  1.0000 0.1077531473
H   H6        1.0  0.79680  0.90500  0.29630  1.0000 0.1077531473
H   H7        1.0  0.75770  0.40690  0.49170  1.0000 0.1077531473
H   H8        1.0  0.24230  0.90690  0.50830  1.0000 0.1077531473
H   H9        1.0  0.77090  0.42270  0.99570  1.0000 0.1008055718
H   H10       1.0  0.22910  0.92270  0.00430  1.0000 0.1008055718
H   H11       1.0  0.50240  0.40590  0.79740  1.0000 0.1160817907
H   H12       1.0  0.49760  0.90590  0.20260  1.0000 0.1160817907
H   H13       1.0  0.98000  0.87810  0.70970  1.0000 0.1077531473
H   H14       1.0  0.02000  0.37810  0.29030  1.0000 0.1077531473
H   H15       1.0  0.26430  0.90500  0.76030  1.0000 0.1008055718
H   H16       1.0  0.73570  0.40500  0.23970  1.0000 0.1008055718
H   H17       1.0  0.27120  0.38190  0.98130  1.0000 0.1077531473
H   H18       1.0  0.72880  0.88190  0.01870  1.0000 0.1077531473
H   H19       1.0  0.49310  0.90580  0.73390  1.0000 0.1008055718
H   H20       1.0  0.50690  0.40580  0.26610  1.0000 0.1008055718
H   H21       1.0  0.29370  0.40750  0.49520  1.0000 0.1160817907
H   H22       1.0  0.70630  0.90750  0.50480  1.0000 0.1160817907
H   H23       1.0  0.77470  0.92050  0.77200  1.0000 0.1008055718
H   H24       1.0  0.22530  0.42050  0.22800  1.0000 0.1008055718
C   C1        1.0  0.98550  0.38750  0.71100  1.0000 0.5004939814
C   C2        1.0  0.01450  0.88750  0.28900  1.0000 0.5004939814
C   C3        1.0  0.77350  0.36810  0.78310  1.0000 0.5004939814
C   C4        1.0  0.22650  0.86810  0.21690  1.0000 0.5004939814
C   C5        1.0  0.26030  0.39740  0.76390  1.0000 0.5004939814
C   C6        1.0  0.73970  0.89740  0.23610  1.0000 0.5004939814
C   C7        1.0  0.69950  0.39420  0.49250  1.0000 0.4931701537
C   C8        1.0  0.30050  0.89420  0.50750  1.0000 0.4931701537
C   C9        1.0  0.72580  0.38820  0.01390  1.0000 0.5004939814
C   C10       1.0  0.27420  0.88820  0.98610  1.0000 0.5004939814
C   C11       1.0  0.50430  0.39630  0.73960  1.0000 0.5052770243
C   C12       1.0  0.49570  0.89630  0.26040  1.0000 0.5052770243
C   C13       1.0  0.98830  0.86850  0.77210  1.0000 0.5004939814
C   C14       1.0  0.01170  0.36850  0.22790  1.0000 0.5004939814
C   C15       1.0  0.20620  0.89450  0.70120  1.0000 0.4931701537
C   C16       1.0  0.79380  0.39450  0.29880  1.0000 0.4931701537
C   C17       1.0  0.21710  0.37000  0.98950  1.0000 0.5004939814
C   C18       1.0  0.78290  0.87000  0.01050  1.0000 0.5004939814
C   C19       1.0  0.49330  0.89430  0.79260  1.0000 0.4931701537
C   C20       1.0  0.50670  0.39430  0.20740  1.0000 0.4931701537
C   C21       1.0  0.23460  0.39680  0.49430  1.0000 0.5052770243
C   C22       1.0  0.76540  0.89680  0.50570  1.0000 0.5052770243
C   C23       1.0  0.71120  0.88730  0.72600  1.0000 0.5004939814
C   C24       1.0  0.28880  0.38730  0.27400  1.0000 0.5004939814
O   O1        1.0  0.78150  0.27600  0.85180  1.0000 -0.4792997881
O   O2        1.0  0.21850  0.77600  0.14820  1.0000 -0.4792997881
O   O3        1.0  0.91800  0.46940  0.64370  1.0000 -0.4792997881
O   O4        1.0  0.08200  0.96940  0.35630  1.0000 -0.4792997881
O   O5        1.0  0.26020  0.29430  0.82480  1.0000 -0.4792997881
O   O6        1.0  0.73980  0.79430  0.17520  1.0000 -0.4792997881
O   O7        1.0  0.03160  0.26340  0.70110  1.0000 -0.4698637989
O   O8        1.0  0.96840  0.76340  0.29890  1.0000 -0.4698637989
O   O9        1.0  0.32820  0.48970  0.77570  1.0000 -0.4521883301
O   O10       1.0  0.67180  0.98970  0.22430  1.0000 -0.4521883301
O   O11       1.0  0.83860  0.44930  0.78120  1.0000 -0.4521883301
O   O12       1.0  0.16140  0.94930  0.21880  1.0000 -0.4521883301
O   O13       1.0  0.92960  0.77620  0.78160  1.0000 -0.4792997881
O   O14       1.0  0.07040  0.27620  0.21840  1.0000 -0.4792997881
O   O15       1.0  0.22400  0.48850  0.55220  1.0000 -0.4596938363
O   O16       1.0  0.77600  0.98850  0.44780  1.0000 -0.4596938363
O   O17       1.0  0.13550  0.97820  0.69270  1.0000 -0.4596938363
O   O18       1.0  0.86450  0.47820  0.30730  1.0000 -0.4596938363
O   O19       1.0  0.43080  0.79630  0.79310  1.0000 -0.4792997881
O   O20       1.0  0.56920  0.29630  0.20690  1.0000 -0.4698637989
O   O21       1.0  0.64380  0.96920  0.72540  1.0000 -0.4698637989
O   O22       1.0  0.35620  0.46920  0.27460  1.0000 -0.4698637989
O   O23       1.0  0.69280  0.47760  0.55680  1.0000 -0.4698637989
O   O24       1.0  0.30720  0.97760  0.44320  1.0000 -0.4698637989
O   O25       1.0  0.14800  0.27600  0.92980  1.0000 -0.4792997881
O   O26       1.0  0.85200  0.77600  0.07020  1.0000 -0.4792997881
O   O27       1.0  0.66930  0.26320  0.96880  1.0000 -0.4698637989
O   O28       1.0  0.33070  0.76320  0.03120  1.0000 -0.4698637989
O   O29       1.0  0.72540  0.46910  0.08150  1.0000 -0.4792997881
O   O30       1.0  0.27460  0.96910  0.91850  1.0000 -0.4792997881
O   O31       1.0  0.20720  0.79710  0.63810  1.0000 -0.4792997881
O   O32       1.0  0.79280  0.29710  0.36190  1.0000 -0.4792997881
O   O33       1.0  0.55660  0.97890  0.86380  1.0000 -0.4698637989
O   O34       1.0  0.44340  0.47890  0.13620  1.0000 -0.4698637989
O   O35       1.0  0.44730  0.48790  0.67190  1.0000 -0.4521883301
O   O36       1.0  0.55270  0.98790  0.32810  1.0000 -0.4521883301
O   O37       1.0  0.05740  0.94980  0.83840  1.0000 -0.4698637989
O   O38       1.0  0.94260  0.44980  0.16160  1.0000 -0.4698637989
O   O39       1.0  0.21870  0.44690  0.05770  1.0000 -0.4521883301
O   O40       1.0  0.78130  0.94690  0.94230  1.0000 -0.4521883301
O   O41       1.0  0.63800  0.29790  0.43080  1.0000 -0.4596938363
O   O42       1.0  0.36200  0.79790  0.56920  1.0000 -0.4596938363
O   O43       1.0  0.17550  0.29350  0.43580  1.0000 -0.4596938363
O   O44       1.0  0.82450  0.79350  0.56420  1.0000 -0.4596938363
O   O45       1.0  0.56400  0.29250  0.73970  1.0000 -0.4698637989
O   O46       1.0  0.43600  0.79250  0.26030  1.0000 -0.4698637989
O   O47       1.0  0.70060  0.76330  0.66950  1.0000 -0.4698637989
O   O48       1.0  0.29940  0.26330  0.33050  1.0000 -0.4698637989
