# DDEC6 charges by PACMAN v1.1 (https://github.com/mtap-research/PACMAN-charge/)
data_2016[Tb][ths]3[ASR]1
_chemical_formula_sum              "Tb4 H48 C96 N12 O24"
_cell_length_a       8.3219
_cell_length_b       15.4318
_cell_length_c       29.3466
_cell_angle_alpha    90
_cell_angle_beta     102.994
_cell_angle_gamma    90

_symmetry_space_group_name_H-M    "P 1"
_symmetry_Int_Tables_number       1

loop_
  _symmetry_equiv_pos_as_xyz
  'x, y, z'

loop_
  _atom_site_type_symbol
  _atom_site_label
  _atom_site_symmetry_multiplicity
  _atom_site_fract_x
  _atom_site_fract_y
  _atom_site_fract_z
  _atom_site_occupancy
  _atom_site_charge
Tb  Tb1       1.0  0.05897  0.51306  0.78583  1.0000 1.9860282264
Tb  Tb2       1.0  0.05897  0.98694  0.28583  1.0000 1.9860282264
Tb  Tb3       1.0  0.94103  0.01306  0.71417  1.0000 1.9860282264
Tb  Tb4       1.0  0.94103  0.48694  0.21417  1.0000 1.9860282264
H   H1        1.0  0.96590  0.34050  0.91470  1.0000 0.1185166233
H   H2        1.0  0.96590  0.15950  0.41470  1.0000 0.1185166233
H   H3        1.0  0.89120  0.22010  0.95390  1.0000 0.1108318829
H   H4        1.0  0.89120  0.27990  0.45390  1.0000 0.1108318829
H   H5        1.0  0.66560  0.11730  0.82920  1.0000 0.1270197159
H   H6        1.0  0.66560  0.38270  0.32920  1.0000 0.1270197159
H   H7        1.0  0.74900  0.23260  0.78710  1.0000 0.1270197159
H   H8        1.0  0.74900  0.26740  0.28710  1.0000 0.1270197159
H   H9        1.0  0.97170  0.10240  0.04430  1.0000 0.1185166233
H   H10       1.0  0.97170  0.39760  0.54430  1.0000 0.1185166233
H   H11       1.0  0.06750  0.09430  0.12710  1.0000 0.1185166233
H   H12       1.0  0.06750  0.40570  0.62710  1.0000 0.1185166233
H   H13       1.0  0.74540  0.89990  0.13080  1.0000 0.1270197159
H   H14       1.0  0.74540  0.60010  0.63080  1.0000 0.1185166233
H   H15       1.0  0.66040  0.90120  0.04990  1.0000 0.1108318829
H   H16       1.0  0.66040  0.59880  0.54990  1.0000 0.1108318829
H   H17       1.0  0.58350  0.78760  0.94940  1.0000 0.1108318829
H   H18       1.0  0.58350  0.71240  0.44940  1.0000 0.1108318829
H   H19       1.0  0.43870  0.66780  0.91030  1.0000 0.1185166233
H   H20       1.0  0.43870  0.83220  0.41030  1.0000 0.1185166233
H   H21       1.0  0.27140  0.81680  0.79510  1.0000 0.1270197159
H   H22       1.0  0.27140  0.68320  0.29510  1.0000 0.1270197159
H   H23       1.0  0.40560  0.93580  0.83520  1.0000 0.1185166233
H   H24       1.0  0.40560  0.56420  0.33520  1.0000 0.1185166233
H   H25       1.0  0.03410  0.84050  0.58530  1.0000 0.1185166233
H   H26       1.0  0.03410  0.65950  0.08530  1.0000 0.1185166233
H   H27       1.0  0.10880  0.72010  0.54610  1.0000 0.1108318829
H   H28       1.0  0.10880  0.77990  0.04610  1.0000 0.1108318829
H   H29       1.0  0.33440  0.61730  0.67080  1.0000 0.1270197159
H   H30       1.0  0.33440  0.88270  0.17080  1.0000 0.1270197159
H   H31       1.0  0.25100  0.73260  0.71290  1.0000 0.1270197159
H   H32       1.0  0.25100  0.76740  0.21290  1.0000 0.1270197159
H   H33       1.0  0.02830  0.60240  0.45570  1.0000 0.1185166233
H   H34       1.0  0.02830  0.89760  0.95570  1.0000 0.1185166233
H   H35       1.0  0.93250  0.59430  0.37290  1.0000 0.1185166233
H   H36       1.0  0.93250  0.90570  0.87290  1.0000 0.1185166233
H   H37       1.0  0.25460  0.39990  0.36920  1.0000 0.1185166233
H   H38       1.0  0.25460  0.10010  0.86920  1.0000 0.1185166233
H   H39       1.0  0.33960  0.40120  0.45010  1.0000 0.1108318829
H   H40       1.0  0.33960  0.09880  0.95010  1.0000 0.1108318829
H   H41       1.0  0.41650  0.28760  0.55060  1.0000 0.1108318829
H   H42       1.0  0.41650  0.21240  0.05060  1.0000 0.1108318829
H   H43       1.0  0.56130  0.16780  0.58970  1.0000 0.1108318829
H   H44       1.0  0.56130  0.33220  0.08970  1.0000 0.1108318829
H   H45       1.0  0.72860  0.31680  0.70490  1.0000 0.1270197159
H   H46       1.0  0.72860  0.18320  0.20490  1.0000 0.1270197159
H   H47       1.0  0.59440  0.43580  0.66480  1.0000 0.1185166233
H   H48       1.0  0.59440  0.06420  0.16480  1.0000 0.1185166233
C   C1        1.0  0.91240  0.37840  0.82340  1.0000 0.5511211179
C   C2        1.0  0.91240  0.12160  0.32340  1.0000 0.5511211179
C   C3        1.0  0.86510  0.30190  0.84910  1.0000 0.0100694049
C   C4        1.0  0.86510  0.19810  0.34910  1.0000 0.0100694049
C   C5        1.0  0.90500  0.29490  0.89700  1.0000 -0.1096556466
C   C6        1.0  0.90500  0.20510  0.39700  1.0000 -0.1096556466
C   C7        1.0  0.86080  0.22380  0.92080  1.0000 -0.1096556466
C   C8        1.0  0.86080  0.27620  0.42080  1.0000 -0.1096556466
C   C9        1.0  0.76600  0.15590  0.89300  1.0000 0.0100694049
C   C10       1.0  0.76600  0.34410  0.39300  1.0000 0.0100694049
C   C11       1.0  0.72830  0.16290  0.84630  1.0000 -0.1012561486
C   C12       1.0  0.72830  0.33710  0.34630  1.0000 -0.1012561486
C   C13       1.0  0.77430  0.23160  0.82030  1.0000 -0.0801134171
C   C14       1.0  0.77430  0.26840  0.32030  1.0000 -0.0801134171
C   C15       1.0  0.72600  0.08050  0.92000  1.0000 0.3803102098
C   C16       1.0  0.72600  0.41950  0.42000  1.0000 0.3803102098
C   C17       1.0  0.74480  0.00900  0.98880  1.0000 0.3590879462
C   C18       1.0  0.74480  0.49100  0.48880  1.0000 0.3590879462
C   C19       1.0  0.60380  0.94800  0.92080  1.0000 0.3749688886
C   C20       1.0  0.60380  0.55200  0.42080  1.0000 0.3749688886
C   C21       1.0  0.80390  0.00440  0.03890  1.0000 0.0012991041
C   C22       1.0  0.80390  0.49560  0.53890  1.0000 0.0012991041
C   C23       1.0  0.92580  0.06100  0.06180  1.0000 -0.1157925629
C   C24       1.0  0.92580  0.43900  0.56180  1.0000 -0.1157925629
C   C25       1.0  0.98240  0.05690  0.11140  1.0000 -0.0801134171
C   C26       1.0  0.98240  0.44310  0.61140  1.0000 -0.0801134171
C   C27       1.0  0.90930  0.99580  0.13730  1.0000 -0.0344199218
C   C28       1.0  0.90930  0.50420  0.63730  1.0000 -0.0344199218
C   C29       1.0  0.79260  0.94100  0.11360  1.0000 -0.0909492687
C   C30       1.0  0.79260  0.55900  0.61360  1.0000 -0.0909492687
C   C31       1.0  0.73920  0.94210  0.06520  1.0000 -0.1096556466
C   C32       1.0  0.73920  0.55790  0.56520  1.0000 -0.1096556466
C   C33       1.0  0.96610  0.99350  0.18810  1.0000 0.5613513015
C   C34       1.0  0.96610  0.50650  0.68810  1.0000 0.5613513015
C   C35       1.0  0.51570  0.87320  0.89470  1.0000 0.0100694049
C   C36       1.0  0.51570  0.62680  0.39470  1.0000 0.0100694049
C   C37       1.0  0.52120  0.79350  0.91820  1.0000 -0.1096556466
C   C38       1.0  0.52120  0.70650  0.41820  1.0000 -0.1096556466
C   C39       1.0  0.43280  0.72210  0.89480  1.0000 -0.1096556466
C   C40       1.0  0.43280  0.77790  0.39480  1.0000 -0.1096556466
C   C41       1.0  0.33890  0.72940  0.85090  1.0000 -0.004863613
C   C42       1.0  0.33890  0.77060  0.35090  1.0000 -0.004863613
C   C43       1.0  0.33250  0.81110  0.82650  1.0000 -0.0909492687
C   C44       1.0  0.33250  0.68890  0.32650  1.0000 -0.0909492687
C   C45       1.0  0.41600  0.88070  0.85000  1.0000 -0.1012561486
C   C46       1.0  0.41600  0.61930  0.35000  1.0000 -0.1012561486
C   C47       1.0  0.25450  0.65250  0.82650  1.0000 0.5613513015
C   C48       1.0  0.25450  0.84750  0.32650  1.0000 0.5613513015
C   C49       1.0  0.08760  0.87840  0.67660  1.0000 0.5511211179
C   C50       1.0  0.08760  0.62160  0.17660  1.0000 0.5511211179
C   C51       1.0  0.13490  0.80190  0.65090  1.0000 0.0100694049
C   C52       1.0  0.13490  0.69810  0.15090  1.0000 0.0100694049
C   C53       1.0  0.09500  0.79490  0.60300  1.0000 -0.1096556466
C   C54       1.0  0.09500  0.70510  0.10300  1.0000 -0.1096556466
C   C55       1.0  0.13920  0.72380  0.57920  1.0000 -0.1096556466
C   C56       1.0  0.13920  0.77620  0.07920  1.0000 -0.1096556466
C   C57       1.0  0.23400  0.65590  0.60700  1.0000 0.0100694049
C   C58       1.0  0.23400  0.84410  0.10700  1.0000 0.0100694049
C   C59       1.0  0.27170  0.66290  0.65370  1.0000 -0.1012561486
C   C60       1.0  0.27170  0.83710  0.15370  1.0000 -0.1012561486
C   C61       1.0  0.22570  0.73160  0.67970  1.0000 -0.0801134171
C   C62       1.0  0.22570  0.76840  0.17970  1.0000 -0.0801134171
C   C63       1.0  0.27400  0.58050  0.58000  1.0000 0.3803102098
C   C64       1.0  0.27400  0.91950  0.08000  1.0000 0.3803102098
C   C65       1.0  0.25520  0.50900  0.51120  1.0000 0.3590879462
C   C66       1.0  0.25520  0.99100  0.01120  1.0000 0.3590879462
C   C67       1.0  0.39620  0.44800  0.57920  1.0000 0.3749688886
C   C68       1.0  0.39620  0.05200  0.07920  1.0000 0.3749688886
C   C69       1.0  0.19610  0.50440  0.46110  1.0000 0.0012991041
C   C70       1.0  0.19610  0.99560  0.96110  1.0000 0.0012991041
C   C71       1.0  0.07420  0.56100  0.43820  1.0000 -0.1157925629
C   C72       1.0  0.07420  0.93900  0.93820  1.0000 -0.1157925629
C   C73       1.0  0.01760  0.55690  0.38860  1.0000 -0.0801134171
C   C74       1.0  0.01760  0.94310  0.88860  1.0000 -0.0801134171
C   C75       1.0  0.09070  0.49580  0.36270  1.0000 -0.0344199218
C   C76       1.0  0.09070  0.00420  0.86270  1.0000 -0.0344199218
C   C77       1.0  0.20740  0.44100  0.38640  1.0000 -0.0909492687
C   C78       1.0  0.20740  0.05900  0.88640  1.0000 -0.0909492687
C   C79       1.0  0.26080  0.44210  0.43480  1.0000 -0.1096556466
C   C80       1.0  0.26080  0.05790  0.93480  1.0000 -0.1096556466
C   C81       1.0  0.03390  0.49350  0.31190  1.0000 0.5613513015
C   C82       1.0  0.03390  0.00650  0.81190  1.0000 0.5613513015
C   C83       1.0  0.48430  0.37320  0.60530  1.0000 0.0100694049
C   C84       1.0  0.48430  0.12680  0.10530  1.0000 0.0100694049
C   C85       1.0  0.47880  0.29350  0.58180  1.0000 -0.1096556466
C   C86       1.0  0.47880  0.20650  0.08180  1.0000 -0.1096556466
C   C87       1.0  0.56720  0.22210  0.60520  1.0000 -0.1096556466
C   C88       1.0  0.56720  0.27790  0.10520  1.0000 -0.1096556466
C   C89       1.0  0.66110  0.22940  0.64910  1.0000 -0.004863613
C   C90       1.0  0.66110  0.27060  0.14910  1.0000 -0.004863613
C   C91       1.0  0.66750  0.31110  0.67350  1.0000 -0.0909492687
C   C92       1.0  0.66750  0.18890  0.17350  1.0000 -0.0909492687
C   C93       1.0  0.58400  0.38070  0.65000  1.0000 -0.1012561486
C   C94       1.0  0.58400  0.11930  0.15000  1.0000 -0.1012561486
C   C95       1.0  0.74550  0.15250  0.67350  1.0000 0.5613513015
C   C96       1.0  0.74550  0.34750  0.17350  1.0000 0.5613513015
N   N1        1.0  0.77730  0.08130  0.96560  1.0000 -0.4111806529
N   N2        1.0  0.77730  0.41870  0.46560  1.0000 -0.4111806529
N   N3        1.0  0.65810  0.94170  0.96710  1.0000 -0.4111806529
N   N4        1.0  0.65810  0.55830  0.46710  1.0000 -0.4111806529
N   N5        1.0  0.63430  0.01570  0.89380  1.0000 -0.4111806529
N   N6        1.0  0.63430  0.48430  0.39380  1.0000 -0.4111806529
N   N7        1.0  0.22270  0.58130  0.53440  1.0000 -0.4111806529
N   N8        1.0  0.22270  0.91870  0.03440  1.0000 -0.4111806529
N   N9        1.0  0.34190  0.44170  0.53290  1.0000 -0.4111806529
N   N10       1.0  0.34190  0.05830  0.03290  1.0000 -0.4111806529
N   N11       1.0  0.36570  0.51570  0.60620  1.0000 -0.4111806529
N   N12       1.0  0.36570  0.98430  0.10620  1.0000 -0.4111806529
O   O1        1.0  0.00670  0.43510  0.85040  1.0000 -0.6768653669
O   O2        1.0  0.00670  0.06490  0.35040  1.0000 -0.6768653669
O   O3        1.0  0.88130  0.38570  0.78090  1.0000 -0.577381713
O   O4        1.0  0.88130  0.11430  0.28090  1.0000 -0.577381713
O   O5        1.0  0.09570  0.03600  0.20940  1.0000 -0.6397895567
O   O6        1.0  0.09570  0.46400  0.70940  1.0000 -0.6397895567
O   O7        1.0  0.88150  0.95550  0.21110  1.0000 -0.5885714718
O   O8        1.0  0.88150  0.54450  0.71110  1.0000 -0.5885714718
O   O9        1.0  0.21690  0.59370  0.85270  1.0000 -0.6397895567
O   O10       1.0  0.21690  0.90630  0.35270  1.0000 -0.6397895567
O   O11       1.0  0.21280  0.64900  0.78230  1.0000 -0.6244871594
O   O12       1.0  0.21280  0.85100  0.28230  1.0000 -0.6254690268
O   O13       1.0  0.99330  0.93510  0.64960  1.0000 -0.6768653669
O   O14       1.0  0.99330  0.56490  0.14960  1.0000 -0.6768653669
O   O15       1.0  0.11870  0.88570  0.71910  1.0000 -0.577381713
O   O16       1.0  0.11870  0.61430  0.21910  1.0000 -0.577381713
O   O17       1.0  0.90430  0.53600  0.29060  1.0000 -0.6397895567
O   O18       1.0  0.90430  0.96400  0.79060  1.0000 -0.6397895567
O   O19       1.0  0.11850  0.45550  0.28890  1.0000 -0.5885714718
O   O20       1.0  0.11850  0.04450  0.78890  1.0000 -0.5885714718
O   O21       1.0  0.78310  0.09370  0.64730  1.0000 -0.6397895567
O   O22       1.0  0.78310  0.40630  0.14730  1.0000 -0.6397895567
O   O23       1.0  0.78720  0.14900  0.71770  1.0000 -0.6244871594
O   O24       1.0  0.78720  0.35100  0.21770  1.0000 -0.6244871594
