# DDEC6 charges by PACMAN v1.1 (https://github.com/mtap-research/PACMAN-charge/)
data_2016[Mn][dia]3[ASR]1
_chemical_formula_sum              "Mn4 H100 C156 N4 O24"
_cell_length_a       10.4094
_cell_length_b       10.4094
_cell_length_c       37.475
_cell_angle_alpha    90
_cell_angle_beta     90
_cell_angle_gamma    100.395

_symmetry_space_group_name_H-M    "P 1"
_symmetry_Int_Tables_number       1

loop_
  _symmetry_equiv_pos_as_xyz
  'x, y, z'

loop_
  _atom_site_type_symbol
  _atom_site_label
  _atom_site_symmetry_multiplicity
  _atom_site_fract_x
  _atom_site_fract_y
  _atom_site_fract_z
  _atom_site_occupancy
  _atom_site_charge
Mn  Mn1       1.0  0.99717  0.27477  0.97164  1.0000 1.0368567568
Mn  Mn2       1.0  0.72523  0.00283  0.02836  1.0000 1.0368567568
Mn  Mn3       1.0  0.49717  0.77477  0.52836  1.0000 1.0368567568
Mn  Mn4       1.0  0.22523  0.50283  0.47164  1.0000 1.0368567568
H   H1        1.0  0.13140  0.89940  0.75230  1.0000 0.1268652167
H   H2        1.0  0.10060  0.86860  0.24770  1.0000 0.1268652167
H   H3        1.0  0.63140  0.39940  0.74770  1.0000 0.1268652167
H   H4        1.0  0.60060  0.36860  0.25230  1.0000 0.1268652167
H   H5        1.0  0.85300  0.61780  0.67950  1.0000 0.1196797993
H   H6        1.0  0.38220  0.14700  0.32050  1.0000 0.1196797993
H   H7        1.0  0.35300  0.11780  0.82050  1.0000 0.1196797993
H   H8        1.0  0.88220  0.64700  0.17950  1.0000 0.1196797993
H   H9        1.0  0.83830  0.63150  0.79460  1.0000 0.1196797993
H   H10       1.0  0.36850  0.16170  0.20540  1.0000 0.1196797993
H   H11       1.0  0.33830  0.13150  0.70540  1.0000 0.1196797993
H   H12       1.0  0.86850  0.66170  0.29460  1.0000 0.1196797993
H   H13       1.0  0.28240  0.32880  0.86930  1.0000 0.1029695234
H   H14       1.0  0.67120  0.71760  0.13070  1.0000 0.1029695234
H   H15       1.0  0.78240  0.82880  0.63070  1.0000 0.1029695234
H   H16       1.0  0.17120  0.21760  0.36930  1.0000 0.1029695234
H   H17       1.0  0.77290  0.70270  0.73010  1.0000 0.1196797993
H   H18       1.0  0.29730  0.22710  0.26990  1.0000 0.1196797993
H   H19       1.0  0.27290  0.20270  0.76990  1.0000 0.1196797993
H   H20       1.0  0.79730  0.72710  0.23010  1.0000 0.1196797993
H   H21       1.0  0.30020  0.64820  0.93070  1.0000 0.1196797993
H   H22       1.0  0.35180  0.69980  0.06930  1.0000 0.1196797993
H   H23       1.0  0.80020  0.14820  0.56930  1.0000 0.1196797993
H   H24       1.0  0.85180  0.19980  0.43070  1.0000 0.1196797993
H   H25       1.0  0.22000  0.69020  0.78600  1.0000 0.1119413824
H   H26       1.0  0.30980  0.78000  0.21400  1.0000 0.1119413824
H   H27       1.0  0.72000  0.19020  0.71400  1.0000 0.1119413824
H   H28       1.0  0.80980  0.28000  0.28600  1.0000 0.1119413824
H   H29       1.0  0.15210  0.48090  0.76650  1.0000 0.1119413824
H   H30       1.0  0.51910  0.84790  0.23350  1.0000 0.1119413824
H   H31       1.0  0.65210  0.98090  0.73350  1.0000 0.1119413824
H   H32       1.0  0.01910  0.34790  0.26650  1.0000 0.1119413824
H   H33       1.0  0.20670  0.81530  0.70080  1.0000 0.1119413824
H   H34       1.0  0.18470  0.79330  0.29920  1.0000 0.1119413824
H   H35       1.0  0.70670  0.31530  0.79920  1.0000 0.1119413824
H   H36       1.0  0.68470  0.29330  0.20080  1.0000 0.1119413824
H   H37       1.0  0.98790  0.29530  0.74800  1.0000 0.1196797993
H   H38       1.0  0.70470  0.01210  0.25200  1.0000 0.1196797993
H   H39       1.0  0.48790  0.79530  0.75200  1.0000 0.1196797993
H   H40       1.0  0.20470  0.51210  0.24800  1.0000 0.1196797993
H   H41       1.0  0.44550  0.44190  0.83260  1.0000 0.1029695234
H   H42       1.0  0.55810  0.55450  0.16740  1.0000 0.1029695234
H   H43       1.0  0.94550  0.94190  0.66740  1.0000 0.1029695234
H   H44       1.0  0.05810  0.05450  0.33260  1.0000 0.1029695234
H   H45       1.0  0.46230  0.75850  0.89450  1.0000 0.1119413824
H   H46       1.0  0.24150  0.53770  0.10550  1.0000 0.1119413824
H   H47       1.0  0.96230  0.25850  0.60550  1.0000 0.1119413824
H   H48       1.0  0.74150  0.03770  0.39450  1.0000 0.1119413824
H   H49       1.0  0.99670  0.54390  0.57360  1.0000 0.1268652167
H   H50       1.0  0.45610  0.00330  0.42640  1.0000 0.1268652167
H   H51       1.0  0.49670  0.04390  0.92640  1.0000 0.1268652167
H   H52       1.0  0.95610  0.50330  0.07360  1.0000 0.1268652167
H   H53       1.0  0.52990  0.85910  0.83830  1.0000 0.1119413824
H   H54       1.0  0.14090  0.47010  0.16170  1.0000 0.1119413824
H   H55       1.0  0.02990  0.35910  0.66170  1.0000 0.1119413824
H   H56       1.0  0.64090  0.97010  0.33830  1.0000 0.1119413824
H   H57       1.0  0.69920  0.96360  0.80400  1.0000 0.1196797993
H   H58       1.0  0.03640  0.30080  0.19600  1.0000 0.1196797993
H   H59       1.0  0.19920  0.46360  0.69600  1.0000 0.1196797993
H   H60       1.0  0.53640  0.80080  0.30400  1.0000 0.1196797993
H   H61       1.0  0.96470  0.39350  0.85740  1.0000 0.1196797993
H   H62       1.0  0.60650  0.03530  0.14260  1.0000 0.1196797993
H   H63       1.0  0.46470  0.89350  0.64260  1.0000 0.1196797993
H   H64       1.0  0.10650  0.53530  0.35740  1.0000 0.1196797993
H   H65       1.0  0.66450  0.52550  0.83020  1.0000 0.1119413824
H   H66       1.0  0.47450  0.33550  0.16980  1.0000 0.1119413824
H   H67       1.0  0.16450  0.02550  0.66980  1.0000 0.1119413824
H   H68       1.0  0.97450  0.83550  0.33020  1.0000 0.1119413824
H   H69       1.0  0.92140  0.59020  0.62880  1.0000 0.1119413824
H   H70       1.0  0.40980  0.07860  0.37120  1.0000 0.1119413824
H   H71       1.0  0.42140  0.09020  0.87120  1.0000 0.1119413824
H   H72       1.0  0.90980  0.57860  0.12880  1.0000 0.1119413824
H   H73       1.0  0.02200  0.60180  0.87610  1.0000 0.1196797993
H   H74       1.0  0.39820  0.97800  0.12390  1.0000 0.1196797993
H   H75       1.0  0.52200  0.10180  0.62390  1.0000 0.1196797993
H   H76       1.0  0.89820  0.47800  0.37610  1.0000 0.1196797993
H   H77       1.0  0.98060  0.98520  0.83580  1.0000 0.1196797993
H   H78       1.0  0.01480  0.01940  0.16420  1.0000 0.1196797993
H   H79       1.0  0.48060  0.48520  0.66420  1.0000 0.1196797993
H   H80       1.0  0.51480  0.51940  0.33580  1.0000 0.1196797993
H   H81       1.0  0.04790  0.19770  0.84770  1.0000 0.1268652167
H   H82       1.0  0.80230  0.95210  0.15230  1.0000 0.1268652167
H   H83       1.0  0.54790  0.69770  0.65230  1.0000 0.1268652167
H   H84       1.0  0.30230  0.45210  0.34770  1.0000 0.1268652167
H   H85       1.0  0.36100  0.66260  0.60730  1.0000 0.1196797993
H   H86       1.0  0.33740  0.63900  0.39270  1.0000 0.1196797993
H   H87       1.0  0.86100  0.16260  0.89270  1.0000 0.1196797993
H   H88       1.0  0.83740  0.13900  0.10730  1.0000 0.1196797993
H   H89       1.0  0.93150  0.07870  0.73340  1.0000 0.1268652167
H   H90       1.0  0.92130  0.06850  0.26660  1.0000 0.1268652167
H   H91       1.0  0.43150  0.57870  0.76660  1.0000 0.1268652167
H   H92       1.0  0.42130  0.56850  0.23340  1.0000 0.1268652167
H   H93       1.0  0.27770  0.71770  0.66110  1.0000 0.1029695234
H   H94       1.0  0.28230  0.72230  0.33890  1.0000 0.1029695234
H   H95       1.0  0.77770  0.21770  0.83890  1.0000 0.1029695234
H   H96       1.0  0.78230  0.22230  0.16110  1.0000 0.1029695234
H   H97       1.0  0.15250  0.90350  0.88200  1.0000 0.3584980827
H   H98       1.0  0.09650  0.84750  0.11800  1.0000 0.3584980827
H   H99       1.0  0.65250  0.40350  0.61800  1.0000 0.3584980827
H   H100      1.0  0.59650  0.34750  0.38200  1.0000 0.3584980827
C   C1        1.0  0.94190  0.81230  0.74608  1.0000 0.175694288
C   C2        1.0  0.18770  0.05810  0.25392  1.0000 0.175694288
C   C3        1.0  0.44190  0.31230  0.75392  1.0000 0.175694288
C   C4        1.0  0.68770  0.55810  0.24608  1.0000 0.175694288
C   C5        1.0  0.03840  0.70660  0.68552  1.0000 0.0598699527
C   C6        1.0  0.29340  0.96160  0.31448  1.0000 0.0598699527
C   C7        1.0  0.53840  0.20660  0.81448  1.0000 0.0598699527
C   C8        1.0  0.79340  0.46160  0.18552  1.0000 0.0598699527
C   C9        1.0  0.05590  0.40970  0.80996  1.0000 0.0711872142
C   C10       1.0  0.59030  0.94410  0.19004  1.0000 0.0711872142
C   C11       1.0  0.55590  0.90970  0.69004  1.0000 0.0711872142
C   C12       1.0  0.09030  0.44410  0.30996  1.0000 0.0711872142
C   C13       1.0  0.57890  0.67890  0.83798  1.0000 0.0598699527
C   C14       1.0  0.32110  0.42110  0.16202  1.0000 0.0598699527
C   C15       1.0  0.07890  0.17890  0.66202  1.0000 0.0598699527
C   C16       1.0  0.82110  0.92110  0.33798  1.0000 0.0598699527
C   C17       1.0  0.02160  0.27120  0.80019  1.0000 0.0484020722
C   C18       1.0  0.72880  0.97840  0.19981  1.0000 0.0484020722
C   C19       1.0  0.52160  0.77120  0.69981  1.0000 0.0484020722
C   C20       1.0  0.22880  0.47840  0.30019  1.0000 0.0484020722
C   C21       1.0  0.07410  0.84410  0.73760  1.0000 -0.1815164509
C   C22       1.0  0.15590  0.92590  0.26240  1.0000 -0.1815164509
C   C23       1.0  0.57410  0.34410  0.76240  1.0000 -0.1815164509
C   C24       1.0  0.65590  0.42590  0.23760  1.0000 -0.1815164509
C   C25       1.0  0.90910  0.67470  0.69410  1.0000 -0.1219438328
C   C26       1.0  0.32530  0.09090  0.30590  1.0000 -0.1219438328
C   C27       1.0  0.40910  0.17470  0.80590  1.0000 -0.1219438328
C   C28       1.0  0.82530  0.59090  0.19410  1.0000 -0.1219438328
C   C29       1.0  0.77720  0.67820  0.80355  1.0000 -0.1815164509
C   C30       1.0  0.32180  0.22280  0.19645  1.0000 -0.1815164509
C   C31       1.0  0.27720  0.17820  0.69645  1.0000 -0.1815164509
C   C32       1.0  0.82180  0.72280  0.30355  1.0000 -0.1815164509
C   C33       1.0  0.31980  0.41460  0.87470  1.0000 -0.0970724335
C   C34       1.0  0.58540  0.68020  0.12530  1.0000 -0.0970724335
C   C35       1.0  0.81980  0.91460  0.62530  1.0000 -0.0970724335
C   C36       1.0  0.08540  0.18020  0.37470  1.0000 -0.0970724335
C   C37       1.0  0.47210  0.61130  0.85966  1.0000 0.0711872142
C   C38       1.0  0.38870  0.52790  0.14034  1.0000 0.0711872142
C   C39       1.0  0.97210  0.11130  0.64034  1.0000 0.0711872142
C   C40       1.0  0.88870  0.02790  0.35966  1.0000 0.0711872142
C   C41       1.0  0.18730  0.59950  0.58485  1.0000 -0.0222368359
C   C42       1.0  0.40050  0.81270  0.41515  1.0000 -0.0222368359
C   C43       1.0  0.68730  0.09950  0.91515  1.0000 -0.0222368359
C   C44       1.0  0.90050  0.31270  0.08485  1.0000 -0.0222368359
C   C45       1.0  0.09160  0.66320  0.64999  1.0000 0.0711872142
C   C46       1.0  0.33680  0.90840  0.35001  1.0000 0.0711872142
C   C47       1.0  0.59160  0.16320  0.85001  1.0000 0.0711872142
C   C48       1.0  0.83680  0.40840  0.14999  1.0000 0.0711872142
C   C49       1.0  0.27850  0.47430  0.90511  1.0000 -0.0264762596
C   C50       1.0  0.52570  0.72150  0.09489  1.0000 -0.0264762596
C   C51       1.0  0.77850  0.97430  0.59489  1.0000 -0.0264762596
C   C52       1.0  0.02570  0.22150  0.40511  1.0000 -0.0264762596
C   C53       1.0  0.86090  0.72630  0.72439  1.0000 -0.1815164509
C   C54       1.0  0.27370  0.13910  0.27561  1.0000 -0.1815164509
C   C55       1.0  0.36090  0.22630  0.77561  1.0000 -0.1815164509
C   C56       1.0  0.77370  0.63910  0.22439  1.0000 -0.1815164509
C   C57       1.0  0.78830  0.80770  0.79637  1.0000 0.1687591702
C   C58       1.0  0.19230  0.21170  0.20363  1.0000 0.1687591702
C   C59       1.0  0.28830  0.30770  0.70363  1.0000 0.1687591702
C   C60       1.0  0.69230  0.71170  0.29637  1.0000 0.1687591702
C   C61       1.0  0.33040  0.60540  0.91154  1.0000 -0.0931305278
C   C62       1.0  0.39460  0.66960  0.08846  1.0000 -0.0931305278
C   C63       1.0  0.83040  0.10540  0.58846  1.0000 -0.0931305278
C   C64       1.0  0.89460  0.16960  0.41154  1.0000 -0.0931305278
C   C65       1.0  0.16750  0.63050  0.80070  1.0000 -0.1075664524
C   C66       1.0  0.36950  0.83250  0.19930  1.0000 -0.1075664524
C   C67       1.0  0.66750  0.13050  0.69930  1.0000 -0.1075664524
C   C68       1.0  0.86950  0.33250  0.30070  1.0000 -0.1075664524
C   C69       1.0  0.12820  0.50340  0.78927  1.0000 -0.1500349229
C   C70       1.0  0.49660  0.87180  0.21073  1.0000 -0.1500349229
C   C71       1.0  0.62820  0.00340  0.71073  1.0000 -0.1500349229
C   C72       1.0  0.99660  0.37180  0.28927  1.0000 -0.1500349229
C   C73       1.0  0.11910  0.79170  0.70691  1.0000 -0.1500349229
C   C74       1.0  0.20830  0.88090  0.29309  1.0000 -0.1500349229
C   C75       1.0  0.61910  0.29170  0.79309  1.0000 -0.1500349229
C   C76       1.0  0.70830  0.38090  0.20691  1.0000 -0.1500349229
C   C77       1.0  0.98680  0.23240  0.76569  1.0000 -0.138578248
C   C78       1.0  0.76760  0.01320  0.23431  1.0000 -0.138578248
C   C79       1.0  0.48680  0.73240  0.73431  1.0000 -0.138578248
C   C80       1.0  0.26760  0.51320  0.26569  1.0000 -0.138578248
C   C81       1.0  0.41750  0.48330  0.85240  1.0000 -0.1500349229
C   C82       1.0  0.51670  0.58250  0.14760  1.0000 -0.1500349229
C   C83       1.0  0.91750  0.98330  0.64760  1.0000 -0.1500349229
C   C84       1.0  0.01670  0.08250  0.35240  1.0000 -0.1500349229
C   C85       1.0  0.42690  0.67190  0.88947  1.0000 -0.138578248
C   C86       1.0  0.32810  0.57310  0.11053  1.0000 -0.138578248
C   C87       1.0  0.92690  0.17190  0.61053  1.0000 -0.138578248
C   C88       1.0  0.82810  0.07310  0.38947  1.0000 -0.138578248
C   C89       1.0  0.05530  0.57830  0.59130  1.0000 -0.0970724335
C   C90       1.0  0.42170  0.94470  0.40870  1.0000 -0.0970724335
C   C91       1.0  0.55530  0.07830  0.90870  1.0000 -0.0970724335
C   C92       1.0  0.92170  0.44470  0.09130  1.0000 -0.0970724335
C   C93       1.0  0.59160  0.81240  0.82975  1.0000 -0.1219438328
C   C94       1.0  0.18760  0.40840  0.17025  1.0000 -0.1219438328
C   C95       1.0  0.09160  0.31240  0.67025  1.0000 -0.1219438328
C   C96       1.0  0.68760  0.90840  0.32975  1.0000 -0.1219438328
C   C97       1.0  0.94190  0.00810  0.78226  1.0000 0.1687591702
C   C98       1.0  0.99190  0.05810  0.21774  1.0000 0.1687591702
C   C99       1.0  0.44190  0.50810  0.71774  1.0000 0.1687591702
C   C100      1.0  0.49190  0.55810  0.28226  1.0000 0.1687591702
C   C101      1.0  0.69340  0.87540  0.80930  1.0000 -0.1815164509
C   C102      1.0  0.12460  0.30660  0.19070  1.0000 -0.1815164509
C   C103      1.0  0.19340  0.37540  0.69070  1.0000 -0.1815164509
C   C104      1.0  0.62460  0.80660  0.30930  1.0000 -0.1815164509
C   C105      1.0  0.23900  0.57740  0.54810  1.0000 0.5966309171
C   C106      1.0  0.42260  0.76100  0.45190  1.0000 0.5966309171
C   C107      1.0  0.73900  0.07740  0.95190  1.0000 0.5966309171
C   C108      1.0  0.92260  0.26100  0.04810  1.0000 0.5966309171
C   C109      1.0  0.17450  0.40030  0.92860  1.0000 0.5453861218
C   C110      1.0  0.59970  0.82550  0.07140  1.0000 0.5443493785
C   C111      1.0  0.67450  0.90030  0.57140  1.0000 0.5443493785
C   C112      1.0  0.09970  0.32550  0.42860  1.0000 0.5443493785
C   C113      1.0  0.01700  0.45320  0.84270  1.0000 -0.138578248
C   C114      1.0  0.54680  0.98300  0.15730  1.0000 -0.138578248
C   C115      1.0  0.51700  0.95320  0.65730  1.0000 -0.138578248
C   C116      1.0  0.04680  0.48300  0.34270  1.0000 -0.138578248
C   C117      1.0  0.13000  0.66980  0.83350  1.0000 -0.0511056434
C   C118      1.0  0.33020  0.87000  0.16650  1.0000 -0.0511056434
C   C119      1.0  0.63000  0.16980  0.66650  1.0000 -0.0511056434
C   C120      1.0  0.83020  0.37000  0.33350  1.0000 -0.0511056434
C   C121      1.0  0.67070  0.61370  0.82506  1.0000 -0.138578248
C   C122      1.0  0.38630  0.32930  0.17494  1.0000 -0.138578248
C   C123      1.0  0.17070  0.11370  0.67494  1.0000 -0.138578248
C   C124      1.0  0.88630  0.82930  0.32506  1.0000 -0.138578248
C   C125      1.0  0.01060  0.60840  0.62429  1.0000 -0.1500349229
C   C126      1.0  0.39160  0.98940  0.37571  1.0000 -0.1500349229
C   C127      1.0  0.51060  0.10840  0.87571  1.0000 -0.1500349229
C   C128      1.0  0.89160  0.48940  0.12429  1.0000 -0.1500349229
C   C129      1.0  0.05150  0.57790  0.85410  1.0000 -0.0970724335
C   C130      1.0  0.42210  0.94850  0.14590  1.0000 -0.0970724335
C   C131      1.0  0.55150  0.07790  0.64590  1.0000 -0.0970724335
C   C132      1.0  0.92210  0.44850  0.35410  1.0000 -0.0970724335
C   C133      1.0  0.98160  0.04700  0.81787  1.0000 -0.160332701
C   C134      1.0  0.95300  0.01840  0.18213  1.0000 -0.160332701
C   C135      1.0  0.48160  0.54700  0.68213  1.0000 -0.160332701
C   C136      1.0  0.45300  0.51840  0.31787  1.0000 -0.160332701
C   C137      1.0  0.02010  0.17390  0.82462  1.0000 -0.1219438328
C   C138      1.0  0.82610  0.97990  0.17538  1.0000 -0.1219438328
C   C139      1.0  0.52010  0.67390  0.67538  1.0000 -0.1219438328
C   C140      1.0  0.32610  0.47990  0.32462  1.0000 -0.1219438328
C   C141      1.0  0.27120  0.64980  0.61090  1.0000 -0.0970724335
C   C142      1.0  0.35020  0.72880  0.38910  1.0000 -0.0970724335
C   C143      1.0  0.77120  0.14980  0.88910  1.0000 -0.0970724335
C   C144      1.0  0.85020  0.22880  0.11090  1.0000 -0.0970724335
C   C145      1.0  0.17810  0.80710  0.84410  1.0000 0.5257643324
C   C146      1.0  0.19290  0.82190  0.15590  1.0000 0.5257643324
C   C147      1.0  0.67810  0.30710  0.65590  1.0000 0.5257643324
C   C148      1.0  0.69290  0.32190  0.34410  1.0000 0.5257643324
C   C149      1.0  0.95040  0.10220  0.75702  1.0000 -0.1704674054
C   C150      1.0  0.89780  0.04960  0.24298  1.0000 -0.1704674054
C   C151      1.0  0.45040  0.60220  0.74298  1.0000 -0.1704674054
C   C152      1.0  0.39780  0.54960  0.25702  1.0000 -0.1704674054
C   C153      1.0  0.22010  0.68170  0.64323  1.0000 -0.160332701
C   C154      1.0  0.31830  0.77990  0.35677  1.0000 -0.160332701
C   C155      1.0  0.72010  0.18170  0.85677  1.0000 -0.160332701
C   C156      1.0  0.81830  0.27990  0.14323  1.0000 -0.160332701
N   N1        1.0  0.89380  0.87260  0.77557  1.0000 -0.1815164509
N   N2        1.0  0.12740  0.10620  0.22443  1.0000 -0.1704674054
N   N3        1.0  0.39380  0.37260  0.72443  1.0000 -0.1815164509
N   N4        1.0  0.62740  0.60620  0.27557  1.0000 -0.1815164509
O   O1        1.0  0.11120  0.29240  0.91899  1.0000 -0.5752279598
O   O2        1.0  0.70760  0.88880  0.08101  1.0000 -0.5752279598
O   O3        1.0  0.61120  0.79240  0.58101  1.0000 -0.5752279598
O   O4        1.0  0.20760  0.38880  0.41899  1.0000 -0.5752279598
O   O5        1.0  0.15050  0.45270  0.95823  1.0000 -0.5631280977
O   O6        1.0  0.54730  0.84950  0.04177  1.0000 -0.5631280977
O   O7        1.0  0.65050  0.95270  0.54177  1.0000 -0.5631280977
O   O8        1.0  0.04730  0.34950  0.45823  1.0000 -0.5631280977
O   O9        1.0  0.36140  0.60620  0.54299  1.0000 -0.5935453463
O   O10       1.0  0.39380  0.63860  0.45701  1.0000 -0.5935453463
O   O11       1.0  0.86140  0.10620  0.95701  1.0000 -0.5935453463
O   O12       1.0  0.89380  0.13860  0.04299  1.0000 -0.5935453463
O   O13       1.0  0.16000  0.52220  0.52473  1.0000 -0.5383120317
O   O14       1.0  0.47780  0.84000  0.47527  1.0000 -0.5383120317
O   O15       1.0  0.66000  0.02220  0.97527  1.0000 -0.5383120317
O   O16       1.0  0.97780  0.34000  0.02473  1.0000 -0.5383120317
O   O17       1.0  0.12380  0.82880  0.87538  1.0000 -0.4187434751
O   O18       1.0  0.17120  0.87620  0.12462  1.0000 -0.4187434751
O   O19       1.0  0.62380  0.32880  0.62462  1.0000 -0.4187434751
O   O20       1.0  0.67120  0.37620  0.37538  1.0000 -0.4187434751
O   O21       1.0  0.25090  0.88550  0.82884  1.0000 -0.4600326631
O   O22       1.0  0.11450  0.74910  0.17116  1.0000 -0.4600326631
O   O23       1.0  0.75090  0.38550  0.67116  1.0000 -0.4600326631
O   O24       1.0  0.61450  0.24910  0.32884  1.0000 -0.4600326631
