# DDEC6 charges by PACMAN v1.1 (https://github.com/mtap-research/PACMAN-charge/)
data_2016[Zn][pcu]3[ASR]19
_chemical_formula_sum              "Zn8 H64 C96 S8 N8 O32"
_cell_length_a       18.9667
_cell_length_b       18.9667
_cell_length_c       13.7141
_cell_angle_alpha    69.819
_cell_angle_beta     110.181
_cell_angle_gamma    132.202

_symmetry_space_group_name_H-M    "P 1"
_symmetry_Int_Tables_number       1

loop_
  _symmetry_equiv_pos_as_xyz
  'x, y, z'

loop_
  _atom_site_type_symbol
  _atom_site_label
  _atom_site_symmetry_multiplicity
  _atom_site_fract_x
  _atom_site_fract_y
  _atom_site_fract_z
  _atom_site_occupancy
  _atom_site_charge
Zn  Zn1       1.0  0.89128  0.66734  0.56584  1.0000 0.8402595466
Zn  Zn2       1.0  0.33266  0.10872  0.06584  1.0000 0.8402595466
Zn  Zn3       1.0  0.92167  0.51875  0.64487  1.0000 0.8402595466
Zn  Zn4       1.0  0.48125  0.07833  0.14487  1.0000 0.8402595466
Zn  Zn5       1.0  0.66734  0.89128  0.93416  1.0000 0.8402595466
Zn  Zn6       1.0  0.10872  0.33266  0.43416  1.0000 0.8402595466
Zn  Zn7       1.0  0.51875  0.92167  0.85513  1.0000 0.8402595466
Zn  Zn8       1.0  0.07833  0.48125  0.35513  1.0000 0.8402595466
H   H1        1.0  0.60950  0.47830  0.69630  1.0000 0.1285572607
H   H2        1.0  0.52170  0.39050  0.19630  1.0000 0.1285572607
H   H3        1.0  0.48670  0.35050  0.80840  1.0000 0.1285572607
H   H4        1.0  0.64950  0.51330  0.30840  1.0000 0.1285572607
H   H5        1.0  0.05830  0.49810  0.63030  1.0000 0.1195962162
H   H6        1.0  0.50190  0.94170  0.13030  1.0000 0.1195962162
H   H7        1.0  0.10620  0.40560  0.70560  1.0000 0.1285572607
H   H8        1.0  0.59440  0.89380  0.20560  1.0000 0.1285572607
H   H9        1.0  0.90080  0.24040  0.88150  1.0000 0.1285572607
H   H10       1.0  0.75960  0.09920  0.38150  1.0000 0.1285572607
H   H11       1.0  0.85840  0.33740  0.80450  1.0000 0.1195962162
H   H12       1.0  0.66260  0.14160  0.30450  1.0000 0.1195962162
H   H13       1.0  0.98670  0.18730  0.87660  1.0000 0.1195962162
H   H14       1.0  0.81270  0.01330  0.37660  1.0000 0.1195962162
H   H15       1.0  0.08490  0.27650  0.92410  1.0000 0.1195962162
H   H16       1.0  0.72350  0.91510  0.42410  1.0000 0.1195962162
H   H17       1.0  0.04730  0.21550  0.74370  1.0000 0.1195962162
H   H18       1.0  0.78450  0.95270  0.24370  1.0000 0.1195962162
H   H19       1.0  0.14010  0.31890  0.76700  1.0000 0.1285572607
H   H20       1.0  0.68110  0.85990  0.26700  1.0000 0.1285572607
H   H21       1.0  0.18000  0.69200  0.87830  1.0000 0.1410085915
H   H22       1.0  0.30800  0.82000  0.37830  1.0000 0.1410085915
H   H23       1.0  0.30520  0.81280  0.98980  1.0000 0.1285572607
H   H24       1.0  0.18720  0.69480  0.48980  1.0000 0.1285572607
H   H25       1.0  0.13240  0.02660  0.95300  1.0000 0.1119659266
H   H26       1.0  0.97340  0.86760  0.45300  1.0000 0.1119659266
H   H27       1.0  0.04610  0.07730  0.85220  1.0000 0.1410085915
H   H28       1.0  0.92270  0.95390  0.35220  1.0000 0.1410085915
H   H29       1.0  0.27200  0.33980  0.90080  1.0000 0.1455962306
H   H30       1.0  0.66020  0.72800  0.40080  1.0000 0.1455962306
H   H31       1.0  0.35740  0.28620  0.99570  1.0000 0.1195962162
H   H32       1.0  0.71380  0.64260  0.49570  1.0000 0.1195962162
H   H33       1.0  0.47830  0.60950  0.80370  1.0000 0.1285572607
H   H34       1.0  0.39050  0.52170  0.30370  1.0000 0.1285572607
H   H35       1.0  0.35050  0.48670  0.69160  1.0000 0.1285572607
H   H36       1.0  0.51330  0.64950  0.19160  1.0000 0.1285572607
H   H37       1.0  0.49810  0.05830  0.86970  1.0000 0.1195962162
H   H38       1.0  0.94170  0.50190  0.36970  1.0000 0.1195962162
H   H39       1.0  0.40560  0.10620  0.79440  1.0000 0.1285572607
H   H40       1.0  0.89380  0.59440  0.29440  1.0000 0.1285572607
H   H41       1.0  0.24040  0.90080  0.61850  1.0000 0.1285572607
H   H42       1.0  0.09920  0.75960  0.11850  1.0000 0.1285572607
H   H43       1.0  0.33740  0.85840  0.69550  1.0000 0.1195962162
H   H44       1.0  0.14160  0.66260  0.19550  1.0000 0.1195962162
H   H45       1.0  0.18730  0.98670  0.62340  1.0000 0.1195962162
H   H46       1.0  0.01330  0.81270  0.12340  1.0000 0.1195962162
H   H47       1.0  0.27650  0.08490  0.57590  1.0000 0.1195962162
H   H48       1.0  0.91510  0.72350  0.07590  1.0000 0.1195962162
H   H49       1.0  0.21550  0.04730  0.75630  1.0000 0.1195962162
H   H50       1.0  0.95270  0.78450  0.25630  1.0000 0.1195962162
H   H51       1.0  0.31890  0.14010  0.73300  1.0000 0.1285572607
H   H52       1.0  0.85990  0.68110  0.23300  1.0000 0.1285572607
H   H53       1.0  0.69200  0.18000  0.62170  1.0000 0.1410085915
H   H54       1.0  0.82000  0.30800  0.12170  1.0000 0.1410085915
H   H55       1.0  0.81280  0.30520  0.51020  1.0000 0.1285572607
H   H56       1.0  0.69480  0.18720  0.01020  1.0000 0.1285572607
H   H57       1.0  0.02660  0.13240  0.54700  1.0000 0.1119659266
H   H58       1.0  0.86760  0.97340  0.04700  1.0000 0.1119659266
H   H59       1.0  0.07730  0.04610  0.64780  1.0000 0.1410085915
H   H60       1.0  0.95390  0.92270  0.14780  1.0000 0.1410085915
H   H61       1.0  0.33980  0.27200  0.59920  1.0000 0.1455962306
H   H62       1.0  0.72800  0.66020  0.09920  1.0000 0.1455962306
H   H63       1.0  0.28620  0.35740  0.50430  1.0000 0.1195962162
H   H64       1.0  0.64260  0.71380  0.00430  1.0000 0.1195962162
C   C1        1.0  0.76170  0.48190  0.70130  1.0000 0.5984300917
C   C2        1.0  0.51810  0.23830  0.20130  1.0000 0.5984300917
C   C3        1.0  0.67734  0.41826  0.75440  1.0000 -0.1302287069
C   C4        1.0  0.58174  0.32266  0.25440  1.0000 -0.1302287069
C   C5        1.0  0.60900  0.42860  0.74220  1.0000 -0.1203324416
C   C6        1.0  0.57140  0.39100  0.24220  1.0000 -0.1203324416
C   C7        1.0  0.53840  0.35520  0.80730  1.0000 -0.1302287069
C   C8        1.0  0.64480  0.46160  0.30730  1.0000 -0.1302287069
C   C9        1.0  0.55460  0.29160  0.86870  1.0000 -0.1302287069
C   C10       1.0  0.70840  0.44540  0.36870  1.0000 -0.1302287069
C   C11       1.0  0.49950  0.21110  0.95160  1.0000 0.5745492076
C   C12       1.0  0.78890  0.50050  0.45160  1.0000 0.5745492076
C   C13       1.0  0.02640  0.44600  0.68260  1.0000 0.0943768352
C   C14       1.0  0.55400  0.97360  0.18260  1.0000 0.0943768352
C   C15       1.0  0.05550  0.39030  0.72760  1.0000 -0.1846609244
C   C16       1.0  0.60970  0.94450  0.22760  1.0000 -0.1846609244
C   C17       1.0  0.01050  0.31310  0.80420  1.0000 0.1602238288
C   C18       1.0  0.68690  0.98950  0.30420  1.0000 0.1602238288
C   C19       1.0  0.93500  0.29360  0.83110  1.0000 -0.2017435467
C   C20       1.0  0.70640  0.06500  0.33110  1.0000 -0.2017435467
C   C21       1.0  0.90940  0.35200  0.78410  1.0000 0.0973690229
C   C22       1.0  0.64800  0.09060  0.28410  1.0000 0.0973690229
C   C23       1.0  0.04300  0.25340  0.85870  1.0000 -0.2300325835
C   C24       1.0  0.74660  0.95700  0.35870  1.0000 -0.2300325835
C   C25       1.0  0.09350  0.25330  0.79960  1.0000 -0.2371691221
C   C26       1.0  0.74670  0.90650  0.29960  1.0000 -0.2371691221
C   C27       1.0  0.02440  0.68640  0.75800  1.0000 0.590249615
C   C28       1.0  0.31360  0.97560  0.25800  1.0000 0.590249615
C   C29       1.0  0.10680  0.74400  0.83830  1.0000 -0.1203324416
C   C30       1.0  0.25600  0.89320  0.33830  1.0000 -0.1203324416
C   C31       1.0  0.29650  0.94910  0.00800  1.0000 0.590249615
C   C32       1.0  0.05090  0.70350  0.50800  1.0000 0.590249615
C   C33       1.0  0.23343  0.86537  0.95230  1.0000 -0.1302287069
C   C34       1.0  0.13463  0.76657  0.45230  1.0000 -0.1302287069
C   C35       1.0  0.17900  0.73780  0.88720  1.0000 -0.1203324416
C   C36       1.0  0.26220  0.82100  0.38720  1.0000 -0.1203324416
C   C37       1.0  0.25080  0.80700  0.95140  1.0000 -0.1203324416
C   C38       1.0  0.19300  0.74920  0.45140  1.0000 -0.1203324416
C   C39       1.0  0.16170  0.09150  0.94440  1.0000 0.0943768352
C   C40       1.0  0.90850  0.83830  0.44440  1.0000 0.0943768352
C   C41       1.0  0.10920  0.12200  0.88310  1.0000 -0.2300325835
C   C42       1.0  0.87800  0.89080  0.38310  1.0000 -0.2300325835
C   C43       1.0  0.14570  0.21250  0.86700  1.0000 0.1602238288
C   C44       1.0  0.78750  0.85430  0.36700  1.0000 0.1602238288
C   C45       1.0  0.24140  0.27440  0.91120  1.0000 -0.2105125466
C   C46       1.0  0.72560  0.75860  0.41120  1.0000 -0.2105125466
C   C47       1.0  0.29220  0.24240  0.96970  1.0000 0.0639112016
C   C48       1.0  0.75760  0.70780  0.46970  1.0000 0.0639112016
C   C49       1.0  0.48190  0.76170  0.79870  1.0000 0.5984300917
C   C50       1.0  0.23830  0.51810  0.29870  1.0000 0.5984300917
C   C51       1.0  0.41826  0.67734  0.74560  1.0000 -0.1302287069
C   C52       1.0  0.32266  0.58174  0.24560  1.0000 -0.1302287069
C   C53       1.0  0.42860  0.60900  0.75780  1.0000 -0.1203324416
C   C54       1.0  0.39100  0.57140  0.25780  1.0000 -0.1203324416
C   C55       1.0  0.35520  0.53840  0.69270  1.0000 -0.1302287069
C   C56       1.0  0.46160  0.64480  0.19270  1.0000 -0.1302287069
C   C57       1.0  0.29160  0.55460  0.63130  1.0000 -0.1302287069
C   C58       1.0  0.44540  0.70840  0.13130  1.0000 -0.1302287069
C   C59       1.0  0.21110  0.49950  0.54840  1.0000 0.5745492076
C   C60       1.0  0.50050  0.78890  0.04840  1.0000 0.5745492076
C   C61       1.0  0.44600  0.02640  0.81740  1.0000 0.0943768352
C   C62       1.0  0.97360  0.55400  0.31740  1.0000 0.0943768352
C   C63       1.0  0.39030  0.05550  0.77240  1.0000 -0.1846609244
C   C64       1.0  0.94450  0.60970  0.27240  1.0000 -0.1846609244
C   C65       1.0  0.31310  0.01050  0.69580  1.0000 0.1602238288
C   C66       1.0  0.98950  0.68690  0.19580  1.0000 0.1602238288
C   C67       1.0  0.29360  0.93500  0.66890  1.0000 -0.2017435467
C   C68       1.0  0.06500  0.70640  0.16890  1.0000 -0.2017435467
C   C69       1.0  0.35200  0.90940  0.71590  1.0000 0.0973690229
C   C70       1.0  0.09060  0.64800  0.21590  1.0000 0.0973690229
C   C71       1.0  0.25340  0.04300  0.64130  1.0000 -0.2300325835
C   C72       1.0  0.95700  0.74660  0.14130  1.0000 -0.2300325835
C   C73       1.0  0.25330  0.09350  0.70040  1.0000 -0.2371691221
C   C74       1.0  0.90650  0.74670  0.20040  1.0000 -0.2371691221
C   C75       1.0  0.68640  0.02440  0.74200  1.0000 0.590249615
C   C76       1.0  0.97560  0.31360  0.24200  1.0000 0.590249615
C   C77       1.0  0.74400  0.10680  0.66170  1.0000 -0.1203324416
C   C78       1.0  0.89320  0.25600  0.16170  1.0000 -0.1203324416
C   C79       1.0  0.94910  0.29650  0.49200  1.0000 0.590249615
C   C80       1.0  0.70350  0.05090  0.99200  1.0000 0.590249615
C   C81       1.0  0.86537  0.23343  0.54770  1.0000 -0.1302287069
C   C82       1.0  0.76657  0.13463  0.04770  1.0000 -0.1302287069
C   C83       1.0  0.73780  0.17900  0.61280  1.0000 -0.1203324416
C   C84       1.0  0.82100  0.26220  0.11280  1.0000 -0.1203324416
C   C85       1.0  0.80700  0.25080  0.54860  1.0000 -0.1203324416
C   C86       1.0  0.74920  0.19300  0.04860  1.0000 -0.1203324416
C   C87       1.0  0.09150  0.16170  0.55560  1.0000 0.0943768352
C   C88       1.0  0.83830  0.90850  0.05560  1.0000 0.0943768352
C   C89       1.0  0.12200  0.10920  0.61690  1.0000 -0.2300325835
C   C90       1.0  0.89080  0.87800  0.11690  1.0000 -0.2300325835
C   C91       1.0  0.21250  0.14570  0.63300  1.0000 0.1602238288
C   C92       1.0  0.85430  0.78750  0.13300  1.0000 0.1602238288
C   C93       1.0  0.27440  0.24140  0.58880  1.0000 -0.2105125466
C   C94       1.0  0.75860  0.72560  0.08880  1.0000 -0.2105125466
C   C95       1.0  0.24240  0.29220  0.53030  1.0000 0.0639112016
C   C96       1.0  0.70780  0.75760  0.03030  1.0000 0.0639112016
S   S1        1.0  0.65488  0.32014  0.84555  1.0000 0.1602238288
S   S2        1.0  0.67986  0.34512  0.34555  1.0000 0.1602238288
S   S3        1.0  0.12775  0.83635  0.87187  1.0000 0.1195962162
S   S4        1.0  0.16365  0.87225  0.37187  1.0000 0.1195962162
S   S5        1.0  0.32014  0.65488  0.65445  1.0000 0.1602238288
S   S6        1.0  0.34512  0.67986  0.15445  1.0000 0.1602238288
S   S7        1.0  0.83635  0.12775  0.62813  1.0000 0.1195962162
S   S8        1.0  0.87225  0.16365  0.12813  1.0000 0.1195962162
N   N1        1.0  0.95439  0.42861  0.71060  1.0000 -0.2216707373
N   N2        1.0  0.57139  0.04561  0.21060  1.0000 -0.2216707373
N   N3        1.0  0.24829  0.14731  0.98980  1.0000 -0.2017435467
N   N4        1.0  0.85269  0.75171  0.48980  1.0000 -0.2017435467
N   N5        1.0  0.42861  0.95439  0.78940  1.0000 -0.2216707373
N   N6        1.0  0.04561  0.57139  0.28940  1.0000 -0.2216707373
N   N7        1.0  0.14731  0.24829  0.51020  1.0000 -0.2017435467
N   N8        1.0  0.75171  0.85269  0.01020  1.0000 -0.2017435467
O   O1        1.0  0.80833  0.45347  0.71490  1.0000 -0.5452312583
O   O2        1.0  0.54653  0.19167  0.21490  1.0000 -0.5452312583
O   O3        1.0  0.78041  0.55899  0.64690  1.0000 -0.5298226381
O   O4        1.0  0.44101  0.21959  0.14690  1.0000 -0.5298226381
O   O5        1.0  0.53758  0.17422  0.01300  1.0000 -0.5298226381
O   O6        1.0  0.82578  0.46242  0.51300  1.0000 -0.5298226381
O   O7        1.0  0.42093  0.18747  0.95260  1.0000 -0.5298226381
O   O8        1.0  0.81253  0.57907  0.45260  1.0000 -0.5298226381
O   O9        1.0  0.00876  0.61324  0.75020  1.0000 -0.5298226381
O   O10       1.0  0.38676  0.99124  0.25020  1.0000 -0.5298226381
O   O11       1.0  0.97818  0.71682  0.70260  1.0000 -0.5452312583
O   O12       1.0  0.28318  0.02182  0.20260  1.0000 -0.5452312583
O   O13       1.0  0.37779  0.97401  0.05370  1.0000 -0.5233250612
O   O14       1.0  0.02599  0.62221  0.55370  1.0000 -0.5233250612
O   O15       1.0  0.26206  0.98854  0.00520  1.0000 -0.5599111074
O   O16       1.0  0.01146  0.73794  0.50520  1.0000 -0.5599111074
O   O17       1.0  0.45347  0.80833  0.78510  1.0000 -0.5452312583
O   O18       1.0  0.19167  0.54653  0.28510  1.0000 -0.5452312583
O   O19       1.0  0.55899  0.78041  0.85310  1.0000 -0.5298226381
O   O20       1.0  0.21959  0.44101  0.35310  1.0000 -0.5298226381
O   O21       1.0  0.17422  0.53758  0.48700  1.0000 -0.5298226381
O   O22       1.0  0.46242  0.82578  0.98700  1.0000 -0.5298226381
O   O23       1.0  0.18747  0.42093  0.54740  1.0000 -0.5298226381
O   O24       1.0  0.57907  0.81253  0.04740  1.0000 -0.5298226381
O   O25       1.0  0.61324  0.00876  0.74980  1.0000 -0.5298226381
O   O26       1.0  0.99124  0.38676  0.24980  1.0000 -0.5298226381
O   O27       1.0  0.71682  0.97818  0.79740  1.0000 -0.5452312583
O   O28       1.0  0.02182  0.28318  0.29740  1.0000 -0.5452312583
O   O29       1.0  0.97401  0.37779  0.44630  1.0000 -0.5233250612
O   O30       1.0  0.62221  0.02599  0.94630  1.0000 -0.5233250612
O   O31       1.0  0.98854  0.26206  0.49480  1.0000 -0.5599111074
O   O32       1.0  0.73794  0.01146  0.99480  1.0000 -0.5599111074
