# DDEC6 charges by PACMAN v1.1 (https://github.com/mtap-research/PACMAN-charge/)
data_2016[Zn][nan]3[ASR]1
_chemical_formula_sum              "Zn6 H100 C108 N24 O24"
_cell_length_a       15.39
_cell_length_b       15.39
_cell_length_c       18.9522
_cell_angle_alpha    58.343
_cell_angle_beta     121.657
_cell_angle_gamma    113.909

_symmetry_space_group_name_H-M    "P 1"
_symmetry_Int_Tables_number       1

loop_
  _symmetry_equiv_pos_as_xyz
  'x, y, z'

loop_
  _atom_site_type_symbol
  _atom_site_label
  _atom_site_symmetry_multiplicity
  _atom_site_fract_x
  _atom_site_fract_y
  _atom_site_fract_z
  _atom_site_occupancy
  _atom_site_charge
Zn  Zn1       1.0  0.03903  0.03903  0.75000  1.0000 0.7694826992
Zn  Zn2       1.0  0.96097  0.96097  0.25000  1.0000 0.7694826992
Zn  Zn3       1.0  0.74161  0.27783  0.70747  1.0000 0.7694826992
Zn  Zn4       1.0  0.27783  0.74161  0.79253  1.0000 0.7694826992
Zn  Zn5       1.0  0.25839  0.72217  0.29253  1.0000 0.7694826992
Zn  Zn6       1.0  0.72217  0.25839  0.20747  1.0000 0.7694826992
H   H1        1.0  0.16690  0.07930  0.06040  1.0000 0.109564142
H   H2        1.0  0.07930  0.16690  0.43960  1.0000 0.109564142
H   H3        1.0  0.83310  0.92070  0.93960  1.0000 0.109564142
H   H4        1.0  0.92070  0.83310  0.56040  1.0000 0.109564142
H   H5        1.0  0.14390  0.39750  0.74610  1.0000 0.1209707024
H   H6        1.0  0.39750  0.14390  0.75390  1.0000 0.1209707024
H   H7        1.0  0.85610  0.60250  0.25390  1.0000 0.1209707024
H   H8        1.0  0.60250  0.85610  0.24610  1.0000 0.1209707024
H   H9        1.0  0.92610  0.10210  0.53980  1.0000 0.1296073754
H   H10       1.0  0.10210  0.92610  0.96020  1.0000 0.1296073754
H   H11       1.0  0.07390  0.89790  0.46020  1.0000 0.1296073754
H   H12       1.0  0.89790  0.07390  0.03980  1.0000 0.1296073754
H   H13       1.0  0.02710  0.49390  0.44250  1.0000 0.109564142
H   H14       1.0  0.49390  0.02710  0.05750  1.0000 0.109564142
H   H15       1.0  0.97290  0.50610  0.55750  1.0000 0.109564142
H   H16       1.0  0.50610  0.97290  0.94250  1.0000 0.109564142
H   H17       1.0  0.92310  0.52430  0.41120  1.0000 0.109564142
H   H18       1.0  0.52430  0.92310  0.08880  1.0000 0.109564142
H   H19       1.0  0.07690  0.47570  0.58880  1.0000 0.109564142
H   H20       1.0  0.47570  0.07690  0.91120  1.0000 0.109564142
H   H21       1.0  0.97470  0.32630  0.53650  1.0000 0.1296073754
H   H22       1.0  0.32630  0.97470  0.96350  1.0000 0.1296073754
H   H23       1.0  0.02530  0.67370  0.46350  1.0000 0.1296073754
H   H24       1.0  0.67370  0.02530  0.03650  1.0000 0.1296073754
H   H25       1.0  0.89530  0.35210  0.43520  1.0000 0.1209707024
H   H26       1.0  0.35210  0.89530  0.06480  1.0000 0.1209707024
H   H27       1.0  0.10470  0.64790  0.56480  1.0000 0.1209707024
H   H28       1.0  0.64790  0.10470  0.93520  1.0000 0.1209707024
H   H29       1.0  0.79850  0.03010  0.70010  1.0000 0.1209707024
H   H30       1.0  0.03010  0.79850  0.79990  1.0000 0.1209707024
H   H31       1.0  0.20150  0.96990  0.29990  1.0000 0.1209707024
H   H32       1.0  0.96990  0.20150  0.20010  1.0000 0.1209707024
H   H33       1.0  0.91070  0.29850  0.64820  1.0000 0.1209707024
H   H34       1.0  0.29850  0.91070  0.85180  1.0000 0.1209707024
H   H35       1.0  0.08930  0.70150  0.35180  1.0000 0.1209707024
H   H36       1.0  0.70150  0.08930  0.14820  1.0000 0.1209707024
H   H37       1.0  0.57360  0.93420  0.56490  1.0000 0.1020346098
H   H38       1.0  0.93420  0.57360  0.93510  1.0000 0.1020346098
H   H39       1.0  0.42640  0.06580  0.43510  1.0000 0.1020346098
H   H40       1.0  0.06580  0.42640  0.06490  1.0000 0.1020346098
H   H41       1.0  0.56090  0.00130  0.46400  1.0000 0.1020346098
H   H42       1.0  0.00130  0.56090  0.03600  1.0000 0.1020346098
H   H43       1.0  0.43910  0.99870  0.53600  1.0000 0.1020346098
H   H44       1.0  0.99870  0.43910  0.96400  1.0000 0.1020346098
H   H45       1.0  0.64120  0.42540  0.70610  1.0000 0.1209707024
H   H46       1.0  0.42540  0.64120  0.79390  1.0000 0.1209707024
H   H47       1.0  0.35880  0.57460  0.29390  1.0000 0.1209707024
H   H48       1.0  0.57460  0.35880  0.20610  1.0000 0.1209707024
H   H49       1.0  0.71280  0.39600  0.39250  1.0000 0.1296073754
H   H50       1.0  0.39600  0.71280  0.10750  1.0000 0.1296073754
H   H51       1.0  0.28720  0.60400  0.60750  1.0000 0.1296073754
H   H52       1.0  0.60400  0.28720  0.89250  1.0000 0.1296073754
H   H53       1.0  0.62990  0.36130  0.48670  1.0000 0.1209707024
H   H54       1.0  0.36130  0.62990  0.01330  1.0000 0.1209707024
H   H55       1.0  0.37010  0.63870  0.51330  1.0000 0.1209707024
H   H56       1.0  0.63870  0.37010  0.98670  1.0000 0.1209707024
H   H57       1.0  0.62580  0.08560  0.58890  1.0000 0.1209707024
H   H58       1.0  0.08560  0.62580  0.91110  1.0000 0.1209707024
H   H59       1.0  0.37420  0.91440  0.41110  1.0000 0.1209707024
H   H60       1.0  0.91440  0.37420  0.08890  1.0000 0.1209707024
H   H61       1.0  0.61220  0.15320  0.48770  1.0000 0.109564142
H   H62       1.0  0.15320  0.61220  0.01230  1.0000 0.109564142
H   H63       1.0  0.38780  0.84680  0.51230  1.0000 0.109564142
H   H64       1.0  0.84680  0.38780  0.98770  1.0000 0.109564142
H   H65       1.0  0.90620  0.62600  0.73220  1.0000 0.1381287199
H   H66       1.0  0.62600  0.90620  0.76780  1.0000 0.1381287199
H   H67       1.0  0.09380  0.37400  0.26780  1.0000 0.1381287199
H   H68       1.0  0.37400  0.09380  0.23220  1.0000 0.1381287199
H   H69       1.0  0.92920  0.46820  0.74770  1.0000 0.1381287199
H   H70       1.0  0.46820  0.92920  0.75230  1.0000 0.1381287199
H   H71       1.0  0.07080  0.53180  0.25230  1.0000 0.1381287199
H   H72       1.0  0.53180  0.07080  0.24770  1.0000 0.1381287199
H   H73       1.0  0.74940  0.13420  0.44510  1.0000 0.1381287199
H   H74       1.0  0.13420  0.74940  0.05490  1.0000 0.1381287199
H   H75       1.0  0.25060  0.86580  0.55490  1.0000 0.1381287199
H   H76       1.0  0.86580  0.25060  0.94510  1.0000 0.1381287199
H   H77       1.0  0.09030  0.25450  0.00550  1.0000 0.1020346098
H   H78       1.0  0.25450  0.09030  0.49450  1.0000 0.1020346098
H   H79       1.0  0.90970  0.74550  0.99450  1.0000 0.1020346098
H   H80       1.0  0.74550  0.90970  0.50550  1.0000 0.1020346098
H   H81       1.0  0.16140  0.42740  0.95000  1.0000 0.109564142
H   H82       1.0  0.42740  0.16140  0.55000  1.0000 0.109564142
H   H83       1.0  0.83860  0.57260  0.05000  1.0000 0.109564142
H   H84       1.0  0.57260  0.83860  0.45000  1.0000 0.109564142
H   H85       1.0  0.67080  0.55160  0.80010  1.0000 0.1020346098
H   H86       1.0  0.55160  0.67080  0.69990  1.0000 0.1020346098
H   H87       1.0  0.32920  0.44840  0.19990  1.0000 0.1020346098
H   H88       1.0  0.44840  0.32920  0.30010  1.0000 0.1020346098
H   H89       1.0  0.76540  0.64400  0.80360  1.0000 0.1020346098
H   H90       1.0  0.64400  0.76540  0.69640  1.0000 0.1020346098
H   H91       1.0  0.23460  0.35600  0.19640  1.0000 0.1020346098
H   H92       1.0  0.35600  0.23460  0.30360  1.0000 0.1020346098
H   H93       1.0  0.62580  0.61360  0.64750  1.0000 0.109564142
H   H94       1.0  0.61360  0.62580  0.85250  1.0000 0.109564142
H   H95       1.0  0.37420  0.38640  0.35250  1.0000 0.109564142
H   H96       1.0  0.38640  0.37420  0.14750  1.0000 0.109564142
H   H97       1.0  0.72840  0.69580  0.65860  1.0000 0.1209707024
H   H98       1.0  0.69580  0.72840  0.84140  1.0000 0.1209707024
H   H99       1.0  0.27160  0.30420  0.34140  1.0000 0.1209707024
H   H100      1.0  0.30420  0.27160  0.15860  1.0000 0.1209707024
C   C1        1.0  0.09230  0.26354  0.83197  1.0000 -0.0543463867
C   C2        1.0  0.26354  0.09230  0.66803  1.0000 -0.0543463867
C   C3        1.0  0.90770  0.73646  0.16803  1.0000 -0.0543463867
C   C4        1.0  0.73646  0.90770  0.33197  1.0000 -0.0543463867
C   C5        1.0  0.03169  0.10701  0.95374  1.0000 0.061418235
C   C6        1.0  0.10701  0.03169  0.54626  1.0000 0.061418235
C   C7        1.0  0.96831  0.89299  0.04626  1.0000 0.061418235
C   C8        1.0  0.89299  0.96831  0.45374  1.0000 0.061418235
C   C9        1.0  0.92917  0.05825  0.91765  1.0000 -0.0543463867
C   C10       1.0  0.05825  0.92917  0.58235  1.0000 -0.0607131536
C   C11       1.0  0.07083  0.94175  0.08235  1.0000 -0.0607131536
C   C12       1.0  0.94175  0.07083  0.41765  1.0000 -0.0543463867
C   C13       1.0  0.07359  0.21961  0.91032  1.0000 0.0814843671
C   C14       1.0  0.21961  0.07359  0.58968  1.0000 0.0749009099
C   C15       1.0  0.92641  0.78039  0.08968  1.0000 0.0749009099
C   C16       1.0  0.78039  0.92641  0.41032  1.0000 0.0814843671
C   C17       1.0  0.07526  0.20262  0.78294  1.0000 0.5434691008
C   C18       1.0  0.20262  0.07526  0.71706  1.0000 0.5434691008
C   C19       1.0  0.92474  0.79738  0.21706  1.0000 0.5434691008
C   C20       1.0  0.79738  0.92474  0.28294  1.0000 0.5434691008
C   C21       1.0  0.09912  0.04722  0.03550  1.0000 -0.1623213723
C   C22       1.0  0.04722  0.09912  0.46450  1.0000 -0.1623213723
C   C23       1.0  0.90088  0.95278  0.96450  1.0000 -0.1623213723
C   C24       1.0  0.95278  0.90088  0.53550  1.0000 -0.1623213723
C   C25       1.0  0.84495  0.11411  0.83259  1.0000 0.5599584949
C   C26       1.0  0.11411  0.84495  0.66741  1.0000 0.5599584949
C   C27       1.0  0.15505  0.88589  0.16741  1.0000 0.5599584949
C   C28       1.0  0.88589  0.15505  0.33259  1.0000 0.5599584949
C   C29       1.0  0.13319  0.36861  0.79866  1.0000 -0.1272051673
C   C30       1.0  0.36861  0.13319  0.70134  1.0000 -0.1272051673
C   C31       1.0  0.86681  0.63139  0.20134  1.0000 -0.1272051673
C   C32       1.0  0.63139  0.86681  0.29866  1.0000 -0.1272051673
C   C33       1.0  0.87810  0.09150  0.56050  1.0000 -0.0236015249
C   C34       1.0  0.09150  0.87810  0.93950  1.0000 -0.0236015249
C   C35       1.0  0.12190  0.90850  0.43950  1.0000 -0.0236015249
C   C36       1.0  0.90850  0.12190  0.06050  1.0000 -0.0236015249
C   C37       1.0  0.97473  0.48207  0.46200  1.0000 -0.1776895265
C   C38       1.0  0.48207  0.97473  0.03800  1.0000 -0.1776895265
C   C39       1.0  0.02527  0.51793  0.53800  1.0000 -0.1776895265
C   C40       1.0  0.51793  0.02527  0.96200  1.0000 -0.1776895265
C   C41       1.0  0.92360  0.36960  0.48640  1.0000 -0.113215168
C   C42       1.0  0.36960  0.92360  0.01360  1.0000 -0.113215168
C   C43       1.0  0.07640  0.63040  0.51360  1.0000 -0.113215168
C   C44       1.0  0.63040  0.07640  0.98640  1.0000 -0.113215168
C   C45       1.0  0.80869  0.05231  0.64850  1.0000 0.0882210468
C   C46       1.0  0.05231  0.80869  0.85150  1.0000 0.0882210468
C   C47       1.0  0.19131  0.94769  0.35150  1.0000 0.0882210468
C   C48       1.0  0.94769  0.19131  0.14850  1.0000 0.0882210468
C   C49       1.0  0.85086  0.31838  0.59660  1.0000 0.1020346098
C   C50       1.0  0.31838  0.85086  0.90340  1.0000 0.1020346098
C   C51       1.0  0.14914  0.68162  0.40340  1.0000 0.1020346098
C   C52       1.0  0.68162  0.14914  0.09660  1.0000 0.1020346098
C   C53       1.0  0.55512  0.99888  0.51370  1.0000 -0.1974354874
C   C54       1.0  0.99888  0.55512  0.98630  1.0000 -0.1974354874
C   C55       1.0  0.44488  0.00112  0.48630  1.0000 -0.1974354874
C   C56       1.0  0.00112  0.44488  0.01370  1.0000 -0.1974354874
C   C57       1.0  0.70969  0.45551  0.71320  1.0000 0.0814843671
C   C58       1.0  0.45551  0.70969  0.78680  1.0000 0.0814843671
C   C59       1.0  0.29031  0.54449  0.28680  1.0000 0.0814843671
C   C60       1.0  0.54449  0.29031  0.21320  1.0000 0.0814843671
C   C61       1.0  0.74219  0.37201  0.45530  1.0000 -0.113215168
C   C62       1.0  0.37201  0.74219  0.04470  1.0000 -0.113215168
C   C63       1.0  0.25781  0.62799  0.54470  1.0000 -0.113215168
C   C64       1.0  0.62799  0.25781  0.95530  1.0000 -0.113215168
C   C65       1.0  0.69703  0.35317  0.50750  1.0000 -0.0607131536
C   C66       1.0  0.35317  0.69703  0.99250  1.0000 -0.0607131536
C   C67       1.0  0.30297  0.64683  0.49250  1.0000 -0.0607131536
C   C68       1.0  0.64683  0.30297  0.00750  1.0000 -0.0607131536
C   C69       1.0  0.63070  0.08830  0.53870  1.0000 -0.1195473404
C   C70       1.0  0.08830  0.63070  0.96130  1.0000 -0.1195473404
C   C71       1.0  0.36930  0.91170  0.46130  1.0000 -0.1195473404
C   C72       1.0  0.91170  0.36930  0.03870  1.0000 -0.1195473404
C   C73       1.0  0.85590  0.56730  0.72800  1.0000 -0.113215168
C   C74       1.0  0.56730  0.85590  0.77200  1.0000 -0.113215168
C   C75       1.0  0.14410  0.43270  0.27200  1.0000 -0.113215168
C   C76       1.0  0.43270  0.14410  0.22800  1.0000 -0.113215168
C   C77       1.0  0.86730  0.47970  0.73630  1.0000 -0.0351793732
C   C78       1.0  0.47970  0.86730  0.76370  1.0000 -0.0351793732
C   C79       1.0  0.13270  0.52030  0.26370  1.0000 -0.0351793732
C   C80       1.0  0.52030  0.13270  0.23630  1.0000 -0.0351793732
C   C81       1.0  0.78100  0.10980  0.50790  1.0000 -0.1195473404
C   C82       1.0  0.10980  0.78100  0.99210  1.0000 -0.1195473404
C   C83       1.0  0.21900  0.89020  0.49210  1.0000 -0.1195473404
C   C84       1.0  0.89020  0.21900  0.00790  1.0000 -0.1195473404
C   C85       1.0  0.15839  0.43169  0.84047  1.0000 -0.0236015249
C   C86       1.0  0.43169  0.15839  0.65953  1.0000 -0.0236015249
C   C87       1.0  0.84161  0.56831  0.15953  1.0000 -0.0236015249
C   C88       1.0  0.56831  0.84161  0.34047  1.0000 -0.0236015249
C   C89       1.0  0.10074  0.28278  0.95294  1.0000 -0.1623213723
C   C90       1.0  0.28278  0.10074  0.54706  1.0000 -0.1623213723
C   C91       1.0  0.89926  0.71722  0.04706  1.0000 -0.1623213723
C   C92       1.0  0.71722  0.89926  0.45294  1.0000 -0.1623213723
C   C93       1.0  0.14312  0.38714  0.91940  1.0000 -0.1272051673
C   C94       1.0  0.38714  0.14312  0.58060  1.0000 -0.1272051673
C   C95       1.0  0.85688  0.61286  0.08060  1.0000 -0.1272051673
C   C96       1.0  0.61286  0.85688  0.41940  1.0000 -0.1272051673
C   C97       1.0  0.20404  0.54514  0.80160  1.0000 0.5434691008
C   C98       1.0  0.54514  0.20404  0.69840  1.0000 0.5434691008
C   C99       1.0  0.79596  0.45486  0.19840  1.0000 0.5434691008
C   C100      1.0  0.45486  0.79596  0.30160  1.0000 0.5434691008
C   C101      1.0  0.69540  0.62240  0.76510  1.0000 -0.1974354874
C   C102      1.0  0.62240  0.69540  0.73490  1.0000 -0.1974354874
C   C103      1.0  0.30460  0.37760  0.23490  1.0000 -0.1974354874
C   C104      1.0  0.37760  0.30460  0.26510  1.0000 -0.1974354874
C   C105      1.0  0.69680  0.62640  0.68930  1.0000 -0.1415021647
C   C106      1.0  0.62640  0.69680  0.81070  1.0000 -0.1415021647
C   C107      1.0  0.30320  0.37360  0.31070  1.0000 -0.1415021647
C   C108      1.0  0.37360  0.30320  0.18930  1.0000 -0.1415021647
N   N1        1.0  0.76637  0.31965  0.59731  1.0000 -0.2940108705
N   N2        1.0  0.31965  0.76637  0.90269  1.0000 -0.2940108705
N   N3        1.0  0.23363  0.68035  0.40269  1.0000 -0.2940108705
N   N4        1.0  0.68035  0.23363  0.09731  1.0000 -0.2940108705
N   N5        1.0  0.89589  0.05519  0.64900  1.0000 -0.283175547
N   N6        1.0  0.05519  0.89589  0.85100  1.0000 -0.283175547
N   N7        1.0  0.10411  0.94481  0.35100  1.0000 -0.283175547
N   N8        1.0  0.94481  0.10411  0.14900  1.0000 -0.283175547
N   N9        1.0  0.83973  0.34945  0.51203  1.0000 0.0502651163
N   N10       1.0  0.34945  0.83973  0.98797  1.0000 0.0502651163
N   N11       1.0  0.16027  0.65055  0.48797  1.0000 0.0502651163
N   N12       1.0  0.65055  0.16027  0.01203  1.0000 0.0502651163
N   N13       1.0  0.73706  0.08540  0.56420  1.0000 0.0353031856
N   N14       1.0  0.08540  0.73706  0.93580  1.0000 0.0353031856
N   N15       1.0  0.26294  0.91460  0.43580  1.0000 0.0353031856
N   N16       1.0  0.91460  0.26294  0.06420  1.0000 0.0353031856
N   N17       1.0  0.77557  0.40955  0.72558  1.0000 -0.283175547
N   N18       1.0  0.40955  0.77557  0.77442  1.0000 -0.283175547
N   N19       1.0  0.22443  0.59045  0.27442  1.0000 -0.283175547
N   N20       1.0  0.59045  0.22443  0.22558  1.0000 -0.283175547
N   N21       1.0  0.75372  0.55068  0.71210  1.0000 0.0353031856
N   N22       1.0  0.55068  0.75372  0.78790  1.0000 0.0341698747
N   N23       1.0  0.24628  0.44932  0.28790  1.0000 0.0341698747
N   N24       1.0  0.44932  0.24628  0.21210  1.0000 0.0341698747
O   O1        1.0  0.77076  0.06680  0.78736  1.0000 -0.5756738114
O   O2        1.0  0.06680  0.77076  0.71264  1.0000 -0.5756738114
O   O3        1.0  0.22924  0.93320  0.21264  1.0000 -0.5756738114
O   O4        1.0  0.93320  0.22924  0.28736  1.0000 -0.5756738114
O   O5        1.0  0.85418  0.20892  0.81396  1.0000 -0.5459925759
O   O6        1.0  0.20892  0.85418  0.68604  1.0000 -0.5459925759
O   O7        1.0  0.14582  0.79108  0.18604  1.0000 -0.5459925759
O   O8        1.0  0.79108  0.14582  0.31396  1.0000 -0.5459925759
O   O9        1.0  0.06345  0.10533  0.82385  1.0000 -0.520232879
O   O10       1.0  0.10533  0.06345  0.67615  1.0000 -0.520232879
O   O11       1.0  0.93655  0.89467  0.17615  1.0000 -0.520232879
O   O12       1.0  0.89467  0.93655  0.32385  1.0000 -0.520232879
O   O13       1.0  0.07413  0.24855  0.70675  1.0000 -0.5348080624
O   O14       1.0  0.24855  0.07413  0.79325  1.0000 -0.5348080624
O   O15       1.0  0.92587  0.75145  0.29325  1.0000 -0.5348080624
O   O16       1.0  0.75145  0.92587  0.20675  1.0000 -0.5348080624
O   O17       1.0  0.21180  0.58422  0.73017  1.0000 -0.544342779
O   O18       1.0  0.58422  0.21180  0.76983  1.0000 -0.544342779
O   O19       1.0  0.78820  0.41578  0.26983  1.0000 -0.544342779
O   O20       1.0  0.41578  0.78820  0.23017  1.0000 -0.544342779
O   O21       1.0  0.23205  0.59435  0.84912  1.0000 -0.562785216
O   O22       1.0  0.59435  0.23205  0.65088  1.0000 -0.562785216
O   O23       1.0  0.76795  0.40565  0.15088  1.0000 -0.562785216
O   O24       1.0  0.40565  0.76795  0.34912  1.0000 -0.562785216
