# DDEC6 charges by PACMAN v1.1 (https://github.com/mtap-research/PACMAN-charge/)
data_2016[Eu][nan]3[ASR]1
_chemical_formula_sum              "Eu4 H44 C84 O24"
_cell_length_a       17.8021
_cell_length_b       17.8021
_cell_length_c       14.22
_cell_angle_alpha    79.1239
_cell_angle_beta     100.876
_cell_angle_gamma    136.071

_symmetry_space_group_name_H-M    "P 1"
_symmetry_Int_Tables_number       1

loop_
  _symmetry_equiv_pos_as_xyz
  'x, y, z'

loop_
  _atom_site_type_symbol
  _atom_site_label
  _atom_site_symmetry_multiplicity
  _atom_site_fract_x
  _atom_site_fract_y
  _atom_site_fract_z
  _atom_site_occupancy
  _atom_site_charge
Eu  Eu1       1.0  0.10460  0.48876  0.54758  1.0000 2.0584463576
Eu  Eu2       1.0  0.48876  0.10460  0.95242  1.0000 2.0584463576
Eu  Eu3       1.0  0.89540  0.51124  0.45242  1.0000 2.0584463576
Eu  Eu4       1.0  0.51124  0.89540  0.04758  1.0000 2.0584463576
H   H1        1.0  0.98900  0.16540  0.43920  1.0000 0.111566546
H   H2        1.0  0.16540  0.98900  0.06080  1.0000 0.111566546
H   H3        1.0  0.01100  0.83460  0.56080  1.0000 0.111566546
H   H4        1.0  0.83460  0.01100  0.93920  1.0000 0.111566546
H   H5        1.0  0.01480  0.07340  0.38250  1.0000 0.111566546
H   H6        1.0  0.07340  0.01480  0.11750  1.0000 0.111566546
H   H7        1.0  0.98520  0.92660  0.61750  1.0000 0.111566546
H   H8        1.0  0.92660  0.98520  0.88250  1.0000 0.111566546
H   H9        1.0  0.32630  0.31270  0.41740  1.0000 0.111566546
H   H10       1.0  0.31270  0.32630  0.08260  1.0000 0.111566546
H   H11       1.0  0.67370  0.68730  0.58260  1.0000 0.111566546
H   H12       1.0  0.68730  0.67370  0.91740  1.0000 0.111566546
H   H13       1.0  0.31390  0.42230  0.46450  1.0000 0.1179930249
H   H14       1.0  0.42230  0.31390  0.03550  1.0000 0.1179930249
H   H15       1.0  0.68610  0.57770  0.53550  1.0000 0.1179930249
H   H16       1.0  0.57770  0.68610  0.96450  1.0000 0.1179930249
H   H17       1.0  0.03960  0.96940  0.39840  1.0000 0.111566546
H   H18       1.0  0.96940  0.03960  0.10160  1.0000 0.111566546
H   H19       1.0  0.96040  0.03060  0.60160  1.0000 0.111566546
H   H20       1.0  0.03060  0.96040  0.89840  1.0000 0.111566546
H   H21       1.0  0.06890  0.86970  0.37090  1.0000 0.1179930249
H   H22       1.0  0.86970  0.06890  0.12910  1.0000 0.1179930249
H   H23       1.0  0.93110  0.13030  0.62910  1.0000 0.1179930249
H   H24       1.0  0.13030  0.93110  0.87090  1.0000 0.1179930249
H   H25       1.0  0.36410  0.14050  0.29540  1.0000 0.111566546
H   H26       1.0  0.14050  0.36410  0.20460  1.0000 0.1179930249
H   H27       1.0  0.63590  0.85950  0.70460  1.0000 0.1179930249
H   H28       1.0  0.85950  0.63590  0.79540  1.0000 0.1179930249
H   H29       1.0  0.34200  0.24280  0.33280  1.0000 0.111566546
H   H30       1.0  0.24280  0.34200  0.16720  1.0000 0.111566546
H   H31       1.0  0.65800  0.75720  0.66720  1.0000 0.111566546
H   H32       1.0  0.75720  0.65800  0.83280  1.0000 0.111566546
H   H33       1.0  0.14360  0.80580  0.41430  1.0000 0.1274417589
H   H34       1.0  0.80580  0.14360  0.08570  1.0000 0.1274417589
H   H35       1.0  0.85640  0.19420  0.58570  1.0000 0.1274417589
H   H36       1.0  0.19420  0.85640  0.91430  1.0000 0.1274417589
H   H37       1.0  0.31520  0.78660  0.29450  1.0000 0.1383446405
H   H38       1.0  0.78660  0.31520  0.20550  1.0000 0.1383446405
H   H39       1.0  0.68480  0.21340  0.70550  1.0000 0.1383446405
H   H40       1.0  0.21340  0.68480  0.79450  1.0000 0.1383446405
H   H41       1.0  0.34540  0.03280  0.21220  1.0000 0.1179930249
H   H42       1.0  0.03280  0.34540  0.28780  1.0000 0.1179930249
H   H43       1.0  0.65460  0.96720  0.78780  1.0000 0.1179930249
H   H44       1.0  0.96720  0.65460  0.71220  1.0000 0.1179930249
C   C1        1.0  0.13270  0.36630  0.49610  1.0000 0.5606202284
C   C2        1.0  0.36630  0.13270  0.00390  1.0000 0.5606202284
C   C3        1.0  0.86730  0.63370  0.50390  1.0000 0.5606202284
C   C4        1.0  0.63370  0.86730  0.99610  1.0000 0.5606202284
C   C5        1.0  0.14800  0.30420  0.45950  1.0000 -0.0245079518
C   C6        1.0  0.30420  0.14800  0.04050  1.0000 -0.0245079518
C   C7        1.0  0.85200  0.69580  0.54050  1.0000 -0.0245079518
C   C8        1.0  0.69580  0.85200  0.95950  1.0000 -0.0245079518
C   C9        1.0  0.05910  0.19850  0.43460  1.0000 -0.09503827
C   C10       1.0  0.19850  0.05910  0.06540  1.0000 -0.09503827
C   C11       1.0  0.94090  0.80150  0.56540  1.0000 -0.09503827
C   C12       1.0  0.80150  0.94090  0.93460  1.0000 -0.09503827
C   C13       1.0  0.07540  0.14260  0.40260  1.0000 -0.1767294308
C   C14       1.0  0.14260  0.07540  0.09740  1.0000 -0.1767294308
C   C15       1.0  0.92460  0.85740  0.59740  1.0000 -0.1767294308
C   C16       1.0  0.85740  0.92460  0.90260  1.0000 -0.1767294308
C   C17       1.0  0.17380  0.18240  0.39900  1.0000 0.0600032615
C   C18       1.0  0.18240  0.17380  0.10100  1.0000 0.0600032615
C   C19       1.0  0.82620  0.81760  0.60100  1.0000 0.0600032615
C   C20       1.0  0.81760  0.82620  0.89900  1.0000 0.0600032615
C   C21       1.0  0.25750  0.28310  0.42140  1.0000 -0.1695796376
C   C22       1.0  0.28310  0.25750  0.07860  1.0000 -0.1695796376
C   C23       1.0  0.74250  0.71690  0.57860  1.0000 -0.1695796376
C   C24       1.0  0.71690  0.74250  0.92140  1.0000 -0.1695796376
C   C25       1.0  0.25170  0.35070  0.45120  1.0000 -0.0899689657
C   C26       1.0  0.35070  0.25170  0.04880  1.0000 -0.0899689657
C   C27       1.0  0.74830  0.64930  0.54880  1.0000 -0.0899689657
C   C28       1.0  0.64930  0.74830  0.95120  1.0000 -0.0899689657
C   C29       1.0  0.18610  0.11590  0.37090  1.0000 0.0671166131
C   C30       1.0  0.11590  0.18610  0.12910  1.0000 0.0671166131
C   C31       1.0  0.81390  0.88410  0.62910  1.0000 0.0671166131
C   C32       1.0  0.88410  0.81390  0.87090  1.0000 0.0671166131
C   C33       1.0  0.10680  0.00520  0.37980  1.0000 -0.1407072731
C   C34       1.0  0.00520  0.10680  0.12020  1.0000 -0.1407072731
C   C35       1.0  0.89320  0.99480  0.62020  1.0000 -0.1407072731
C   C36       1.0  0.99480  0.89320  0.87980  1.0000 -0.1407072731
C   C37       1.0  0.12390  0.94510  0.36180  1.0000 -0.1337571306
C   C38       1.0  0.94510  0.12390  0.13820  1.0000 -0.1337571306
C   C39       1.0  0.87610  0.05490  0.63820  1.0000 -0.1337571306
C   C40       1.0  0.05490  0.87610  0.86180  1.0000 -0.1337571306
C   C41       1.0  0.21990  0.99370  0.33070  1.0000 0.0600032615
C   C42       1.0  0.99370  0.21990  0.16930  1.0000 0.0600032615
C   C43       1.0  0.78010  0.00630  0.66930  1.0000 0.0600032615
C   C44       1.0  0.00630  0.78010  0.83070  1.0000 0.0600032615
C   C45       1.0  0.29910  0.10570  0.31860  1.0000 -0.1337571306
C   C46       1.0  0.10570  0.29910  0.18140  1.0000 -0.1337571306
C   C47       1.0  0.70090  0.89430  0.68140  1.0000 -0.1337571306
C   C48       1.0  0.89430  0.70090  0.81860  1.0000 -0.1337571306
C   C49       1.0  0.28580  0.16740  0.33940  1.0000 -0.1454224115
C   C50       1.0  0.16740  0.28580  0.16060  1.0000 -0.1454224115
C   C51       1.0  0.71420  0.83260  0.66060  1.0000 -0.1454224115
C   C52       1.0  0.83260  0.71420  0.83940  1.0000 -0.1454224115
C   C53       1.0  0.24200  0.93080  0.31730  1.0000 0.0671166131
C   C54       1.0  0.93080  0.24200  0.18270  1.0000 0.0600032615
C   C55       1.0  0.75800  0.06920  0.68270  1.0000 0.0671166131
C   C56       1.0  0.06920  0.75800  0.81730  1.0000 0.0671166131
C   C57       1.0  0.19470  0.83470  0.37230  1.0000 -0.1407072731
C   C58       1.0  0.83470  0.19470  0.12770  1.0000 -0.1407072731
C   C59       1.0  0.80530  0.16530  0.62770  1.0000 -0.1407072731
C   C60       1.0  0.16530  0.80530  0.87230  1.0000 -0.1407072731
C   C61       1.0  0.22290  0.78110  0.36540  1.0000 -0.0309535203
C   C62       1.0  0.78110  0.22290  0.13460  1.0000 -0.0309535203
C   C63       1.0  0.77710  0.21890  0.63460  1.0000 -0.0309535203
C   C64       1.0  0.21890  0.77710  0.86540  1.0000 -0.0309535203
C   C65       1.0  0.29470  0.82130  0.29860  1.0000 -0.0899689657
C   C66       1.0  0.82130  0.29470  0.20140  1.0000 -0.0899689657
C   C67       1.0  0.70530  0.17870  0.70140  1.0000 -0.0899689657
C   C68       1.0  0.17870  0.70530  0.79860  1.0000 -0.0899689657
C   C69       1.0  0.33460  0.91040  0.23960  1.0000 -0.012973077
C   C70       1.0  0.91040  0.33460  0.26040  1.0000 -0.012973077
C   C71       1.0  0.66540  0.08960  0.76040  1.0000 -0.012973077
C   C72       1.0  0.08960  0.66540  0.73960  1.0000 -0.012973077
C   C73       1.0  0.31290  0.96850  0.25000  1.0000 -0.1407072731
C   C74       1.0  0.96850  0.31290  0.25000  1.0000 -0.1407072731
C   C75       1.0  0.68710  0.03150  0.75000  1.0000 -0.1407072731
C   C76       1.0  0.03150  0.68710  0.75000  1.0000 -0.1407072731
C   C77       1.0  0.17610  0.68210  0.42850  1.0000 0.6243868718
C   C78       1.0  0.68210  0.17610  0.07150  1.0000 0.6243868718
C   C79       1.0  0.82390  0.31790  0.57150  1.0000 0.6243868718
C   C80       1.0  0.31790  0.82390  0.92850  1.0000 0.6243868718
C   C81       1.0  0.41370  0.95490  0.16440  1.0000 0.6474765638
C   C82       1.0  0.95490  0.41370  0.33560  1.0000 0.6474765638
C   C83       1.0  0.58630  0.04510  0.83560  1.0000 0.6474765638
C   C84       1.0  0.04510  0.58630  0.66440  1.0000 0.6474765638
O   O1        1.0  0.04130  0.31650  0.51880  1.0000 -0.6297551667
O   O2        1.0  0.31650  0.04130  0.98120  1.0000 -0.6297551667
O   O3        1.0  0.95870  0.68350  0.48120  1.0000 -0.6297551667
O   O4        1.0  0.68350  0.95870  0.01880  1.0000 -0.6297551667
O   O5        1.0  0.21310  0.46790  0.49640  1.0000 -0.6405149897
O   O6        1.0  0.46790  0.21310  0.00360  1.0000 -0.6405149897
O   O7        1.0  0.78690  0.53210  0.50360  1.0000 -0.6405149897
O   O8        1.0  0.53210  0.78690  0.99640  1.0000 -0.6405149897
O   O9        1.0  0.45120  0.04000  0.11560  1.0000 -0.6297551667
O   O10       1.0  0.04000  0.45120  0.38440  1.0000 -0.6297551667
O   O11       1.0  0.54880  0.96000  0.88440  1.0000 -0.6297551667
O   O12       1.0  0.96000  0.54880  0.61560  1.0000 -0.6297551667
O   O13       1.0  0.42602  0.89598  0.15640  1.0000 -0.6681707253
O   O14       1.0  0.89598  0.42602  0.34360  1.0000 -0.6681707253
O   O15       1.0  0.57398  0.10402  0.84360  1.0000 -0.6681707253
O   O16       1.0  0.10402  0.57398  0.65640  1.0000 -0.6681707253
O   O17       1.0  0.23072  0.66168  0.45040  1.0000 -0.5761644294
O   O18       1.0  0.66168  0.23072  0.04960  1.0000 -0.5761644294
O   O19       1.0  0.76928  0.33832  0.54960  1.0000 -0.5761644294
O   O20       1.0  0.33832  0.76928  0.95040  1.0000 -0.5761644294
O   O21       1.0  0.08182  0.61918  0.45780  1.0000 -0.7682372531
O   O22       1.0  0.61918  0.08182  0.04220  1.0000 -0.7682372531
O   O23       1.0  0.91818  0.38082  0.54220  1.0000 -0.7682372531
O   O24       1.0  0.38082  0.91818  0.95780  1.0000 -0.7682372531
