# DDEC6 charges by PACMAN v1.1 (https://github.com/mtap-research/PACMAN-charge/)
data_2016[Cd][sql]2[ASR]1
_chemical_formula_sum              "Cd4 H96 C96 N32 O8"
_cell_length_a       10.6923
_cell_length_b       18.911
_cell_length_c       18.0646
_cell_angle_alpha    90
_cell_angle_beta     124.417
_cell_angle_gamma    90

_symmetry_space_group_name_H-M    "P 1"
_symmetry_Int_Tables_number       1

loop_
  _symmetry_equiv_pos_as_xyz
  'x, y, z'

loop_
  _atom_site_type_symbol
  _atom_site_label
  _atom_site_symmetry_multiplicity
  _atom_site_fract_x
  _atom_site_fract_y
  _atom_site_fract_z
  _atom_site_occupancy
  _atom_site_charge
Cd  Cd1       1.0  0.77902  0.71264  0.76953  1.0000 0.5071944619
Cd  Cd2       1.0  0.22098  0.21264  0.73047  1.0000 0.5155961538
Cd  Cd3       1.0  0.22098  0.28736  0.23047  1.0000 0.5049533869
Cd  Cd4       1.0  0.77902  0.78736  0.26953  1.0000 0.5155961538
H   H1        1.0  0.02070  0.83500  0.86620  1.0000 0.0902949007
H   H2        1.0  0.26780  0.86500  0.92520  1.0000 0.1093198908
H   H3        1.0  0.42150  0.78820  0.91100  1.0000 0.1262525792
H   H4        1.0  0.06690  0.65730  0.77330  1.0000 0.1192893212
H   H5        1.0  0.53260  0.48950  0.77870  1.0000 0.1093198908
H   H6        1.0  0.35800  0.50130  0.71040  1.0000 0.100629945
H   H7        1.0  0.49360  0.48490  0.93800  1.0000 0.1093198908
H   H8        1.0  0.43680  0.39160  0.99740  1.0000 0.100629945
H   H9        1.0  0.32900  0.29130  0.91400  1.0000 0.0902949007
H   H10       1.0  0.31270  0.37540  0.71240  1.0000 0.1093198908
H   H11       1.0  0.03030  0.65810  0.96290  1.0000 0.0822550586
H   H12       1.0  0.19900  0.56850  0.04280  1.0000 0.1192893212
H   H13       1.0  0.16720  0.45990  0.97470  1.0000 0.1093198908
H   H14       1.0  0.80010  0.53690  0.75310  1.0000 0.100629945
H   H15       1.0  0.03320  0.33380  0.88390  1.0000 0.2310657097
H   H16       1.0  0.45950  0.09270  0.85060  1.0000 0.0902949007
H   H17       1.0  0.71350  0.06630  0.93720  1.0000 0.1192893212
H   H18       1.0  0.88540  0.14720  0.94790  1.0000 0.1262525792
H   H19       1.0  0.53810  0.27430  0.78030  1.0000 0.1093198908
H   H20       1.0  0.44710  0.68460  0.85560  1.0000 0.2563542898
H   H21       1.0  0.53950  0.58890  0.84440  1.0000 0.2310657097
H   H22       1.0  0.93080  0.25280  0.90810  1.0000 0.252752463
H   H23       1.0  0.86010  0.42290  0.74490  1.0000 0.100629945
H   H24       1.0  0.03560  0.41440  0.79470  1.0000 0.1093198908
H   H25       1.0  0.97930  0.33500  0.63380  1.0000 0.0902949007
H   H26       1.0  0.73220  0.36500  0.57480  1.0000 0.1093198908
H   H27       1.0  0.57850  0.28820  0.58900  1.0000 0.1262525792
H   H28       1.0  0.93310  0.15730  0.72670  1.0000 0.1192893212
H   H29       1.0  0.46740  0.98950  0.72130  1.0000 0.1093198908
H   H30       1.0  0.64200  0.00130  0.78960  1.0000 0.100629945
H   H31       1.0  0.50640  0.98490  0.56200  1.0000 0.1093198908
H   H32       1.0  0.56320  0.89160  0.50260  1.0000 0.100629945
H   H33       1.0  0.67100  0.79130  0.58600  1.0000 0.0902949007
H   H34       1.0  0.68730  0.87540  0.78760  1.0000 0.1093198908
H   H35       1.0  0.96970  0.15810  0.53710  1.0000 0.0822550586
H   H36       1.0  0.80100  0.06850  0.45720  1.0000 0.1192893212
H   H37       1.0  0.83280  0.95990  0.52530  1.0000 0.1093198908
H   H38       1.0  0.19990  0.03690  0.74690  1.0000 0.100629945
H   H39       1.0  0.96680  0.83380  0.61610  1.0000 0.2310657097
H   H40       1.0  0.54050  0.59270  0.64940  1.0000 0.0902949007
H   H41       1.0  0.28650  0.56630  0.56280  1.0000 0.1192893212
H   H42       1.0  0.11460  0.64720  0.55210  1.0000 0.1262525792
H   H43       1.0  0.46190  0.77430  0.71970  1.0000 0.1093198908
H   H44       1.0  0.55290  0.18460  0.64440  1.0000 0.2563542898
H   H45       1.0  0.46050  0.08890  0.65560  1.0000 0.2310657097
H   H46       1.0  0.06920  0.75280  0.59190  1.0000 0.252752463
H   H47       1.0  0.13990  0.92290  0.75510  1.0000 0.100629945
H   H48       1.0  0.96440  0.91440  0.70530  1.0000 0.1093198908
H   H49       1.0  0.97930  0.16500  0.13380  1.0000 0.0902949007
H   H50       1.0  0.73220  0.13500  0.07480  1.0000 0.1093198908
H   H51       1.0  0.57850  0.21180  0.08900  1.0000 0.1262525792
H   H52       1.0  0.93310  0.34270  0.22670  1.0000 0.1192893212
H   H53       1.0  0.46740  0.51050  0.22130  1.0000 0.1093198908
H   H54       1.0  0.64200  0.49870  0.28960  1.0000 0.100629945
H   H55       1.0  0.50640  0.51510  0.06200  1.0000 0.1093198908
H   H56       1.0  0.56320  0.60840  0.00260  1.0000 0.100629945
H   H57       1.0  0.67100  0.70870  0.08600  1.0000 0.0902949007
H   H58       1.0  0.68730  0.62460  0.28760  1.0000 0.1093198908
H   H59       1.0  0.96970  0.34190  0.03710  1.0000 0.0822550586
H   H60       1.0  0.80100  0.43150  0.95720  1.0000 0.1192893212
H   H61       1.0  0.83280  0.54010  0.02530  1.0000 0.1093198908
H   H62       1.0  0.19990  0.46310  0.24690  1.0000 0.100629945
H   H63       1.0  0.96680  0.66620  0.11610  1.0000 0.2310657097
H   H64       1.0  0.54050  0.90730  0.14940  1.0000 0.0902949007
H   H65       1.0  0.28650  0.93370  0.06280  1.0000 0.1192893212
H   H66       1.0  0.11460  0.85280  0.05210  1.0000 0.1262525792
H   H67       1.0  0.46190  0.72570  0.21970  1.0000 0.1093198908
H   H68       1.0  0.55290  0.31540  0.14440  1.0000 0.2563542898
H   H69       1.0  0.46050  0.41110  0.15560  1.0000 0.2310657097
H   H70       1.0  0.06920  0.74720  0.09190  1.0000 0.252752463
H   H71       1.0  0.13990  0.57710  0.25510  1.0000 0.100629945
H   H72       1.0  0.96440  0.58560  0.20530  1.0000 0.1093198908
H   H73       1.0  0.02070  0.66500  0.36620  1.0000 0.0902949007
H   H74       1.0  0.26780  0.63500  0.42520  1.0000 0.1093198908
H   H75       1.0  0.42150  0.71180  0.41100  1.0000 0.1262525792
H   H76       1.0  0.06690  0.84270  0.27330  1.0000 0.1192893212
H   H77       1.0  0.53260  0.01050  0.27870  1.0000 0.1093198908
H   H78       1.0  0.35800  0.99870  0.21040  1.0000 0.100629945
H   H79       1.0  0.49360  0.01510  0.43800  1.0000 0.1093198908
H   H80       1.0  0.43680  0.10840  0.49740  1.0000 0.100629945
H   H81       1.0  0.32900  0.20870  0.41400  1.0000 0.0902949007
H   H82       1.0  0.31270  0.12460  0.21240  1.0000 0.1093198908
H   H83       1.0  0.03030  0.84190  0.46290  1.0000 0.0822550586
H   H84       1.0  0.19900  0.93150  0.54280  1.0000 0.1192893212
H   H85       1.0  0.16720  0.04010  0.47470  1.0000 0.1093198908
H   H86       1.0  0.80010  0.96310  0.25310  1.0000 0.100629945
H   H87       1.0  0.03320  0.16620  0.38390  1.0000 0.2310657097
H   H88       1.0  0.45950  0.40730  0.35060  1.0000 0.0902949007
H   H89       1.0  0.71350  0.43370  0.43720  1.0000 0.1192893212
H   H90       1.0  0.88540  0.35280  0.44790  1.0000 0.1262525792
H   H91       1.0  0.53810  0.22570  0.28030  1.0000 0.1093198908
H   H92       1.0  0.44710  0.81540  0.35560  1.0000 0.2563542898
H   H93       1.0  0.53950  0.91110  0.34440  1.0000 0.2310657097
H   H94       1.0  0.93080  0.24720  0.40810  1.0000 0.252752463
H   H95       1.0  0.86010  0.07710  0.24490  1.0000 0.100629945
H   H96       1.0  0.03560  0.08560  0.29470  1.0000 0.1093198908
C   C1        1.0  0.08118  0.80430  0.85918  1.0000 -0.0183245105
C   C2        1.0  0.22935  0.82224  0.89515  1.0000 -0.1306744752
C   C3        1.0  0.32073  0.77675  0.88663  1.0000 -0.1763320801
C   C4        1.0  0.26052  0.71327  0.84102  1.0000 0.1896787795
C   C5        1.0  0.10910  0.69912  0.80496  1.0000 -0.0510729601
C   C6        1.0  0.32884  0.60156  0.80010  1.0000 0.5731793071
C   C7        1.0  0.43919  0.49974  0.77369  1.0000 -0.1035686874
C   C8        1.0  0.40793  0.44057  0.81732  1.0000 0.0822550586
C   C9        1.0  0.44614  0.44461  0.90374  1.0000 -0.108392699
C   C10       1.0  0.41399  0.38875  0.93959  1.0000 -0.161166591
C   C11       1.0  0.34818  0.32930  0.88908  1.0000 0.0080561518
C   C12       1.0  0.33996  0.37897  0.77111  1.0000 -0.0359749434
C   C13       1.0  0.01666  0.61461  0.93526  1.0000 0.0295469003
C   C14       1.0  0.11848  0.56116  0.98358  1.0000 -0.1431816643
C   C15       1.0  0.09955  0.49659  0.94305  1.0000 -0.1170761337
C   C16       1.0  0.97896  0.48689  0.85475  1.0000 0.0673060516
C   C17       1.0  0.88233  0.54319  0.81213  1.0000 -0.0301248853
C   C18       1.0  0.52825  0.12506  0.85405  1.0000 -0.0141233591
C   C19       1.0  0.68018  0.10905  0.90638  1.0000 -0.1306744752
C   C20       1.0  0.78212  0.15708  0.91252  1.0000 -0.1763320801
C   C21       1.0  0.73018  0.22052  0.86561  1.0000 0.1896787795
C   C22       1.0  0.57480  0.23248  0.81302  1.0000 -0.0551282776
C   C23       1.0  0.81930  0.33047  0.83211  1.0000 0.5482344801
C   C24       1.0  0.95462  0.41920  0.80362  1.0000 -0.108392699
C   C25       1.0  0.91882  0.30430  0.64082  1.0000 -0.0183245105
C   C26       1.0  0.77065  0.32224  0.60485  1.0000 -0.1306744752
C   C27       1.0  0.67927  0.27675  0.61337  1.0000 -0.1763320801
C   C28       1.0  0.73948  0.21327  0.65898  1.0000 0.1896787795
C   C29       1.0  0.89090  0.19912  0.69504  1.0000 -0.0510729601
C   C30       1.0  0.67116  0.10156  0.69990  1.0000 0.5731793071
C   C31       1.0  0.56081  0.99974  0.72631  1.0000 -0.1035686874
C   C32       1.0  0.59207  0.94057  0.68268  1.0000 0.0822550586
C   C33       1.0  0.55386  0.94461  0.59626  1.0000 -0.108392699
C   C34       1.0  0.58601  0.88875  0.56041  1.0000 -0.161166591
C   C35       1.0  0.65182  0.82930  0.61092  1.0000 0.0080561518
C   C36       1.0  0.66004  0.87897  0.72889  1.0000 -0.0359749434
C   C37       1.0  0.98334  0.11461  0.56474  1.0000 0.0295469003
C   C38       1.0  0.88152  0.06116  0.51642  1.0000 -0.1431816643
C   C39       1.0  0.90045  0.99659  0.55695  1.0000 -0.1170761337
C   C40       1.0  0.02104  0.98689  0.64525  1.0000 0.0673060516
C   C41       1.0  0.11767  0.04319  0.68787  1.0000 -0.0301248853
C   C42       1.0  0.47175  0.62506  0.64595  1.0000 -0.0141233591
C   C43       1.0  0.31982  0.60905  0.59362  1.0000 -0.1306744752
C   C44       1.0  0.21788  0.65708  0.58748  1.0000 -0.1763320801
C   C45       1.0  0.26982  0.72052  0.63439  1.0000 0.1896787795
C   C46       1.0  0.42520  0.73248  0.68698  1.0000 -0.0551282776
C   C47       1.0  0.18070  0.83047  0.66789  1.0000 0.5482344801
C   C48       1.0  0.04538  0.91920  0.69638  1.0000 -0.108392699
C   C49       1.0  0.91882  0.19570  0.14082  1.0000 -0.0183245105
C   C50       1.0  0.77065  0.17776  0.10485  1.0000 -0.1306744752
C   C51       1.0  0.67927  0.22325  0.11337  1.0000 -0.1763320801
C   C52       1.0  0.73948  0.28673  0.15898  1.0000 0.1896787795
C   C53       1.0  0.89090  0.30088  0.19504  1.0000 -0.0510729601
C   C54       1.0  0.67116  0.39844  0.19990  1.0000 0.5731793071
C   C55       1.0  0.56081  0.50026  0.22631  1.0000 -0.1035686874
C   C56       1.0  0.59207  0.55943  0.18268  1.0000 0.0822550586
C   C57       1.0  0.55386  0.55539  0.09626  1.0000 -0.108392699
C   C58       1.0  0.58601  0.61125  0.06041  1.0000 -0.161166591
C   C59       1.0  0.65182  0.67070  0.11092  1.0000 0.0080561518
C   C60       1.0  0.66004  0.62103  0.22889  1.0000 -0.0359749434
C   C61       1.0  0.98334  0.38539  0.06474  1.0000 0.0295469003
C   C62       1.0  0.88152  0.43884  0.01642  1.0000 -0.1431816643
C   C63       1.0  0.90045  0.50341  0.05695  1.0000 -0.1170761337
C   C64       1.0  0.02104  0.51311  0.14525  1.0000 0.0673060516
C   C65       1.0  0.11767  0.45681  0.18787  1.0000 -0.0301248853
C   C66       1.0  0.47175  0.87494  0.14595  1.0000 -0.0141233591
C   C67       1.0  0.31982  0.89095  0.09362  1.0000 -0.1306744752
C   C68       1.0  0.21788  0.84292  0.08748  1.0000 -0.1763320801
C   C69       1.0  0.26982  0.77948  0.13439  1.0000 0.1896787795
C   C70       1.0  0.42520  0.76752  0.18698  1.0000 -0.0551282776
C   C71       1.0  0.18070  0.66953  0.16789  1.0000 0.5482344801
C   C72       1.0  0.04538  0.58080  0.19638  1.0000 -0.108392699
C   C73       1.0  0.08118  0.69570  0.35918  1.0000 -0.0183245105
C   C74       1.0  0.22935  0.67776  0.39515  1.0000 -0.1306744752
C   C75       1.0  0.32073  0.72325  0.38663  1.0000 -0.1763320801
C   C76       1.0  0.26052  0.78673  0.34102  1.0000 0.1896787795
C   C77       1.0  0.10910  0.80088  0.30496  1.0000 -0.0510729601
C   C78       1.0  0.32884  0.89844  0.30010  1.0000 0.5731793071
C   C79       1.0  0.43919  0.00026  0.27369  1.0000 -0.1035686874
C   C80       1.0  0.40793  0.05943  0.31732  1.0000 0.0822550586
C   C81       1.0  0.44614  0.05539  0.40374  1.0000 -0.108392699
C   C82       1.0  0.41399  0.11125  0.43959  1.0000 -0.161166591
C   C83       1.0  0.34818  0.17070  0.38908  1.0000 0.0080561518
C   C84       1.0  0.33996  0.12103  0.27111  1.0000 -0.0359749434
C   C85       1.0  0.01666  0.88539  0.43526  1.0000 0.0295469003
C   C86       1.0  0.11848  0.93884  0.48358  1.0000 -0.1431816643
C   C87       1.0  0.09955  0.00341  0.44305  1.0000 -0.1170761337
C   C88       1.0  0.97896  0.01311  0.35475  1.0000 0.0673060516
C   C89       1.0  0.88233  0.95681  0.31213  1.0000 -0.0301248853
C   C90       1.0  0.52825  0.37494  0.35405  1.0000 -0.0141233591
C   C91       1.0  0.68018  0.39095  0.40638  1.0000 -0.1306744752
C   C92       1.0  0.78212  0.34292  0.41252  1.0000 -0.1763320801
C   C93       1.0  0.73018  0.27948  0.36561  1.0000 0.1896787795
C   C94       1.0  0.57480  0.26752  0.31302  1.0000 -0.0551282776
C   C95       1.0  0.81930  0.16953  0.33211  1.0000 0.5482344801
C   C96       1.0  0.95462  0.08080  0.30362  1.0000 -0.108392699
N   N1        1.0  0.95002  0.35592  0.84718  1.0000 -0.4278990304
N   N2        1.0  0.02184  0.74398  0.81447  1.0000 -0.2197110498
N   N3        1.0  0.35800  0.66826  0.83493  1.0000 -0.4562707407
N   N4        1.0  0.45232  0.56863  0.81279  1.0000 -0.4355463808
N   N5        1.0  0.89873  0.60644  0.84998  1.0000 -0.2315286709
N   N6        1.0  0.47562  0.18547  0.80789  1.0000 -0.2197110498
N   N7        1.0  0.83829  0.26659  0.87280  1.0000 -0.4562707407
N   N8        1.0  0.31073  0.32386  0.80563  1.0000 -0.2140327817
N   N9        1.0  0.04998  0.85592  0.65282  1.0000 -0.4278990304
N   N10       1.0  0.97816  0.24398  0.68553  1.0000 -0.2197110498
N   N11       1.0  0.64200  0.16826  0.66507  1.0000 -0.4562707407
N   N12       1.0  0.54768  0.06863  0.68721  1.0000 -0.4355463808
N   N13       1.0  0.10127  0.10644  0.65002  1.0000 -0.2315286709
N   N14       1.0  0.52438  0.68547  0.69211  1.0000 -0.2197110498
N   N15       1.0  0.16171  0.76659  0.62720  1.0000 -0.4562707407
N   N16       1.0  0.68927  0.82386  0.69437  1.0000 -0.2140327817
N   N17       1.0  0.04998  0.64408  0.15282  1.0000 -0.4278990304
N   N18       1.0  0.97816  0.25602  0.18553  1.0000 -0.2197110498
N   N19       1.0  0.64200  0.33174  0.16507  1.0000 -0.4562707407
N   N20       1.0  0.54768  0.43137  0.18721  1.0000 -0.4355463808
N   N21       1.0  0.10127  0.39356  0.15002  1.0000 -0.2315286709
N   N22       1.0  0.52438  0.81453  0.19211  1.0000 -0.2197110498
N   N23       1.0  0.16171  0.73341  0.12720  1.0000 -0.4562707407
N   N24       1.0  0.68927  0.67614  0.19437  1.0000 -0.2140327817
N   N25       1.0  0.95002  0.14408  0.34718  1.0000 -0.4278990304
N   N26       1.0  0.02184  0.75602  0.31447  1.0000 -0.2197110498
N   N27       1.0  0.35800  0.83174  0.33493  1.0000 -0.4562707407
N   N28       1.0  0.45232  0.93137  0.31279  1.0000 -0.4355463808
N   N29       1.0  0.89873  0.89356  0.34998  1.0000 -0.2315286709
N   N30       1.0  0.47562  0.31453  0.30789  1.0000 -0.2197110498
N   N31       1.0  0.83829  0.23341  0.37280  1.0000 -0.4562707407
N   N32       1.0  0.31073  0.17614  0.30563  1.0000 -0.2140327817
O   O1        1.0  0.69780  0.36148  0.78723  1.0000 -0.5398848256
O   O2        1.0  0.20465  0.57294  0.76234  1.0000 -0.5398848256
O   O3        1.0  0.30220  0.86148  0.71277  1.0000 -0.5398848256
O   O4        1.0  0.79535  0.07294  0.73766  1.0000 -0.5398848256
O   O5        1.0  0.30220  0.63852  0.21277  1.0000 -0.5398848256
O   O6        1.0  0.79535  0.42706  0.23766  1.0000 -0.5398848256
O   O7        1.0  0.69780  0.13852  0.28723  1.0000 -0.5398848256
O   O8        1.0  0.20465  0.92706  0.26234  1.0000 -0.5398848256
