# DDEC6 charges by PACMAN v1.1 (https://github.com/mtap-research/PACMAN-charge/)
data_2016[Ni][dia]3[ASR]3
_chemical_formula_sum              "Ni4 H152 C106 N24 O24"
_cell_length_a       19.2774
_cell_length_b       19.2774
_cell_length_c       29.72
_cell_angle_alpha    53.5586
_cell_angle_beta     126.441
_cell_angle_gamma    153.469

_symmetry_space_group_name_H-M    "P 1"
_symmetry_Int_Tables_number       1

loop_
  _symmetry_equiv_pos_as_xyz
  'x, y, z'

loop_
  _atom_site_type_symbol
  _atom_site_label
  _atom_site_symmetry_multiplicity
  _atom_site_fract_x
  _atom_site_fract_y
  _atom_site_fract_z
  _atom_site_occupancy
  _atom_site_charge
Ni  Ni1       1.0  0.00000  0.50000  0.00000  1.0000 0.6291832375
Ni  Ni2       1.0  0.50000  0.00000  0.50000  1.0000 0.6291832375
Ni  Ni3       1.0  0.50000  0.50000  0.00000  1.0000 0.6405146467
Ni  Ni4       1.0  0.50000  0.50000  0.50000  1.0000 0.6405146467
H   H1        1.0  0.04070  0.59990  0.05460  1.0000 0.249814986
H   H2        1.0  0.59990  0.04070  0.44540  1.0000 0.249814986
H   H3        1.0  0.95930  0.40010  0.94540  1.0000 0.249814986
H   H4        1.0  0.40010  0.95930  0.55460  1.0000 0.249814986
H   H5        1.0  0.29820  0.73780  0.03120  1.0000 0.249814986
H   H6        1.0  0.73780  0.29820  0.46880  1.0000 0.249814986
H   H7        1.0  0.70180  0.26220  0.96880  1.0000 0.249814986
H   H8        1.0  0.26220  0.70180  0.53120  1.0000 0.249814986
H   H9        1.0  0.97500  0.37020  0.13010  1.0000 0.1011650556
H   H10       1.0  0.37020  0.97500  0.36990  1.0000 0.1011650556
H   H11       1.0  0.02500  0.62980  0.86990  1.0000 0.1011650556
H   H12       1.0  0.62980  0.02500  0.63010  1.0000 0.1011650556
H   H13       1.0  0.03410  0.48350  0.14640  1.0000 0.1011650556
H   H14       1.0  0.48350  0.03410  0.35360  1.0000 0.1011650556
H   H15       1.0  0.96590  0.51650  0.85360  1.0000 0.1011650556
H   H16       1.0  0.51650  0.96590  0.64640  1.0000 0.1011650556
H   H17       1.0  0.33940  0.64080  0.11770  1.0000 0.0927072304
H   H18       1.0  0.64080  0.33940  0.38230  1.0000 0.0927072304
H   H19       1.0  0.66060  0.35920  0.88230  1.0000 0.0927072304
H   H20       1.0  0.35920  0.66060  0.61770  1.0000 0.0927072304
H   H21       1.0  0.16040  0.46780  0.11060  1.0000 0.1011650556
H   H22       1.0  0.46780  0.16040  0.38940  1.0000 0.1011650556
H   H23       1.0  0.83960  0.53220  0.88940  1.0000 0.1011650556
H   H24       1.0  0.53220  0.83960  0.61060  1.0000 0.1011650556
H   H25       1.0  0.75040  0.27120  0.06780  1.0000 0.1100844731
H   H26       1.0  0.27120  0.75040  0.43220  1.0000 0.1100844731
H   H27       1.0  0.24960  0.72880  0.93220  1.0000 0.1100844731
H   H28       1.0  0.72880  0.24960  0.56780  1.0000 0.1100844731
H   H29       1.0  0.79870  0.38890  0.07260  1.0000 0.1100844731
H   H30       1.0  0.38890  0.79870  0.42740  1.0000 0.1100844731
H   H31       1.0  0.20130  0.61110  0.92740  1.0000 0.1100844731
H   H32       1.0  0.61110  0.20130  0.57260  1.0000 0.1100844731
H   H33       1.0  0.35630  0.68890  0.01830  1.0000 0.1011650556
H   H34       1.0  0.68890  0.35630  0.48170  1.0000 0.1011650556
H   H35       1.0  0.64370  0.31110  0.98170  1.0000 0.1011650556
H   H36       1.0  0.31110  0.64370  0.51830  1.0000 0.1011650556
H   H37       1.0  0.18680  0.50580  0.02530  1.0000 0.1100844731
H   H38       1.0  0.50580  0.18680  0.47470  1.0000 0.1100844731
H   H39       1.0  0.81320  0.49420  0.97470  1.0000 0.1100844731
H   H40       1.0  0.49420  0.81320  0.52530  1.0000 0.1100844731
H   H41       1.0  0.31180  0.79340  0.08600  1.0000 0.1296274846
H   H42       1.0  0.79340  0.31180  0.41400  1.0000 0.1296274846
H   H43       1.0  0.68820  0.20660  0.91400  1.0000 0.1296274846
H   H44       1.0  0.20660  0.68820  0.58600  1.0000 0.1296274846
H   H45       1.0  0.29880  0.75140  0.14720  1.0000 0.1296274846
H   H46       1.0  0.75140  0.29880  0.35280  1.0000 0.1296274846
H   H47       1.0  0.70120  0.24860  0.85280  1.0000 0.1296274846
H   H48       1.0  0.24860  0.70120  0.64720  1.0000 0.1296274846
H   H49       1.0  0.42370  0.81410  0.13900  1.0000 0.1202475625
H   H50       1.0  0.81410  0.42370  0.36100  1.0000 0.1202475625
H   H51       1.0  0.57630  0.18590  0.86100  1.0000 0.1202475625
H   H52       1.0  0.18590  0.57630  0.63900  1.0000 0.1202475625
H   H53       1.0  0.36030  0.52610  0.92640  1.0000 0.2554451573
H   H54       1.0  0.52610  0.36030  0.57360  1.0000 0.2554451573
H   H55       1.0  0.63970  0.47390  0.07360  1.0000 0.2554451573
H   H56       1.0  0.47390  0.63970  0.42640  1.0000 0.2554451573
H   H57       1.0  0.24970  0.26450  0.03920  1.0000 0.249814986
H   H58       1.0  0.26450  0.24970  0.46080  1.0000 0.249814986
H   H59       1.0  0.75030  0.73550  0.96080  1.0000 0.249814986
H   H60       1.0  0.73550  0.75030  0.53920  1.0000 0.249814986
H   H61       1.0  0.49550  0.37790  0.13020  1.0000 0.1202475625
H   H62       1.0  0.37790  0.49550  0.36980  1.0000 0.1202475625
H   H63       1.0  0.50450  0.62210  0.86980  1.0000 0.1202475625
H   H64       1.0  0.62210  0.50450  0.63020  1.0000 0.1202475625
H   H65       1.0  0.31460  0.20440  0.12900  1.0000 0.1100844731
H   H66       1.0  0.20440  0.31460  0.37100  1.0000 0.1100844731
H   H67       1.0  0.68540  0.79560  0.87100  1.0000 0.1100844731
H   H68       1.0  0.79560  0.68540  0.62900  1.0000 0.1100844731
H   H69       1.0  0.48330  0.52030  0.08970  1.0000 0.1011650556
H   H70       1.0  0.52030  0.48330  0.41030  1.0000 0.1011650556
H   H71       1.0  0.51670  0.47970  0.91030  1.0000 0.1011650556
H   H72       1.0  0.47970  0.51670  0.58970  1.0000 0.1011650556
H   H73       1.0  0.30560  0.35860  0.09610  1.0000 0.0927072304
H   H74       1.0  0.35860  0.30560  0.40390  1.0000 0.0927072304
H   H75       1.0  0.69440  0.64140  0.90390  1.0000 0.0927072304
H   H76       1.0  0.64140  0.69440  0.59610  1.0000 0.0927072304
H   H77       1.0  0.55450  0.77490  0.88200  1.0000 0.1100844731
H   H78       1.0  0.77490  0.55450  0.61800  1.0000 0.1100844731
H   H79       1.0  0.44550  0.22510  0.11800  1.0000 0.1100844731
H   H80       1.0  0.22510  0.44550  0.38200  1.0000 0.1100844731
H   H81       1.0  0.68500  0.82800  0.93540  1.0000 0.1100844731
H   H82       1.0  0.82800  0.68500  0.56460  1.0000 0.1100844731
H   H83       1.0  0.31500  0.17200  0.06460  1.0000 0.1100844731
H   H84       1.0  0.17200  0.31500  0.43540  1.0000 0.1100844731
H   H85       1.0  0.43480  0.67300  0.95780  1.0000 0.1011650556
H   H86       1.0  0.67300  0.43480  0.54220  1.0000 0.1011650556
H   H87       1.0  0.56520  0.32700  0.04220  1.0000 0.1011650556
H   H88       1.0  0.32700  0.56520  0.45780  1.0000 0.1011650556
H   H89       1.0  0.56190  0.71170  0.00660  1.0000 0.1011650556
H   H90       1.0  0.71170  0.56190  0.49340  1.0000 0.1011650556
H   H91       1.0  0.43810  0.28830  0.99340  1.0000 0.1011650556
H   H92       1.0  0.28830  0.43810  0.50660  1.0000 0.1011650556
H   H93       1.0  0.15150  0.31630  0.97820  1.0000 0.1385166693
H   H94       1.0  0.31630  0.15150  0.52180  1.0000 0.1385166693
H   H95       1.0  0.84850  0.68370  0.02180  1.0000 0.1385166693
H   H96       1.0  0.68370  0.84850  0.47820  1.0000 0.1385166693
H   H97       1.0  0.11290  0.30050  0.02030  1.0000 0.1296274846
H   H98       1.0  0.30050  0.11290  0.47970  1.0000 0.1296274846
H   H99       1.0  0.88710  0.69950  0.97970  1.0000 0.1296274846
H   H100      1.0  0.69950  0.88710  0.52030  1.0000 0.1296274846
H   H101      1.0  0.16480  0.42080  0.96300  1.0000 0.1296274846
H   H102      1.0  0.42080  0.16480  0.53700  1.0000 0.1296274846
H   H103      1.0  0.83520  0.57920  0.03700  1.0000 0.1296274846
H   H104      1.0  0.57920  0.83520  0.46300  1.0000 0.1296274846
H   H105      1.0  0.61550  0.70570  0.76780  1.0000 0.1011650556
H   H106      1.0  0.70570  0.61550  0.73220  1.0000 0.1011650556
H   H107      1.0  0.38450  0.29430  0.23220  1.0000 0.1011650556
H   H108      1.0  0.29430  0.38450  0.26780  1.0000 0.1011650556
H   H109      1.0  0.73700  0.83340  0.72750  1.0000 0.1011650556
H   H110      1.0  0.83340  0.73700  0.77250  1.0000 0.1011650556
H   H111      1.0  0.26300  0.16660  0.27250  1.0000 0.1011650556
H   H112      1.0  0.16660  0.26300  0.22750  1.0000 0.1011650556
H   H113      1.0  0.47860  0.45220  0.81060  1.0000 0.1011650556
H   H114      1.0  0.45220  0.47860  0.68940  1.0000 0.1011650556
H   H115      1.0  0.52140  0.54780  0.18940  1.0000 0.1011650556
H   H116      1.0  0.54780  0.52140  0.31060  1.0000 0.1011650556
H   H117      1.0  0.63680  0.53280  0.83520  1.0000 0.1011650556
H   H118      1.0  0.53280  0.63680  0.66480  1.0000 0.1011650556
H   H119      1.0  0.36320  0.46720  0.16480  1.0000 0.1011650556
H   H120      1.0  0.46720  0.36320  0.33520  1.0000 0.1011650556
H   H121      1.0  0.31680  0.07240  0.95940  1.0000 0.1100844731
H   H122      1.0  0.07240  0.31680  0.54060  1.0000 0.1100844731
H   H123      1.0  0.68320  0.92760  0.04060  1.0000 0.1100844731
H   H124      1.0  0.92760  0.68320  0.45940  1.0000 0.1100844731
H   H125      1.0  0.98980  0.17660  0.81230  1.0000 0.1100844731
H   H126      1.0  0.17660  0.98980  0.68770  1.0000 0.1100844731
H   H127      1.0  0.01020  0.82340  0.18770  1.0000 0.1100844731
H   H128      1.0  0.82340  0.01020  0.31230  1.0000 0.1100844731
H   H129      1.0  0.82820  0.98280  0.76940  1.0000 0.1202475625
H   H130      1.0  0.98280  0.82820  0.73060  1.0000 0.1202475625
H   H131      1.0  0.17180  0.01720  0.23060  1.0000 0.1202475625
H   H132      1.0  0.01720  0.17180  0.26940  1.0000 0.1202475625
H   H133      1.0  0.44710  0.30010  0.89290  1.0000 0.1100844731
H   H134      1.0  0.30010  0.44710  0.60710  1.0000 0.1100844731
H   H135      1.0  0.55290  0.69990  0.10710  1.0000 0.1100844731
H   H136      1.0  0.69990  0.55290  0.39290  1.0000 0.1100844731
H   H137      1.0  0.32430  0.12230  0.78910  1.0000 0.1296274846
H   H138      1.0  0.12230  0.32430  0.71090  1.0000 0.1296274846
H   H139      1.0  0.67570  0.87770  0.21090  1.0000 0.1296274846
H   H140      1.0  0.87770  0.67570  0.28910  1.0000 0.1296274846
H   H141      1.0  0.20220  0.90020  0.85690  1.0000 0.1100844731
H   H142      1.0  0.90020  0.20220  0.64310  1.0000 0.1100844731
H   H143      1.0  0.79780  0.09980  0.14310  1.0000 0.1100844731
H   H144      1.0  0.09980  0.79780  0.35690  1.0000 0.1100844731
H   H145      1.0  0.17370  0.09770  0.93850  1.0000 0.1100844731
H   H146      1.0  0.09770  0.17370  0.56150  1.0000 0.1100844731
H   H147      1.0  0.82630  0.90230  0.06150  1.0000 0.1100844731
H   H148      1.0  0.90230  0.82630  0.43850  1.0000 0.1100844731
H   H149      1.0  0.01810  0.90830  0.89640  1.0000 0.1296274846
H   H150      1.0  0.90830  0.01810  0.60360  1.0000 0.1296274846
H   H151      1.0  0.98190  0.09170  0.10360  1.0000 0.1296274846
H   H152      1.0  0.09170  0.98190  0.39640  1.0000 0.1296274846
C   C1        1.0  0.04160  0.47580  0.12054  1.0000 -0.0094147217
C   C2        1.0  0.47580  0.04160  0.37946  1.0000 -0.0094147217
C   C3        1.0  0.95840  0.52420  0.87946  1.0000 -0.0094147217
C   C4        1.0  0.52420  0.95840  0.62054  1.0000 -0.0094147217
C   C5        1.0  0.23371  0.57629  0.10197  1.0000 -0.0094147217
C   C6        1.0  0.57629  0.23371  0.39803  1.0000 -0.0094147217
C   C7        1.0  0.76629  0.42371  0.89803  1.0000 -0.0094147217
C   C8        1.0  0.42371  0.76629  0.60197  1.0000 -0.0094147217
C   C9        1.0  0.81145  0.37515  0.05300  1.0000 -0.0898665664
C   C10       1.0  0.37515  0.81145  0.44700  1.0000 -0.0898665664
C   C11       1.0  0.18855  0.62485  0.94700  1.0000 -0.0898665664
C   C12       1.0  0.62485  0.18855  0.55300  1.0000 -0.0898665664
C   C13       1.0  0.24526  0.60834  0.01080  1.0000 -0.1199625435
C   C14       1.0  0.60834  0.24526  0.48920  1.0000 -0.1199625435
C   C15       1.0  0.75474  0.39166  0.98920  1.0000 -0.1199625435
C   C16       1.0  0.39166  0.75474  0.51080  1.0000 -0.1199625435
C   C17       1.0  0.31951  0.75089  0.12500  1.0000 -0.3391431701
C   C18       1.0  0.75089  0.31951  0.37500  1.0000 -0.3391431701
C   C19       1.0  0.68049  0.24911  0.87500  1.0000 -0.3391431701
C   C20       1.0  0.24911  0.68049  0.62500  1.0000 -0.3391431701
C   C21       1.0  0.39794  0.29746  0.10652  1.0000 -0.0996410173
C   C22       1.0  0.29746  0.39794  0.39348  1.0000 -0.0996410173
C   C23       1.0  0.60206  0.70254  0.89348  1.0000 -0.0996410173
C   C24       1.0  0.70254  0.60206  0.60652  1.0000 -0.0996410173
C   C25       1.0  0.37657  0.43403  0.07020  1.0000 -0.02180883
C   C26       1.0  0.43403  0.37657  0.42980  1.0000 -0.02180883
C   C27       1.0  0.62343  0.56597  0.92980  1.0000 -0.02180883
C   C28       1.0  0.56597  0.62343  0.57020  1.0000 -0.02180883
C   C29       1.0  0.58501  0.74199  0.91422  1.0000 -0.0898665664
C   C30       1.0  0.74199  0.58501  0.58578  1.0000 -0.0898665664
C   C31       1.0  0.41499  0.25801  0.08578  1.0000 -0.0898665664
C   C32       1.0  0.25801  0.41499  0.41422  1.0000 -0.0898665664
C   C33       1.0  0.45833  0.63147  0.98420  1.0000 -0.0094147217
C   C34       1.0  0.63147  0.45833  0.51580  1.0000 -0.0094147217
C   C35       1.0  0.54167  0.36853  0.01580  1.0000 -0.0046093719
C   C36       1.0  0.36853  0.54167  0.48420  1.0000 -0.0094147217
C   C37       1.0  0.17920  0.37260  0.99330  1.0000 -0.3391431701
C   C38       1.0  0.37260  0.17920  0.50670  1.0000 -0.3391431701
C   C39       1.0  0.82080  0.62740  0.00670  1.0000 -0.3391431701
C   C40       1.0  0.62740  0.82080  0.49330  1.0000 -0.3391431701
C   C41       1.0  0.62080  0.62080  0.75000  1.0000 0.0927072304
C   C42       1.0  0.37920  0.37920  0.25000  1.0000 0.0927072304
C   C43       1.0  0.69382  0.74938  0.76029  1.0000 -0.0898665664
C   C44       1.0  0.74938  0.69382  0.73971  1.0000 -0.0898665664
C   C45       1.0  0.30618  0.25062  0.23971  1.0000 -0.0898665664
C   C46       1.0  0.25062  0.30618  0.26029  1.0000 -0.0898665664
C   C47       1.0  0.09747  0.15673  0.88018  1.0000 -0.0534802777
C   C48       1.0  0.15673  0.09747  0.61982  1.0000 -0.0534802777
C   C49       1.0  0.90253  0.84327  0.11982  1.0000 -0.0534802777
C   C50       1.0  0.84327  0.90253  0.38018  1.0000 -0.0534802777
C   C51       1.0  0.55276  0.49104  0.80259  1.0000 -0.0898665664
C   C52       1.0  0.49104  0.55276  0.69741  1.0000 -0.0898665664
C   C53       1.0  0.44724  0.50896  0.19741  1.0000 -0.0898665664
C   C54       1.0  0.50896  0.44724  0.30259  1.0000 -0.0898665664
C   C55       1.0  0.39839  0.23381  0.83379  1.0000 0.249814986
C   C56       1.0  0.23381  0.39839  0.66621  1.0000 0.249814986
C   C57       1.0  0.60161  0.76619  0.16621  1.0000 0.249814986
C   C58       1.0  0.76619  0.60161  0.33379  1.0000 0.249814986
C   C59       1.0  0.31936  0.08284  0.92536  1.0000 -0.0996410173
C   C60       1.0  0.08284  0.31936  0.57464  1.0000 -0.0996410173
C   C61       1.0  0.68064  0.91716  0.07464  1.0000 -0.0996410173
C   C62       1.0  0.91716  0.68064  0.42536  1.0000 -0.0996410173
C   C63       1.0  0.24527  0.96113  0.91590  1.0000 -0.0637487908
C   C64       1.0  0.96113  0.24527  0.58410  1.0000 -0.0637487908
C   C65       1.0  0.75473  0.03887  0.08410  1.0000 -0.0637487908
C   C66       1.0  0.03887  0.75473  0.41590  1.0000 -0.0637487908
C   C67       1.0  0.99443  0.12157  0.82933  1.0000 -0.0996410173
C   C68       1.0  0.12157  0.99443  0.67067  1.0000 -0.0996410173
C   C69       1.0  0.00557  0.87843  0.17067  1.0000 -0.0996410173
C   C70       1.0  0.87843  0.00557  0.32933  1.0000 -0.0996410173
C   C71       1.0  0.90717  0.92623  0.82862  1.0000 0.249814986
C   C72       1.0  0.92623  0.90717  0.67138  1.0000 0.249814986
C   C73       1.0  0.09283  0.07377  0.17138  1.0000 0.249814986
C   C74       1.0  0.07377  0.09283  0.32862  1.0000 0.249814986
C   C75       1.0  0.89766  0.00594  0.80316  1.0000 -0.2699133818
C   C76       1.0  0.00594  0.89766  0.69684  1.0000 -0.2699133818
C   C77       1.0  0.10234  0.99406  0.19684  1.0000 -0.2699133818
C   C78       1.0  0.99406  0.10234  0.30316  1.0000 -0.2699133818
C   C79       1.0  0.39694  0.21946  0.88545  1.0000 -0.2699133818
C   C80       1.0  0.21946  0.39694  0.61455  1.0000 -0.2699133818
C   C81       1.0  0.60306  0.78054  0.11455  1.0000 -0.2699133818
C   C82       1.0  0.78054  0.60306  0.38545  1.0000 -0.2699133818
C   C83       1.0  0.19936  0.27984  0.90880  1.0000 0.5388430926
C   C84       1.0  0.27984  0.19936  0.59120  1.0000 0.5388430926
C   C85       1.0  0.80064  0.72016  0.09120  1.0000 0.5388430926
C   C86       1.0  0.72016  0.80064  0.40880  1.0000 0.5388430926
C   C87       1.0  0.32408  0.11312  0.82351  1.0000 -0.2315093157
C   C88       1.0  0.11312  0.32408  0.67649  1.0000 -0.2315093157
C   C89       1.0  0.67592  0.88688  0.17649  1.0000 -0.2315093157
C   C90       1.0  0.88688  0.67592  0.32351  1.0000 -0.2315093157
C   C91       1.0  0.24991  0.97949  0.86405  1.0000 -0.1199625435
C   C92       1.0  0.97949  0.24991  0.63595  1.0000 -0.1133718369
C   C93       1.0  0.75009  0.02051  0.13595  1.0000 -0.1133718369
C   C94       1.0  0.02051  0.75009  0.36405  1.0000 -0.1199625435
C   C95       1.0  0.10472  0.07508  0.90462  1.0000 -0.0996410173
C   C96       1.0  0.07508  0.10472  0.59538  1.0000 -0.0996410173
C   C97       1.0  0.89528  0.92492  0.09538  1.0000 -0.0996410173
C   C98       1.0  0.92492  0.89528  0.40462  1.0000 -0.0996410173
C   C99       1.0  0.16284  0.81476  0.96028  1.0000 0.5388430926
C   C100      1.0  0.81476  0.16284  0.53972  1.0000 0.5388430926
C   C101      1.0  0.83716  0.18524  0.03972  1.0000 0.5388430926
C   C102      1.0  0.18524  0.83716  0.46028  1.0000 0.5388430926
C   C103      1.0  0.01171  0.96169  0.87960  1.0000 -0.2315093157
C   C104      1.0  0.96169  0.01171  0.62040  1.0000 -0.2315093157
C   C105      1.0  0.98829  0.03831  0.12040  1.0000 -0.2315093157
C   C106      1.0  0.03831  0.98829  0.37960  1.0000 -0.2315093157
N   N1        1.0  0.98023  0.49797  0.06196  1.0000 -0.3347656083
N   N2        1.0  0.49797  0.98023  0.43804  1.0000 -0.3391431701
N   N3        1.0  0.01977  0.50203  0.93804  1.0000 -0.3391431701
N   N4        1.0  0.50203  0.01977  0.56196  1.0000 -0.3347656083
N   N5        1.0  0.21930  0.62630  0.03946  1.0000 -0.3206494751
N   N6        1.0  0.62630  0.21930  0.46054  1.0000 -0.3206494751
N   N7        1.0  0.78070  0.37370  0.96054  1.0000 -0.3206494751
N   N8        1.0  0.37370  0.78070  0.53946  1.0000 -0.3206494751
N   N9        1.0  0.20321  0.58799  0.12945  1.0000 -0.0806001749
N   N10       1.0  0.58799  0.20321  0.37055  1.0000 -0.0806001749
N   N11       1.0  0.79679  0.41201  0.87055  1.0000 -0.0806001749
N   N12       1.0  0.41201  0.79679  0.62945  1.0000 -0.0806001749
N   N13       1.0  0.46305  0.60035  0.95116  1.0000 -0.3206494751
N   N14       1.0  0.60035  0.46305  0.54884  1.0000 -0.3206494751
N   N15       1.0  0.53695  0.39965  0.04884  1.0000 -0.3206494751
N   N16       1.0  0.39965  0.53695  0.45116  1.0000 -0.3206494751
N   N17       1.0  0.35985  0.35555  0.05659  1.0000 -0.3206494751
N   N18       1.0  0.35555  0.35985  0.44341  1.0000 -0.3206494751
N   N19       1.0  0.64015  0.64445  0.94341  1.0000 -0.3206494751
N   N20       1.0  0.64445  0.64015  0.55659  1.0000 -0.3206494751
N   N21       1.0  0.34396  0.49444  0.02152  1.0000 -0.0996410173
N   N22       1.0  0.49444  0.34396  0.47848  1.0000 -0.0996410173
N   N23       1.0  0.65604  0.50556  0.97848  1.0000 -0.0996410173
N   N24       1.0  0.50556  0.65604  0.52152  1.0000 -0.0996410173
O   O1        1.0  0.81663  0.80717  0.80899  1.0000 -0.1939896819
O   O2        1.0  0.80717  0.81663  0.69101  1.0000 -0.1939896819
O   O3        1.0  0.18337  0.19283  0.19101  1.0000 -0.1939896819
O   O4        1.0  0.19283  0.18337  0.30899  1.0000 -0.1939896819
O   O5        1.0  0.29804  0.31336  0.95205  1.0000 -0.5741923404
O   O6        1.0  0.31336  0.29804  0.54795  1.0000 -0.5750270438
O   O7        1.0  0.70196  0.68664  0.04795  1.0000 -0.5750270438
O   O8        1.0  0.68664  0.70196  0.45205  1.0000 -0.5750270438
O   O9        1.0  0.18156  0.34404  0.88698  1.0000 -0.5968680334
O   O10       1.0  0.34404  0.18156  0.61302  1.0000 -0.5968680334
O   O11       1.0  0.81844  0.65596  0.11302  1.0000 -0.5968680334
O   O12       1.0  0.65596  0.81844  0.38698  1.0000 -0.5968680334
O   O13       1.0  0.11492  0.71788  0.95192  1.0000 -0.5904200402
O   O14       1.0  0.71788  0.11492  0.54808  1.0000 -0.5904200402
O   O15       1.0  0.88508  0.28212  0.04808  1.0000 -0.5904200402
O   O16       1.0  0.28212  0.88508  0.45192  1.0000 -0.5904200402
O   O17       1.0  0.14260  0.79540  0.00190  1.0000 -0.5904200402
O   O18       1.0  0.79540  0.14260  0.49810  1.0000 -0.5904200402
O   O19       1.0  0.85740  0.20460  0.99810  1.0000 -0.5904200402
O   O20       1.0  0.20460  0.85740  0.50190  1.0000 -0.5904200402
O   O21       1.0  0.47491  0.36569  0.79215  1.0000 -0.1820596707
O   O22       1.0  0.36569  0.47491  0.70785  1.0000 -0.1820596707
O   O23       1.0  0.52509  0.63431  0.20785  1.0000 -0.1820596707
O   O24       1.0  0.63431  0.52509  0.29215  1.0000 -0.1820596707
