# DDEC6 charges by PACMAN v1.1 (https://github.com/mtap-research/PACMAN-charge/)
data_2016[Zn][nan]2[ASR]3
_chemical_formula_sum              "Zn2 H32 C84 N12 F20"
_cell_length_a       13.4843
_cell_length_b       13.4843
_cell_length_c       14.106
_cell_angle_alpha    79.432
_cell_angle_beta     100.568
_cell_angle_gamma    117.92

_symmetry_space_group_name_H-M    "P 1"
_symmetry_Int_Tables_number       1

loop_
  _symmetry_equiv_pos_as_xyz
  'x, y, z'

loop_
  _atom_site_type_symbol
  _atom_site_label
  _atom_site_symmetry_multiplicity
  _atom_site_fract_x
  _atom_site_fract_y
  _atom_site_fract_z
  _atom_site_occupancy
  _atom_site_charge
Zn  Zn1       1.0  0.00000  0.50000  0.00000  1.0000 0.594350642
Zn  Zn2       1.0  0.50000  0.00000  0.50000  1.0000 0.594350642
H   H1        1.0  0.65240  0.54680  0.81750  1.0000 0.1297021821
H   H2        1.0  0.64550  0.38870  0.74780  1.0000 0.1297021821
H   H3        1.0  0.89700  0.17060  0.80630  1.0000 0.1297021821
H   H4        1.0  0.06890  0.18350  0.91310  1.0000 0.1297021821
H   H5        1.0  0.65100  0.12000  0.84040  1.0000 0.1412367955
H   H6        1.0  0.53880  0.00500  0.72170  1.0000 0.1044662264
H   H7        1.0  0.70230  0.23370  0.52060  1.0000 0.1058713854
H   H8        1.0  0.80850  0.35910  0.63360  1.0000 0.1412367955
H   H9        1.0  0.54680  0.65240  0.68250  1.0000 0.1297021821
H   H10       1.0  0.38870  0.64550  0.75220  1.0000 0.1297021821
H   H11       1.0  0.17060  0.89700  0.69370  1.0000 0.1297021821
H   H12       1.0  0.18350  0.06890  0.58690  1.0000 0.1297021821
H   H13       1.0  0.12000  0.65100  0.65960  1.0000 0.1412367955
H   H14       1.0  0.00500  0.53880  0.77830  1.0000 0.1044662264
H   H15       1.0  0.23370  0.70230  0.97940  1.0000 0.1058713854
H   H16       1.0  0.35910  0.80850  0.86640  1.0000 0.1412367955
H   H17       1.0  0.34760  0.45320  0.18250  1.0000 0.1297021821
H   H18       1.0  0.35450  0.61130  0.25220  1.0000 0.1297021821
H   H19       1.0  0.10300  0.82940  0.19370  1.0000 0.1297021821
H   H20       1.0  0.93110  0.81650  0.08690  1.0000 0.1297021821
H   H21       1.0  0.34900  0.88000  0.15960  1.0000 0.1412367955
H   H22       1.0  0.46120  0.99500  0.27830  1.0000 0.1044662264
H   H23       1.0  0.29770  0.76630  0.47940  1.0000 0.1058713854
H   H24       1.0  0.19150  0.64090  0.36640  1.0000 0.1412367955
H   H25       1.0  0.45320  0.34760  0.31750  1.0000 0.1297021821
H   H26       1.0  0.61130  0.35450  0.24780  1.0000 0.1297021821
H   H27       1.0  0.82940  0.10300  0.30630  1.0000 0.1297021821
H   H28       1.0  0.81650  0.93110  0.41310  1.0000 0.1297021821
H   H29       1.0  0.88000  0.34900  0.34040  1.0000 0.1412367955
H   H30       1.0  0.99500  0.46120  0.22170  1.0000 0.1044662264
H   H31       1.0  0.76630  0.29770  0.02060  1.0000 0.1058713854
H   H32       1.0  0.64090  0.19150  0.13360  1.0000 0.1412367955
C   C1        1.0  0.83980  0.64220  0.96030  1.0000 -0.0359896846
C   C2        1.0  0.80510  0.55450  0.90440  1.0000 0.1777661801
C   C3        1.0  0.70500  0.51640  0.83380  1.0000 -0.1888544917
C   C4        1.0  0.70110  0.43030  0.79630  1.0000 -0.1888544917
C   C5        1.0  0.79680  0.41240  0.84300  1.0000 0.1589252375
C   C6        1.0  0.82115  0.32665  0.82830  1.0000 -0.0822805926
C   C7        1.0  0.91200  0.30560  0.87450  1.0000 0.1730578937
C   C8        1.0  0.93830  0.22210  0.85320  1.0000 -0.1888544917
C   C9        1.0  0.03180  0.22900  0.91100  1.0000 -0.1773143202
C   C10       1.0  0.06510  0.32070  0.97030  1.0000 0.1979754925
C   C11       1.0  0.76840  0.70160  0.94610  1.0000 -0.1504002899
C   C12       1.0  0.80010  0.80690  0.88580  1.0000 0.1589252375
C   C13       1.0  0.73450  0.86330  0.86400  1.0000 0.0499007524
C   C14       1.0  0.63450  0.81630  0.90250  1.0000 0.0756024908
C   C15       1.0  0.60050  0.71730  0.95750  1.0000 0.0499007524
C   C16       1.0  0.66880  0.66000  0.98130  1.0000 0.1730578937
C   C17       1.0  0.74470  0.25110  0.75130  1.0000 0.1297021821
C   C18       1.0  0.66290  0.14670  0.77430  1.0000 -0.1888544917
C   C19       1.0  0.59600  0.07800  0.70300  1.0000 0.0902670225
C   C20       1.0  0.68890  0.21050  0.58680  1.0000 0.0902670225
C   C21       1.0  0.75530  0.28470  0.65440  1.0000 -0.2009023368
C   C22       1.0  0.64220  0.83980  0.53970  1.0000 -0.0359896846
C   C23       1.0  0.55450  0.80510  0.59560  1.0000 0.1777661801
C   C24       1.0  0.51640  0.70500  0.66620  1.0000 -0.1888544917
C   C25       1.0  0.43030  0.70110  0.70370  1.0000 -0.1888544917
C   C26       1.0  0.41240  0.79680  0.65700  1.0000 0.1589252375
C   C27       1.0  0.32665  0.82115  0.67170  1.0000 -0.0822805926
C   C28       1.0  0.30560  0.91200  0.62550  1.0000 0.1730578937
C   C29       1.0  0.22210  0.93830  0.64680  1.0000 -0.1888544917
C   C30       1.0  0.22900  0.03180  0.58900  1.0000 -0.1773143202
C   C31       1.0  0.32070  0.06510  0.52970  1.0000 0.1979754925
C   C32       1.0  0.70160  0.76840  0.55390  1.0000 -0.1504002899
C   C33       1.0  0.80690  0.80010  0.61420  1.0000 0.1589252375
C   C34       1.0  0.86330  0.73450  0.63600  1.0000 0.0499007524
C   C35       1.0  0.81630  0.63450  0.59750  1.0000 0.0756024908
C   C36       1.0  0.71730  0.60050  0.54250  1.0000 0.0499007524
C   C37       1.0  0.66000  0.66880  0.51870  1.0000 0.1730578937
C   C38       1.0  0.25110  0.74470  0.74870  1.0000 0.1297021821
C   C39       1.0  0.14670  0.66290  0.72570  1.0000 -0.1888544917
C   C40       1.0  0.07800  0.59600  0.79700  1.0000 0.0902670225
C   C41       1.0  0.21050  0.68890  0.91320  1.0000 0.0902670225
C   C42       1.0  0.28470  0.75530  0.84560  1.0000 -0.2009023368
C   C43       1.0  0.16020  0.35780  0.03970  1.0000 -0.0359896846
C   C44       1.0  0.19490  0.44550  0.09560  1.0000 0.1777661801
C   C45       1.0  0.29500  0.48360  0.16620  1.0000 -0.1888544917
C   C46       1.0  0.29890  0.56970  0.20370  1.0000 -0.1888544917
C   C47       1.0  0.20320  0.58760  0.15700  1.0000 0.1589252375
C   C48       1.0  0.17885  0.67335  0.17170  1.0000 -0.0822805926
C   C49       1.0  0.08800  0.69440  0.12550  1.0000 0.1730578937
C   C50       1.0  0.06170  0.77790  0.14680  1.0000 -0.1888544917
C   C51       1.0  0.96820  0.77100  0.08900  1.0000 -0.1773143202
C   C52       1.0  0.93490  0.67930  0.02970  1.0000 0.1979754925
C   C53       1.0  0.23160  0.29840  0.05390  1.0000 -0.1504002899
C   C54       1.0  0.19990  0.19310  0.11420  1.0000 0.1589252375
C   C55       1.0  0.26550  0.13670  0.13600  1.0000 0.0499007524
C   C56       1.0  0.36550  0.18370  0.09750  1.0000 0.0756024908
C   C57       1.0  0.39950  0.28270  0.04250  1.0000 0.0499007524
C   C58       1.0  0.33120  0.34000  0.01870  1.0000 0.1730578937
C   C59       1.0  0.25530  0.74890  0.24870  1.0000 0.1297021821
C   C60       1.0  0.33710  0.85330  0.22570  1.0000 -0.1888544917
C   C61       1.0  0.40400  0.92200  0.29700  1.0000 0.0902670225
C   C62       1.0  0.31110  0.78950  0.41320  1.0000 0.0902670225
C   C63       1.0  0.24470  0.71530  0.34560  1.0000 -0.2009023368
C   C64       1.0  0.35780  0.16020  0.46030  1.0000 -0.0359896846
C   C65       1.0  0.44550  0.19490  0.40440  1.0000 0.1777661801
C   C66       1.0  0.48360  0.29500  0.33380  1.0000 -0.1888544917
C   C67       1.0  0.56970  0.29890  0.29630  1.0000 -0.1888544917
C   C68       1.0  0.58760  0.20320  0.34300  1.0000 0.1589252375
C   C69       1.0  0.67335  0.17885  0.32830  1.0000 -0.0822805926
C   C70       1.0  0.69440  0.08800  0.37450  1.0000 0.1730578937
C   C71       1.0  0.77790  0.06170  0.35320  1.0000 -0.1888544917
C   C72       1.0  0.77100  0.96820  0.41100  1.0000 -0.1773143202
C   C73       1.0  0.67930  0.93490  0.47030  1.0000 0.1979754925
C   C74       1.0  0.29840  0.23160  0.44610  1.0000 -0.1504002899
C   C75       1.0  0.19310  0.19990  0.38580  1.0000 0.1589252375
C   C76       1.0  0.13670  0.26550  0.36400  1.0000 0.0499007524
C   C77       1.0  0.18370  0.36550  0.40250  1.0000 0.0756024908
C   C78       1.0  0.28270  0.39950  0.45750  1.0000 0.0499007524
C   C79       1.0  0.34000  0.33120  0.48130  1.0000 0.1730578937
C   C80       1.0  0.74890  0.25530  0.25130  1.0000 0.1297021821
C   C81       1.0  0.85330  0.33710  0.27430  1.0000 -0.1888544917
C   C82       1.0  0.92200  0.40400  0.20300  1.0000 0.0902670225
C   C83       1.0  0.78950  0.31110  0.08680  1.0000 0.0902670225
C   C84       1.0  0.71530  0.24470  0.15440  1.0000 -0.2009023368
N   N1        1.0  0.85889  0.48951  0.90850  1.0000 -0.3602198825
N   N2        1.0  0.98972  0.36368  0.94680  1.0000 -0.3602198825
N   N3        1.0  0.60847  0.10973  0.60950  1.0000 -0.1888544917
N   N4        1.0  0.48951  0.85889  0.59150  1.0000 -0.3602198825
N   N5        1.0  0.36368  0.98972  0.55320  1.0000 -0.3602198825
N   N6        1.0  0.10973  0.60847  0.89050  1.0000 -0.1888544917
N   N7        1.0  0.14111  0.51049  0.09150  1.0000 -0.3602198825
N   N8        1.0  0.01028  0.63632  0.05320  1.0000 -0.3602198825
N   N9        1.0  0.39153  0.89027  0.39050  1.0000 -0.1888544917
N   N10       1.0  0.51049  0.14111  0.40850  1.0000 -0.3602198825
N   N11       1.0  0.63632  0.01028  0.44680  1.0000 -0.3602198825
N   N12       1.0  0.89027  0.39153  0.10950  1.0000 -0.1888544917
F   F1        1.0  0.90170  0.85790  0.85010  1.0000 -0.1099099234
F   F2        1.0  0.77070  0.96350  0.80670  1.0000 -0.1009080387
F   F3        1.0  0.57270  0.87310  0.88100  1.0000 -0.1009080387
F   F4        1.0  0.50210  0.67150  0.99350  1.0000 -0.1009080387
F   F5        1.0  0.63360  0.56300  0.03590  1.0000 -0.1099099234
F   F6        1.0  0.85790  0.90170  0.64990  1.0000 -0.1099099234
F   F7        1.0  0.96350  0.77070  0.69330  1.0000 -0.1009080387
F   F8        1.0  0.87310  0.57270  0.61900  1.0000 -0.1009080387
F   F9        1.0  0.67150  0.50210  0.50650  1.0000 -0.1009080387
F   F10       1.0  0.56300  0.63360  0.46410  1.0000 -0.1099099234
F   F11       1.0  0.09830  0.14210  0.14990  1.0000 -0.1099099234
F   F12       1.0  0.22930  0.03650  0.19330  1.0000 -0.1009080387
F   F13       1.0  0.42730  0.12690  0.11900  1.0000 -0.1009080387
F   F14       1.0  0.49790  0.32850  0.00650  1.0000 -0.1009080387
F   F15       1.0  0.36640  0.43700  0.96410  1.0000 -0.1099099234
F   F16       1.0  0.14210  0.09830  0.35010  1.0000 -0.1099099234
F   F17       1.0  0.03650  0.22930  0.30670  1.0000 -0.1009080387
F   F18       1.0  0.12690  0.42730  0.38100  1.0000 -0.1009080387
F   F19       1.0  0.32850  0.49790  0.49350  1.0000 -0.1009080387
F   F20       1.0  0.43700  0.36640  0.53590  1.0000 -0.1099099234
