# DDEC6 charges by PACMAN v1.1 (https://github.com/mtap-research/PACMAN-charge/)
data_2016[CdFe][srs]3[ASR]1
_chemical_formula_sum              "Cd4 Fe4 H152 C168 N8 O56"
_cell_length_a       18.094
_cell_length_b       12.416
_cell_length_c       24.576
_cell_angle_alpha    90
_cell_angle_beta     102.534
_cell_angle_gamma    90

_symmetry_space_group_name_H-M    "P 1"
_symmetry_Int_Tables_number       1

loop_
  _symmetry_equiv_pos_as_xyz
  'x, y, z'

loop_
  _atom_site_type_symbol
  _atom_site_label
  _atom_site_symmetry_multiplicity
  _atom_site_fract_x
  _atom_site_fract_y
  _atom_site_fract_z
  _atom_site_occupancy
  _atom_site_charge
Cd  Cd1       1.0  0.28944  0.67290  0.36924  1.0000 0.9088039301
Cd  Cd2       1.0  0.21056  0.17290  0.63076  1.0000 0.9088039301
Cd  Cd3       1.0  0.71056  0.32710  0.63076  1.0000 0.9088039301
Cd  Cd4       1.0  0.78944  0.82710  0.36924  1.0000 0.9088039301
Fe  Fe1       1.0  0.92123  0.73069  0.86051  1.0000 0.7608355783
Fe  Fe2       1.0  0.57877  0.23069  0.13949  1.0000 0.7608355783
Fe  Fe3       1.0  0.07877  0.26931  0.13949  1.0000 0.7794708513
Fe  Fe4       1.0  0.42123  0.76931  0.86051  1.0000 0.7794708513
H   H1        1.0  0.45060  0.44760  0.25540  1.0000 0.1302026719
H   H2        1.0  0.04940  0.94760  0.74460  1.0000 0.1302026719
H   H3        1.0  0.25420  0.59510  0.18600  1.0000 0.1302026719
H   H4        1.0  0.24580  0.09510  0.81400  1.0000 0.1302026719
H   H5        1.0  0.35540  0.39840  0.09520  1.0000 0.1391756398
H   H6        1.0  0.14460  0.89840  0.90480  1.0000 0.1391756398
H   H7        1.0  0.24730  0.53660  0.05200  1.0000 0.1208609303
H   H8        1.0  0.25270  0.03660  0.94800  1.0000 0.1208609303
H   H9        1.0  0.20500  0.44020  0.07340  1.0000 0.1302026719
H   H10       1.0  0.29500  0.94020  0.92660  1.0000 0.1302026719
H   H11       1.0  0.06720  0.69920  0.10470  1.0000 0.1302026719
H   H12       1.0  0.43280  0.19920  0.89530  1.0000 0.1302026719
H   H13       1.0  0.13910  0.52070  0.99020  1.0000 0.1302026719
H   H14       1.0  0.36090  0.02070  0.00980  1.0000 0.1302026719
H   H15       1.0  0.91780  0.84910  0.12040  1.0000 0.1302026719
H   H16       1.0  0.58220  0.34910  0.87960  1.0000 0.1302026719
H   H17       1.0  0.00430  0.83200  0.12270  1.0000 0.1302026719
H   H18       1.0  0.49570  0.33200  0.87730  1.0000 0.1302026719
H   H19       1.0  0.95300  0.73350  0.12980  1.0000 0.1208609303
H   H20       1.0  0.54700  0.23350  0.87020  1.0000 0.1208609303
H   H21       1.0  0.90680  0.94080  0.03080  1.0000 0.1302026719
H   H22       1.0  0.59320  0.44080  0.96920  1.0000 0.1302026719
H   H23       1.0  0.92980  0.88290  0.98020  1.0000 0.1482367456
H   H24       1.0  0.57020  0.38290  0.01980  1.0000 0.1482367456
H   H25       1.0  0.99240  0.91980  0.03140  1.0000 0.1391756398
H   H26       1.0  0.50760  0.41980  0.96860  1.0000 0.1391756398
H   H27       1.0  0.82160  0.78750  0.04300  1.0000 0.1302026719
H   H28       1.0  0.67840  0.28750  0.95700  1.0000 0.1302026719
H   H29       1.0  0.85330  0.66960  0.04880  1.0000 0.1208609303
H   H30       1.0  0.64670  0.16960  0.95120  1.0000 0.1208609303
H   H31       1.0  0.84200  0.72970  0.99150  1.0000 0.1391756398
H   H32       1.0  0.65800  0.22970  0.00850  1.0000 0.1391756398
H   H33       1.0  0.06110  0.49610  0.90090  1.0000 0.1208609303
H   H34       1.0  0.43890  0.99610  0.09910  1.0000 0.1208609303
H   H35       1.0  0.00290  0.46880  0.81340  1.0000 0.1208609303
H   H36       1.0  0.49710  0.96880  0.18660  1.0000 0.1208609303
H   H37       1.0  0.99780  0.57970  0.78160  1.0000 0.1302026719
H   H38       1.0  0.50220  0.07970  0.21840  1.0000 0.1302026719
H   H39       1.0  0.87940  0.50480  0.75050  1.0000 0.1208609303
H   H40       1.0  0.62060  0.00480  0.24950  1.0000 0.1208609303
H   H41       1.0  0.87480  0.46840  0.81110  1.0000 0.1208609303
H   H42       1.0  0.62520  0.96840  0.18890  1.0000 0.1208609303
H   H43       1.0  0.77260  0.60490  0.73840  1.0000 0.1104030578
H   H44       1.0  0.72740  0.10490  0.26160  1.0000 0.1104030578
H   H45       1.0  0.63640  0.99660  0.76140  1.0000 0.1302026719
H   H46       1.0  0.86360  0.49660  0.23860  1.0000 0.1302026719
H   H47       1.0  0.66580  0.70260  0.70330  1.0000 0.1208609303
H   H48       1.0  0.83420  0.20260  0.29670  1.0000 0.1208609303
H   H49       1.0  0.85390  0.11840  0.86580  1.0000 0.1302026719
H   H50       1.0  0.64610  0.61840  0.13420  1.0000 0.1302026719
H   H51       1.0  0.83560  0.08360  0.80300  1.0000 0.1391756398
H   H52       1.0  0.66440  0.58360  0.19700  1.0000 0.1391756398
H   H53       1.0  0.87200  0.00090  0.84930  1.0000 0.1482367456
H   H54       1.0  0.62800  0.50090  0.15070  1.0000 0.1482367456
H   H55       1.0  0.77230  0.04270  0.92940  1.0000 0.1302026719
H   H56       1.0  0.72770  0.54270  0.07060  1.0000 0.1302026719
H   H57       1.0  0.79030  0.92540  0.91260  1.0000 0.1391756398
H   H58       1.0  0.70970  0.42540  0.08740  1.0000 0.1391756398
H   H59       1.0  0.70610  0.96330  0.90500  1.0000 0.1208609303
H   H60       1.0  0.79390  0.46330  0.09500  1.0000 0.1208609303
H   H61       1.0  0.72050  0.17590  0.85890  1.0000 0.1391756398
H   H62       1.0  0.77950  0.67590  0.14110  1.0000 0.1302026719
H   H63       1.0  0.65330  0.09710  0.83580  1.0000 0.1208609303
H   H64       1.0  0.84670  0.59710  0.16420  1.0000 0.1208609303
H   H65       1.0  0.70190  0.14380  0.79570  1.0000 0.1302026719
H   H66       1.0  0.79810  0.64380  0.20430  1.0000 0.1302026719
H   H67       1.0  0.52970  0.72280  0.68240  1.0000 0.1208609303
H   H68       1.0  0.97030  0.22280  0.31760  1.0000 0.1208609303
H   H69       1.0  0.57520  0.75170  0.63650  1.0000 0.1104030578
H   H70       1.0  0.92480  0.25170  0.36350  1.0000 0.1104030578
H   H71       1.0  0.43310  0.92300  0.66920  1.0000 0.1208609303
H   H72       1.0  0.06690  0.42300  0.33080  1.0000 0.1208609303
H   H73       1.0  0.28470  0.88580  0.52480  1.0000 0.1391756398
H   H74       1.0  0.21530  0.38580  0.47520  1.0000 0.1391756398
H   H75       1.0  0.47660  0.71570  0.55650  1.0000 0.1391756398
H   H76       1.0  0.02340  0.21570  0.44350  1.0000 0.1391756398
H   H77       1.0  0.54940  0.55240  0.74460  1.0000 0.1302026719
H   H78       1.0  0.95060  0.05240  0.25540  1.0000 0.1302026719
H   H79       1.0  0.74580  0.40490  0.81400  1.0000 0.1302026719
H   H80       1.0  0.75420  0.90490  0.18600  1.0000 0.1302026719
H   H81       1.0  0.64460  0.60160  0.90480  1.0000 0.1391756398
H   H82       1.0  0.85540  0.10160  0.09520  1.0000 0.1391756398
H   H83       1.0  0.75270  0.46340  0.94800  1.0000 0.1208609303
H   H84       1.0  0.74730  0.96340  0.05200  1.0000 0.1208609303
H   H85       1.0  0.79500  0.55980  0.92660  1.0000 0.1302026719
H   H86       1.0  0.70500  0.05980  0.07340  1.0000 0.1302026719
H   H87       1.0  0.93280  0.30080  0.89530  1.0000 0.1302026719
H   H88       1.0  0.56720  0.80080  0.10470  1.0000 0.1302026719
H   H89       1.0  0.86090  0.47930  0.00980  1.0000 0.1302026719
H   H90       1.0  0.63910  0.97930  0.99020  1.0000 0.1302026719
H   H91       1.0  0.08220  0.15090  0.87960  1.0000 0.1302026719
H   H92       1.0  0.41780  0.65090  0.12040  1.0000 0.1302026719
H   H93       1.0  0.99570  0.16800  0.87730  1.0000 0.1302026719
H   H94       1.0  0.50430  0.66800  0.12270  1.0000 0.1302026719
H   H95       1.0  0.04700  0.26650  0.87020  1.0000 0.1208609303
H   H96       1.0  0.45300  0.76650  0.12980  1.0000 0.1208609303
H   H97       1.0  0.09320  0.05920  0.96920  1.0000 0.1302026719
H   H98       1.0  0.40680  0.55920  0.03080  1.0000 0.1302026719
H   H99       1.0  0.07020  0.11710  0.01980  1.0000 0.1482367456
H   H100      1.0  0.42980  0.61710  0.98020  1.0000 0.1482367456
H   H101      1.0  0.00760  0.08020  0.96860  1.0000 0.1391756398
H   H102      1.0  0.49240  0.58020  0.03140  1.0000 0.1391756398
H   H103      1.0  0.17840  0.21250  0.95700  1.0000 0.1302026719
H   H104      1.0  0.32160  0.71250  0.04300  1.0000 0.1302026719
H   H105      1.0  0.14670  0.33040  0.95120  1.0000 0.1208609303
H   H106      1.0  0.35330  0.83040  0.04880  1.0000 0.1208609303
H   H107      1.0  0.15800  0.27030  0.00850  1.0000 0.1391756398
H   H108      1.0  0.34200  0.77030  0.99150  1.0000 0.1391756398
H   H109      1.0  0.93890  0.50390  0.09910  1.0000 0.1208609303
H   H110      1.0  0.56110  0.00390  0.90090  1.0000 0.1208609303
H   H111      1.0  0.99710  0.53120  0.18660  1.0000 0.1208609303
H   H112      1.0  0.50290  0.03120  0.81340  1.0000 0.1208609303
H   H113      1.0  0.00220  0.42030  0.21840  1.0000 0.1302026719
H   H114      1.0  0.49780  0.92030  0.78160  1.0000 0.1302026719
H   H115      1.0  0.12060  0.49520  0.24950  1.0000 0.1208609303
H   H116      1.0  0.37940  0.99520  0.75050  1.0000 0.1208609303
H   H117      1.0  0.12520  0.53160  0.18890  1.0000 0.1208609303
H   H118      1.0  0.37480  0.03160  0.81110  1.0000 0.1208609303
H   H119      1.0  0.22740  0.39510  0.26160  1.0000 0.1104030578
H   H120      1.0  0.27260  0.89510  0.73840  1.0000 0.1104030578
H   H121      1.0  0.36360  0.00340  0.23860  1.0000 0.1302026719
H   H122      1.0  0.13640  0.50340  0.76140  1.0000 0.1302026719
H   H123      1.0  0.33420  0.29740  0.29670  1.0000 0.1208609303
H   H124      1.0  0.16580  0.79740  0.70330  1.0000 0.1208609303
H   H125      1.0  0.14610  0.88160  0.13420  1.0000 0.1302026719
H   H126      1.0  0.35390  0.38160  0.86580  1.0000 0.1302026719
H   H127      1.0  0.16440  0.91640  0.19700  1.0000 0.1391756398
H   H128      1.0  0.33560  0.41640  0.80300  1.0000 0.1391756398
H   H129      1.0  0.12800  0.99910  0.15070  1.0000 0.1482367456
H   H130      1.0  0.37200  0.49910  0.84930  1.0000 0.1482367456
H   H131      1.0  0.22770  0.95730  0.07060  1.0000 0.1302026719
H   H132      1.0  0.27230  0.45730  0.92940  1.0000 0.1302026719
H   H133      1.0  0.20970  0.07460  0.08740  1.0000 0.1391756398
H   H134      1.0  0.29030  0.57460  0.91260  1.0000 0.1391756398
H   H135      1.0  0.29390  0.03670  0.09500  1.0000 0.1208609303
H   H136      1.0  0.20610  0.53670  0.90500  1.0000 0.1208609303
H   H137      1.0  0.27950  0.82410  0.14110  1.0000 0.1391756398
H   H138      1.0  0.22050  0.32410  0.85890  1.0000 0.1302026719
H   H139      1.0  0.34670  0.90290  0.16420  1.0000 0.1208609303
H   H140      1.0  0.15330  0.40290  0.83580  1.0000 0.1208609303
H   H141      1.0  0.29810  0.85620  0.20430  1.0000 0.1302026719
H   H142      1.0  0.20190  0.35620  0.79570  1.0000 0.1302026719
H   H143      1.0  0.47030  0.27720  0.31760  1.0000 0.1208609303
H   H144      1.0  0.02970  0.77720  0.68240  1.0000 0.1208609303
H   H145      1.0  0.42480  0.24830  0.36350  1.0000 0.1104030578
H   H146      1.0  0.07520  0.74830  0.63650  1.0000 0.1104030578
H   H147      1.0  0.56690  0.07700  0.33080  1.0000 0.1208609303
H   H148      1.0  0.93310  0.57700  0.66920  1.0000 0.1208609303
H   H149      1.0  0.71530  0.11420  0.47520  1.0000 0.1391756398
H   H150      1.0  0.78470  0.61420  0.52480  1.0000 0.1391756398
H   H151      1.0  0.52340  0.28430  0.44350  1.0000 0.1391756398
H   H152      1.0  0.97660  0.78430  0.55650  1.0000 0.1391756398
C   C1        1.0  0.47870  0.34600  0.16630  1.0000 0.528995698
C   C2        1.0  0.02130  0.84600  0.83370  1.0000 0.528995698
C   C3        1.0  0.41320  0.41700  0.17420  1.0000 0.0022145432
C   C4        1.0  0.08680  0.91700  0.82580  1.0000 0.0022145432
C   C5        1.0  0.41220  0.46240  0.22440  1.0000 -0.1204935875
C   C6        1.0  0.08780  0.96240  0.77560  1.0000 -0.1204935875
C   C7        1.0  0.35240  0.53230  0.22910  1.0000 -0.0424193005
C   C8        1.0  0.14760  0.03230  0.77090  1.0000 -0.0424193005
C   C9        1.0  0.29360  0.54880  0.18320  1.0000 -0.1368309114
C   C10       1.0  0.20640  0.04880  0.81680  1.0000 -0.1368309114
C   C11       1.0  0.29300  0.49670  0.13280  1.0000 0.0898485571
C   C12       1.0  0.20700  0.99670  0.86720  1.0000 0.0898485571
C   C13       1.0  0.35420  0.43200  0.12880  1.0000 -0.1595142878
C   C14       1.0  0.14580  0.93200  0.87120  1.0000 -0.1595142878
C   C15       1.0  0.34550  0.58160  0.28180  1.0000 0.5207051762
C   C16       1.0  0.15450  0.08160  0.71820  1.0000 0.5207051762
C   C17       1.0  0.22850  0.50960  0.08350  1.0000 -0.0727938212
C   C18       1.0  0.27150  0.00960  0.91650  1.0000 -0.0727938212
C   C19       1.0  0.11330  0.60490  0.05380  1.0000 0.2395206537
C   C20       1.0  0.38670  0.10490  0.94620  1.0000 0.2395206537
C   C21       1.0  0.05940  0.67370  0.06830  1.0000 -0.2507431827
C   C22       1.0  0.44060  0.17370  0.93170  1.0000 -0.2507431827
C   C23       1.0  0.99470  0.70530  0.03010  1.0000 -0.0297611832
C   C24       1.0  0.50530  0.20530  0.96990  1.0000 -0.0297611832
C   C25       1.0  0.98550  0.67060  0.97430  1.0000 0.2321192339
C   C26       1.0  0.51450  0.17060  0.02570  1.0000 0.2321192339
C   C27       1.0  0.04060  0.60030  0.96020  1.0000 -0.0297611832
C   C28       1.0  0.45940  0.10030  0.03980  1.0000 -0.0297611832
C   C29       1.0  0.10380  0.56730  0.99990  1.0000 -0.2704885401
C   C30       1.0  0.39620  0.06730  0.00010  1.0000 -0.2704885401
C   C31       1.0  0.93730  0.78240  0.04790  1.0000 0.2979739584
C   C32       1.0  0.56270  0.28240  0.95210  1.0000 0.2979739584
C   C33       1.0  0.95470  0.80100  0.11110  1.0000 -0.4787894683
C   C34       1.0  0.54530  0.30100  0.88890  1.0000 -0.4787894683
C   C35       1.0  0.94200  0.89170  0.02000  1.0000 -0.4787894683
C   C36       1.0  0.55800  0.39170  0.98000  1.0000 -0.4787894683
C   C37       1.0  0.85590  0.73810  0.03120  1.0000 -0.4892013486
C   C38       1.0  0.64410  0.23810  0.96880  1.0000 -0.4892013486
C   C39       1.0  0.03270  0.55690  0.90490  1.0000 0.0768558426
C   C40       1.0  0.46730  0.05690  0.09510  1.0000 0.0768558426
C   C41       1.0  0.97800  0.53840  0.80870  1.0000 -0.1065386202
C   C42       1.0  0.52200  0.03840  0.19130  1.0000 -0.1065386202
C   C43       1.0  0.89250  0.52460  0.78960  1.0000 -0.0912333294
C   C44       1.0  0.60750  0.02460  0.21040  1.0000 -0.0966446074
C   C45       1.0  0.79300  0.65430  0.76600  1.0000 0.0898485571
C   C46       1.0  0.70700  0.15430  0.23400  1.0000 0.0898485571
C   C47       1.0  0.75030  0.75040  0.76850  1.0000 -0.0424193005
C   C48       1.0  0.74970  0.25040  0.23150  1.0000 -0.0424193005
C   C49       1.0  0.77420  0.83410  0.80720  1.0000 0.2321192339
C   C50       1.0  0.72580  0.33410  0.19280  1.0000 0.2321192339
C   C51       1.0  0.73130  0.92950  0.80430  1.0000 -0.0156898498
C   C52       1.0  0.76870  0.42950  0.19570  1.0000 -0.0156898498
C   C53       1.0  0.66560  0.93440  0.76380  1.0000 -0.2507431827
C   C54       1.0  0.83440  0.43440  0.23620  1.0000 -0.2507431827
C   C55       1.0  0.64050  0.85190  0.72660  1.0000 0.2395206537
C   C56       1.0  0.85950  0.35190  0.27340  1.0000 0.2395206537
C   C57       1.0  0.68220  0.75860  0.72820  1.0000 -0.2704885401
C   C58       1.0  0.81780  0.25860  0.27180  1.0000 -0.2704885401
C   C59       1.0  0.75700  0.02340  0.84580  1.0000 0.2979739584
C   C60       1.0  0.74300  0.52340  0.15420  1.0000 0.2979739584
C   C61       1.0  0.83730  0.06010  0.84050  1.0000 -0.4614434637
C   C62       1.0  0.66270  0.56010  0.15950  1.0000 -0.4614434637
C   C63       1.0  0.75640  0.98530  0.90330  1.0000 -0.4892013486
C   C64       1.0  0.74360  0.48530  0.09670  1.0000 -0.4892013486
C   C65       1.0  0.70320  0.11890  0.83280  1.0000 -0.4676144108
C   C66       1.0  0.79680  0.61890  0.16720  1.0000 -0.4676144108
C   C67       1.0  0.54030  0.77940  0.65800  1.0000 -0.0575503804
C   C68       1.0  0.95970  0.27940  0.34200  1.0000 -0.0575503804
C   C69       1.0  0.46760  0.81690  0.61950  1.0000 0.0768558426
C   C70       1.0  0.03240  0.31690  0.38050  1.0000 0.0768558426
C   C71       1.0  0.41990  0.89120  0.63420  1.0000 -0.1368309114
C   C72       1.0  0.08010  0.39120  0.36580  1.0000 -0.1368309114
C   C73       1.0  0.35280  0.92080  0.59880  1.0000 -0.0156898498
C   C74       1.0  0.14720  0.42080  0.40120  1.0000 -0.0156898498
C   C75       1.0  0.33080  0.86890  0.54830  1.0000 -0.0912333294
C   C76       1.0  0.16920  0.36890  0.45170  1.0000 -0.0912333294
C   C77       1.0  0.37650  0.79270  0.53260  1.0000 -0.0136890557
C   C78       1.0  0.12350  0.29270  0.46740  1.0000 -0.0136890557
C   C79       1.0  0.44530  0.76670  0.56760  1.0000 -0.1315017104
C   C80       1.0  0.05470  0.26670  0.43240  1.0000 -0.1315017104
C   C81       1.0  0.30530  0.00810  0.61460  1.0000 0.5207051762
C   C82       1.0  0.19470  0.50810  0.38540  1.0000 0.5207051762
C   C83       1.0  0.35210  0.74320  0.47650  1.0000 0.5452384554
C   C84       1.0  0.14790  0.24320  0.52350  1.0000 0.5439803802
C   C85       1.0  0.52130  0.65400  0.83370  1.0000 0.528995698
C   C86       1.0  0.97870  0.15400  0.16630  1.0000 0.528995698
C   C87       1.0  0.58680  0.58300  0.82580  1.0000 0.0022145432
C   C88       1.0  0.91320  0.08300  0.17420  1.0000 0.0022145432
C   C89       1.0  0.58780  0.53760  0.77560  1.0000 -0.1204935875
C   C90       1.0  0.91220  0.03760  0.22440  1.0000 -0.1204935875
C   C91       1.0  0.64760  0.46770  0.77090  1.0000 -0.0455465041
C   C92       1.0  0.85240  0.96770  0.22910  1.0000 -0.0455465041
C   C93       1.0  0.70640  0.45120  0.81680  1.0000 -0.1368309114
C   C94       1.0  0.79360  0.95120  0.18320  1.0000 -0.1368309114
C   C95       1.0  0.70700  0.50330  0.86720  1.0000 0.0898485571
C   C96       1.0  0.79300  0.00330  0.13280  1.0000 0.0898485571
C   C97       1.0  0.64580  0.56800  0.87120  1.0000 -0.1595142878
C   C98       1.0  0.85420  0.06800  0.12880  1.0000 -0.1595142878
C   C99       1.0  0.65450  0.41840  0.71820  1.0000 0.5207051762
C   C100      1.0  0.84550  0.91840  0.28180  1.0000 0.5207051762
C   C101      1.0  0.77150  0.49040  0.91650  1.0000 -0.0727938212
C   C102      1.0  0.72850  0.99040  0.08350  1.0000 -0.0727938212
C   C103      1.0  0.88670  0.39510  0.94620  1.0000 0.2395206537
C   C104      1.0  0.61330  0.89510  0.05380  1.0000 0.2395206537
C   C105      1.0  0.94060  0.32630  0.93170  1.0000 -0.2507431827
C   C106      1.0  0.55940  0.82630  0.06830  1.0000 -0.2507431827
C   C107      1.0  0.00530  0.29470  0.96990  1.0000 -0.0297611832
C   C108      1.0  0.49470  0.79470  0.03010  1.0000 -0.0297611832
C   C109      1.0  0.01450  0.32940  0.02570  1.0000 0.2321192339
C   C110      1.0  0.48550  0.82940  0.97430  1.0000 0.2321192339
C   C111      1.0  0.95940  0.39970  0.03980  1.0000 -0.0297611832
C   C112      1.0  0.54060  0.89970  0.96020  1.0000 -0.0297611832
C   C113      1.0  0.89620  0.43270  0.00010  1.0000 -0.2704885401
C   C114      1.0  0.60380  0.93270  0.99990  1.0000 -0.2704885401
C   C115      1.0  0.06270  0.21760  0.95210  1.0000 0.2979739584
C   C116      1.0  0.43730  0.71760  0.04790  1.0000 0.2979739584
C   C117      1.0  0.04530  0.19900  0.88890  1.0000 -0.4787894683
C   C118      1.0  0.45470  0.69900  0.11110  1.0000 -0.4787894683
C   C119      1.0  0.05800  0.10830  0.98000  1.0000 -0.4787894683
C   C120      1.0  0.44200  0.60830  0.02000  1.0000 -0.4787894683
C   C121      1.0  0.14410  0.26190  0.96880  1.0000 -0.4892013486
C   C122      1.0  0.35590  0.76190  0.03120  1.0000 -0.4892013486
C   C123      1.0  0.96730  0.44310  0.09510  1.0000 0.0768558426
C   C124      1.0  0.53270  0.94310  0.90490  1.0000 0.0768558426
C   C125      1.0  0.02200  0.46160  0.19130  1.0000 -0.1065386202
C   C126      1.0  0.47800  0.96160  0.80870  1.0000 -0.1065386202
C   C127      1.0  0.10750  0.47540  0.21040  1.0000 -0.0912333294
C   C128      1.0  0.39250  0.97540  0.78960  1.0000 -0.0912333294
C   C129      1.0  0.20700  0.34570  0.23400  1.0000 0.0898485571
C   C130      1.0  0.29300  0.84570  0.76600  1.0000 0.0898485571
C   C131      1.0  0.24970  0.24960  0.23150  1.0000 -0.0424193005
C   C132      1.0  0.25030  0.74960  0.76850  1.0000 -0.0424193005
C   C133      1.0  0.22580  0.16590  0.19280  1.0000 0.2321192339
C   C134      1.0  0.27420  0.66590  0.80720  1.0000 0.2321192339
C   C135      1.0  0.26870  0.07050  0.19570  1.0000 -0.0156898498
C   C136      1.0  0.23130  0.57050  0.80430  1.0000 -0.0156898498
C   C137      1.0  0.33440  0.06560  0.23620  1.0000 -0.2507431827
C   C138      1.0  0.16560  0.56560  0.76380  1.0000 -0.2507431827
C   C139      1.0  0.35950  0.14810  0.27340  1.0000 0.2395206537
C   C140      1.0  0.14050  0.64810  0.72660  1.0000 0.2395206537
C   C141      1.0  0.31780  0.24140  0.27180  1.0000 -0.2704885401
C   C142      1.0  0.18220  0.74140  0.72820  1.0000 -0.2704885401
C   C143      1.0  0.24300  0.97660  0.15420  1.0000 0.2979739584
C   C144      1.0  0.25700  0.47660  0.84580  1.0000 0.2979739584
C   C145      1.0  0.16270  0.93990  0.15950  1.0000 -0.4614434637
C   C146      1.0  0.33730  0.43990  0.84050  1.0000 -0.4614434637
C   C147      1.0  0.24360  0.01470  0.09670  1.0000 -0.4892013486
C   C148      1.0  0.25640  0.51470  0.90330  1.0000 -0.4892013486
C   C149      1.0  0.29680  0.88110  0.16720  1.0000 -0.4676144108
C   C150      1.0  0.20320  0.38110  0.83280  1.0000 -0.4676144108
C   C151      1.0  0.45970  0.22060  0.34200  1.0000 -0.0575503804
C   C152      1.0  0.04030  0.72060  0.65800  1.0000 -0.0575503804
C   C153      1.0  0.53240  0.18310  0.38050  1.0000 0.0768558426
C   C154      1.0  0.96760  0.68310  0.61950  1.0000 0.0768558426
C   C155      1.0  0.58010  0.10880  0.36580  1.0000 -0.1368309114
C   C156      1.0  0.91990  0.60880  0.63420  1.0000 -0.1368309114
C   C157      1.0  0.64720  0.07920  0.40120  1.0000 -0.0156898498
C   C158      1.0  0.85280  0.57920  0.59880  1.0000 -0.0156898498
C   C159      1.0  0.66920  0.13110  0.45170  1.0000 -0.0912333294
C   C160      1.0  0.83080  0.63110  0.54830  1.0000 -0.0912333294
C   C161      1.0  0.62350  0.20730  0.46740  1.0000 -0.0136890557
C   C162      1.0  0.87650  0.70730  0.53260  1.0000 -0.0136890557
C   C163      1.0  0.55470  0.23330  0.43240  1.0000 -0.1315017104
C   C164      1.0  0.94530  0.73330  0.56760  1.0000 -0.1315017104
C   C165      1.0  0.69470  0.99190  0.38540  1.0000 0.5207051762
C   C166      1.0  0.80530  0.49190  0.61460  1.0000 0.5207051762
C   C167      1.0  0.64790  0.25680  0.52350  1.0000 0.5452384554
C   C168      1.0  0.85210  0.75680  0.47650  1.0000 0.5452384554
N   N1        1.0  0.99020  0.59470  0.86110  1.0000 -0.1876163058
N   N2        1.0  0.50980  0.09470  0.13890  1.0000 -0.1876163058
N   N3        1.0  0.85720  0.62920  0.79850  1.0000 -0.1876163058
N   N4        1.0  0.64280  0.12920  0.20150  1.0000 -0.1876163058
N   N5        1.0  0.00980  0.40530  0.13890  1.0000 -0.1876163058
N   N6        1.0  0.49020  0.90530  0.86110  1.0000 -0.1876163058
N   N7        1.0  0.14280  0.37080  0.20150  1.0000 -0.1876163058
N   N8        1.0  0.35720  0.87080  0.79850  1.0000 -0.1876163058
O   O1        1.0  0.29490  0.64990  0.28310  1.0000 -0.4892013486
O   O2        1.0  0.20510  0.14990  0.71690  1.0000 -0.4892013486
O   O3        1.0  0.52250  0.30520  0.20630  1.0000 -0.4892013486
O   O4        1.0  0.97750  0.80520  0.79370  1.0000 -0.4892013486
O   O5        1.0  0.48970  0.33270  0.11750  1.0000 -0.4676144108
O   O6        1.0  0.01030  0.83270  0.88250  1.0000 -0.4676144108
O   O7        1.0  0.17470  0.58150  0.09597  1.0000 -0.1815726146
O   O8        1.0  0.32530  0.08150  0.90403  1.0000 -0.1815726146
O   O9        1.0  0.92420  0.69990  0.93631  1.0000 -0.4502715813
O   O10       1.0  0.57580  0.19990  0.06369  1.0000 -0.4502715813
O   O11       1.0  0.83700  0.82240  0.84619  1.0000 -0.4306302863
O   O12       1.0  0.66300  0.32240  0.15381  1.0000 -0.4306302863
O   O13       1.0  0.57170  0.86960  0.68940  1.0000 -0.173074121
O   O14       1.0  0.92830  0.36960  0.31060  1.0000 -0.173074121
O   O15       1.0  0.33200  0.07970  0.64820  1.0000 -0.4787894683
O   O16       1.0  0.16800  0.57970  0.35180  1.0000 -0.4787894683
O   O17       1.0  0.28830  0.76090  0.44870  1.0000 -0.4978319876
O   O18       1.0  0.21170  0.26090  0.55130  1.0000 -0.4978319876
O   O19       1.0  0.21120  0.83460  0.33080  1.0000 0.0503467811
O   O20       1.0  0.28880  0.33460  0.66920  1.0000 0.0503467811
O   O21       1.0  0.39630  0.68390  0.46150  1.0000 -0.4502715813
O   O22       1.0  0.10370  0.18390  0.53850  1.0000 -0.4614434637
O   O23       1.0  0.38700  0.55740  0.32220  1.0000 -0.4231151837
O   O24       1.0  0.11300  0.05740  0.67780  1.0000 -0.4231151837
O   O25       1.0  0.24250  0.01830  0.59220  1.0000 -0.4036581687
O   O26       1.0  0.25750  0.51830  0.40780  1.0000 -0.4036581687
O   O27       1.0  0.28200  0.85530  0.34090  1.0000 -0.0966446074
O   O28       1.0  0.21800  0.35530  0.65910  1.0000 -0.0912333294
O   O29       1.0  0.70510  0.35010  0.71690  1.0000 -0.4892013486
O   O30       1.0  0.79490  0.85010  0.28310  1.0000 -0.4892013486
O   O31       1.0  0.47750  0.69480  0.79370  1.0000 -0.4892013486
O   O32       1.0  0.02250  0.19480  0.20630  1.0000 -0.4892013486
O   O33       1.0  0.51030  0.66730  0.88250  1.0000 -0.4676144108
O   O34       1.0  0.98970  0.16730  0.11750  1.0000 -0.4676144108
O   O35       1.0  0.82530  0.41850  0.90403  1.0000 -0.1815726146
O   O36       1.0  0.67470  0.91850  0.09597  1.0000 -0.1815726146
O   O37       1.0  0.07580  0.30010  0.06369  1.0000 -0.4502715813
O   O38       1.0  0.42420  0.80010  0.93631  1.0000 -0.4502715813
O   O39       1.0  0.16300  0.17760  0.15381  1.0000 -0.4358570374
O   O40       1.0  0.33700  0.67760  0.84619  1.0000 -0.4358570374
O   O41       1.0  0.42830  0.13040  0.31060  1.0000 -0.173074121
O   O42       1.0  0.07170  0.63040  0.68940  1.0000 -0.173074121
O   O43       1.0  0.66800  0.92030  0.35180  1.0000 -0.4787894683
O   O44       1.0  0.83200  0.42030  0.64820  1.0000 -0.4787894683
O   O45       1.0  0.71170  0.23910  0.55130  1.0000 -0.4978319876
O   O46       1.0  0.78830  0.73910  0.44870  1.0000 -0.4978319876
O   O47       1.0  0.78880  0.16540  0.66920  1.0000 0.0503467811
O   O48       1.0  0.71120  0.66540  0.33080  1.0000 0.0503467811
O   O49       1.0  0.60370  0.31610  0.53850  1.0000 -0.4614434637
O   O50       1.0  0.89630  0.81610  0.46150  1.0000 -0.4502715813
O   O51       1.0  0.61300  0.44260  0.67780  1.0000 -0.4231151837
O   O52       1.0  0.88700  0.94260  0.32220  1.0000 -0.4306302863
O   O53       1.0  0.75750  0.98170  0.40780  1.0000 -0.4036581687
O   O54       1.0  0.74250  0.48170  0.59220  1.0000 -0.4036581687
O   O55       1.0  0.71800  0.14470  0.65910  1.0000 -0.0966446074
O   O56       1.0  0.78200  0.64470  0.34090  1.0000 -0.0912333294
