# DDEC6 charges by PACMAN v1.1 (https://github.com/mtap-research/PACMAN-charge/)
data_2016[Cu][nbo]3[ASR]11
_chemical_formula_sum              "Cu6 H78 C126 O30"
_cell_length_a       21.54
_cell_length_b       21.54
_cell_length_c       21.54
_cell_angle_alpha    110.105
_cell_angle_beta     110.105
_cell_angle_gamma    110.105

_symmetry_space_group_name_H-M    "P 1"
_symmetry_Int_Tables_number       1

loop_
  _symmetry_equiv_pos_as_xyz
  'x, y, z'

loop_
  _atom_site_type_symbol
  _atom_site_label
  _atom_site_symmetry_multiplicity
  _atom_site_fract_x
  _atom_site_fract_y
  _atom_site_fract_z
  _atom_site_occupancy
  _atom_site_charge
Cu  Cu1       1.0  0.44698  0.92595  0.44698  1.0000 0.8743430895
Cu  Cu2       1.0  0.92595  0.44698  0.44698  1.0000 0.8756249072
Cu  Cu3       1.0  0.44698  0.44698  0.92595  1.0000 0.8743430895
Cu  Cu4       1.0  0.07405  0.55302  0.55302  1.0000 0.8743430895
Cu  Cu5       1.0  0.55302  0.07405  0.55302  1.0000 0.8756249072
Cu  Cu6       1.0  0.55302  0.55302  0.07405  1.0000 0.8756249072
H   H1        1.0  0.42050  0.84140  0.59850  1.0000 0.1280497991
H   H2        1.0  0.84140  0.59850  0.42050  1.0000 0.1280497991
H   H3        1.0  0.59850  0.42050  0.84140  1.0000 0.1280497991
H   H4        1.0  0.15860  0.57950  0.40150  1.0000 0.1280497991
H   H5        1.0  0.40150  0.15860  0.57950  1.0000 0.1280497991
H   H6        1.0  0.57950  0.40150  0.15860  1.0000 0.1280497991
H   H7        1.0  0.57950  0.15860  0.40150  1.0000 0.1280497991
H   H8        1.0  0.15860  0.40150  0.57950  1.0000 0.1280497991
H   H9        1.0  0.40150  0.57950  0.15860  1.0000 0.1280497991
H   H10       1.0  0.84140  0.42050  0.59850  1.0000 0.1280497991
H   H11       1.0  0.59850  0.84140  0.42050  1.0000 0.1280497991
H   H12       1.0  0.42050  0.59850  0.84140  1.0000 0.1280497991
H   H13       1.0  0.42450  0.81960  0.69550  1.0000 0.1280497991
H   H14       1.0  0.81960  0.69550  0.42450  1.0000 0.1280497991
H   H15       1.0  0.69550  0.42450  0.81960  1.0000 0.1280497991
H   H16       1.0  0.18040  0.57550  0.30450  1.0000 0.1280497991
H   H17       1.0  0.30450  0.18040  0.57550  1.0000 0.1280497991
H   H18       1.0  0.57550  0.30450  0.18040  1.0000 0.1280497991
H   H19       1.0  0.57550  0.18040  0.30450  1.0000 0.1280497991
H   H20       1.0  0.18040  0.30450  0.57550  1.0000 0.1280497991
H   H21       1.0  0.30450  0.57550  0.18040  1.0000 0.1280497991
H   H22       1.0  0.81960  0.42450  0.69550  1.0000 0.1280497991
H   H23       1.0  0.69550  0.81960  0.42450  1.0000 0.1280497991
H   H24       1.0  0.42450  0.69550  0.81960  1.0000 0.1280497991
H   H25       1.0  0.58940  0.04500  0.85630  1.0000 0.1138988264
H   H26       1.0  0.04500  0.85630  0.58940  1.0000 0.1138988264
H   H27       1.0  0.85630  0.58940  0.04500  1.0000 0.1138988264
H   H28       1.0  0.95500  0.41060  0.14370  1.0000 0.1138988264
H   H29       1.0  0.14370  0.95500  0.41060  1.0000 0.1138988264
H   H30       1.0  0.41060  0.14370  0.95500  1.0000 0.1138988264
H   H31       1.0  0.41060  0.95500  0.14370  1.0000 0.1138988264
H   H32       1.0  0.95500  0.14370  0.41060  1.0000 0.1138988264
H   H33       1.0  0.14370  0.41060  0.95500  1.0000 0.1138988264
H   H34       1.0  0.04500  0.58940  0.85630  1.0000 0.1138988264
H   H35       1.0  0.85630  0.04500  0.58940  1.0000 0.1138988264
H   H36       1.0  0.58940  0.85630  0.04500  1.0000 0.1138988264
H   H37       1.0  0.58740  0.06560  0.75610  1.0000 0.1280497991
H   H38       1.0  0.06560  0.75610  0.58740  1.0000 0.1280497991
H   H39       1.0  0.75610  0.58740  0.06560  1.0000 0.1280497991
H   H40       1.0  0.93440  0.41260  0.24390  1.0000 0.1280497991
H   H41       1.0  0.24390  0.93440  0.41260  1.0000 0.1280497991
H   H42       1.0  0.41260  0.24390  0.93440  1.0000 0.1280497991
H   H43       1.0  0.41260  0.93440  0.24390  1.0000 0.1280497991
H   H44       1.0  0.93440  0.24390  0.41260  1.0000 0.1280497991
H   H45       1.0  0.24390  0.41260  0.93440  1.0000 0.1280497991
H   H46       1.0  0.06560  0.58740  0.75610  1.0000 0.1280497991
H   H47       1.0  0.75610  0.06560  0.58740  1.0000 0.1280497991
H   H48       1.0  0.58740  0.75610  0.06560  1.0000 0.1280497991
H   H49       1.0  0.50500  0.01730  0.90420  1.0000 0.1138988264
H   H50       1.0  0.01730  0.90420  0.50500  1.0000 0.1138988264
H   H51       1.0  0.90420  0.50500  0.01730  1.0000 0.1138988264
H   H52       1.0  0.98270  0.49500  0.09580  1.0000 0.1138988264
H   H53       1.0  0.09580  0.98270  0.49500  1.0000 0.1138988264
H   H54       1.0  0.49500  0.09580  0.98270  1.0000 0.1138988264
H   H55       1.0  0.49500  0.98270  0.09580  1.0000 0.1138988264
H   H56       1.0  0.98270  0.09580  0.49500  1.0000 0.1138988264
H   H57       1.0  0.09580  0.49500  0.98270  1.0000 0.1138988264
H   H58       1.0  0.01730  0.50500  0.90420  1.0000 0.1138988264
H   H59       1.0  0.90420  0.01730  0.50500  1.0000 0.1138988264
H   H60       1.0  0.50500  0.90420  0.01730  1.0000 0.1138988264
H   H61       1.0  0.58390  0.78630  0.78630  1.0000 0.1138988264
H   H62       1.0  0.78630  0.78630  0.58390  1.0000 0.1138988264
H   H63       1.0  0.78630  0.58390  0.78630  1.0000 0.1138988264
H   H64       1.0  0.21370  0.41610  0.21370  1.0000 0.1138988264
H   H65       1.0  0.21370  0.21370  0.41610  1.0000 0.1138988264
H   H66       1.0  0.41610  0.21370  0.21370  1.0000 0.1138988264
H   H67       1.0  0.60720  0.87320  0.82880  1.0000 0.0980248368
H   H68       1.0  0.87320  0.82880  0.60720  1.0000 0.0980248368
H   H69       1.0  0.82880  0.60720  0.87320  1.0000 0.0980248368
H   H70       1.0  0.12680  0.39280  0.17120  1.0000 0.0980248368
H   H71       1.0  0.17120  0.12680  0.39280  1.0000 0.0980248368
H   H72       1.0  0.39280  0.17120  0.12680  1.0000 0.0980248368
H   H73       1.0  0.39280  0.12680  0.17120  1.0000 0.0980248368
H   H74       1.0  0.12680  0.17120  0.39280  1.0000 0.0980248368
H   H75       1.0  0.17120  0.39280  0.12680  1.0000 0.0980248368
H   H76       1.0  0.87320  0.60720  0.82880  1.0000 0.0980248368
H   H77       1.0  0.82880  0.87320  0.60720  1.0000 0.0980248368
H   H78       1.0  0.60720  0.82880  0.87320  1.0000 0.0980248368
C   C1        1.0  0.50297  0.97063  0.60460  1.0000 0.5819128972
C   C2        1.0  0.97063  0.60460  0.50297  1.0000 0.5819128972
C   C3        1.0  0.60460  0.50297  0.97063  1.0000 0.5819128972
C   C4        1.0  0.02937  0.49703  0.39540  1.0000 0.5819128972
C   C5        1.0  0.39540  0.02937  0.49703  1.0000 0.5819128972
C   C6        1.0  0.49703  0.39540  0.02937  1.0000 0.5819128972
C   C7        1.0  0.49703  0.02937  0.39540  1.0000 0.5819128972
C   C8        1.0  0.02937  0.39540  0.49703  1.0000 0.5819128972
C   C9        1.0  0.39540  0.49703  0.02937  1.0000 0.5819128972
C   C10       1.0  0.97063  0.50297  0.60460  1.0000 0.5819128972
C   C11       1.0  0.60460  0.97063  0.50297  1.0000 0.5819128972
C   C12       1.0  0.50297  0.60460  0.97063  1.0000 0.5819128972
C   C13       1.0  0.50527  0.95578  0.66725  1.0000 -0.0473240899
C   C14       1.0  0.95578  0.66725  0.50527  1.0000 -0.0473240899
C   C15       1.0  0.66725  0.50527  0.95578  1.0000 -0.0473240899
C   C16       1.0  0.04422  0.49473  0.33275  1.0000 -0.0473240899
C   C17       1.0  0.33275  0.04422  0.49473  1.0000 -0.0473240899
C   C18       1.0  0.49473  0.33275  0.04422  1.0000 -0.0473240899
C   C19       1.0  0.49473  0.04422  0.33275  1.0000 -0.0473240899
C   C20       1.0  0.04422  0.33275  0.49473  1.0000 -0.0473240899
C   C21       1.0  0.33275  0.49473  0.04422  1.0000 -0.0473240899
C   C22       1.0  0.95578  0.50527  0.66725  1.0000 -0.0473240899
C   C23       1.0  0.66725  0.95578  0.50527  1.0000 -0.0473240899
C   C24       1.0  0.50527  0.66725  0.95578  1.0000 -0.0473240899
C   C25       1.0  0.45504  0.88202  0.64994  1.0000 -0.0859609342
C   C26       1.0  0.88202  0.64994  0.45504  1.0000 -0.082685185
C   C27       1.0  0.64994  0.45504  0.88202  1.0000 -0.0859609342
C   C28       1.0  0.11798  0.54496  0.35006  1.0000 -0.0859609342
C   C29       1.0  0.35006  0.11798  0.54496  1.0000 -0.082685185
C   C30       1.0  0.54496  0.35006  0.11798  1.0000 -0.0859609342
C   C31       1.0  0.54496  0.11798  0.35006  1.0000 -0.082685185
C   C32       1.0  0.11798  0.35006  0.54496  1.0000 -0.0859609342
C   C33       1.0  0.35006  0.54496  0.11798  1.0000 -0.0859609342
C   C34       1.0  0.88202  0.45504  0.64994  1.0000 -0.082685185
C   C35       1.0  0.64994  0.88202  0.45504  1.0000 -0.0859609342
C   C36       1.0  0.45504  0.64994  0.88202  1.0000 -0.0859609342
C   C37       1.0  0.45662  0.86955  0.70823  1.0000 -0.144102791
C   C38       1.0  0.86955  0.70823  0.45662  1.0000 -0.144102791
C   C39       1.0  0.70823  0.45662  0.86955  1.0000 -0.144102791
C   C40       1.0  0.13045  0.54338  0.29177  1.0000 -0.144102791
C   C41       1.0  0.29177  0.13045  0.54338  1.0000 -0.144102791
C   C42       1.0  0.54338  0.29177  0.13045  1.0000 -0.144102791
C   C43       1.0  0.54338  0.13045  0.29177  1.0000 -0.144102791
C   C44       1.0  0.13045  0.29177  0.54338  1.0000 -0.144102791
C   C45       1.0  0.29177  0.54338  0.13045  1.0000 -0.144102791
C   C46       1.0  0.86955  0.45662  0.70823  1.0000 -0.144102791
C   C47       1.0  0.70823  0.86955  0.45662  1.0000 -0.144102791
C   C48       1.0  0.45662  0.70823  0.86955  1.0000 -0.144102791
C   C49       1.0  0.50392  0.92803  0.78515  1.0000 0.0980248368
C   C50       1.0  0.92803  0.78515  0.50392  1.0000 0.0980248368
C   C51       1.0  0.78515  0.50392  0.92803  1.0000 0.0980248368
C   C52       1.0  0.07197  0.49608  0.21485  1.0000 0.0980248368
C   C53       1.0  0.21485  0.07197  0.49608  1.0000 0.0980248368
C   C54       1.0  0.49608  0.21485  0.07197  1.0000 0.0980248368
C   C55       1.0  0.49608  0.07197  0.21485  1.0000 0.0980248368
C   C56       1.0  0.07197  0.21485  0.49608  1.0000 0.0980248368
C   C57       1.0  0.21485  0.49608  0.07197  1.0000 0.0980248368
C   C58       1.0  0.92803  0.50392  0.78515  1.0000 0.0980248368
C   C59       1.0  0.78515  0.92803  0.50392  1.0000 0.0980248368
C   C60       1.0  0.50392  0.78515  0.92803  1.0000 0.0980248368
C   C61       1.0  0.55581  0.00442  0.80477  1.0000 -0.1722683177
C   C62       1.0  0.00442  0.80477  0.55581  1.0000 -0.1722683177
C   C63       1.0  0.80477  0.55581  0.00442  1.0000 -0.1722683177
C   C64       1.0  0.99558  0.44419  0.19523  1.0000 -0.1722683177
C   C65       1.0  0.19523  0.99558  0.44419  1.0000 -0.1722683177
C   C66       1.0  0.44419  0.19523  0.99558  1.0000 -0.1722683177
C   C67       1.0  0.44419  0.99558  0.19523  1.0000 -0.1722683177
C   C68       1.0  0.99558  0.19523  0.44419  1.0000 -0.1722683177
C   C69       1.0  0.19523  0.44419  0.99558  1.0000 -0.1722683177
C   C70       1.0  0.00442  0.55581  0.80477  1.0000 -0.1722683177
C   C71       1.0  0.80477  0.00442  0.55581  1.0000 -0.1722683177
C   C72       1.0  0.55581  0.80477  0.00442  1.0000 -0.1722683177
C   C73       1.0  0.55460  0.01632  0.74428  1.0000 -0.082685185
C   C74       1.0  0.01632  0.74428  0.55460  1.0000 -0.082685185
C   C75       1.0  0.74428  0.55460  0.01632  1.0000 -0.082685185
C   C76       1.0  0.98368  0.44540  0.25572  1.0000 -0.082685185
C   C77       1.0  0.25572  0.98368  0.44540  1.0000 -0.082685185
C   C78       1.0  0.44540  0.25572  0.98368  1.0000 -0.082685185
C   C79       1.0  0.44540  0.98368  0.25572  1.0000 -0.082685185
C   C80       1.0  0.98368  0.25572  0.44540  1.0000 -0.082685185
C   C81       1.0  0.25572  0.44540  0.98368  1.0000 -0.082685185
C   C82       1.0  0.01632  0.55460  0.74428  1.0000 -0.082685185
C   C83       1.0  0.74428  0.01632  0.55460  1.0000 -0.082685185
C   C84       1.0  0.55460  0.74428  0.01632  1.0000 -0.082685185
C   C85       1.0  0.50526  0.92162  0.85262  1.0000 -0.0130984575
C   C86       1.0  0.92162  0.85262  0.50526  1.0000 -0.0130984575
C   C87       1.0  0.85262  0.50526  0.92162  1.0000 -0.0130984575
C   C88       1.0  0.07838  0.49474  0.14738  1.0000 -0.0130984575
C   C89       1.0  0.14738  0.07838  0.49474  1.0000 -0.0130984575
C   C90       1.0  0.49474  0.14738  0.07838  1.0000 -0.0130984575
C   C91       1.0  0.49474  0.07838  0.14738  1.0000 -0.0130984575
C   C92       1.0  0.07838  0.14738  0.49474  1.0000 -0.0130984575
C   C93       1.0  0.14738  0.49474  0.07838  1.0000 -0.0130984575
C   C94       1.0  0.92162  0.50526  0.85262  1.0000 -0.0130984575
C   C95       1.0  0.85262  0.92162  0.50526  1.0000 -0.0130984575
C   C96       1.0  0.50526  0.85262  0.92162  1.0000 -0.0130984575
C   C97       1.0  0.50337  0.97508  0.90785  1.0000 -0.1986077009
C   C98       1.0  0.97508  0.90785  0.50337  1.0000 -0.1986077009
C   C99       1.0  0.90785  0.50337  0.97508  1.0000 -0.1986077009
C   C100      1.0  0.02492  0.49663  0.09215  1.0000 -0.1986077009
C   C101      1.0  0.09215  0.02492  0.49663  1.0000 -0.1986077009
C   C102      1.0  0.49663  0.09215  0.02492  1.0000 -0.1986077009
C   C103      1.0  0.49663  0.02492  0.09215  1.0000 -0.1986077009
C   C104      1.0  0.02492  0.09215  0.49663  1.0000 -0.1986077009
C   C105      1.0  0.09215  0.49663  0.02492  1.0000 -0.1986077009
C   C106      1.0  0.97508  0.50337  0.90785  1.0000 -0.1986077009
C   C107      1.0  0.90785  0.97508  0.50337  1.0000 -0.1986077009
C   C108      1.0  0.50337  0.90785  0.97508  1.0000 -0.1986077009
C   C109      1.0  0.49898  0.96991  0.96991  1.0000 0.0732415452
C   C110      1.0  0.96991  0.96991  0.49898  1.0000 0.0732415452
C   C111      1.0  0.96991  0.49898  0.96991  1.0000 0.0732415452
C   C112      1.0  0.03009  0.50102  0.03009  1.0000 0.0732415452
C   C113      1.0  0.03009  0.03009  0.50102  1.0000 0.0732415452
C   C114      1.0  0.50102  0.03009  0.03009  1.0000 0.0732415452
C   C115      1.0  0.50604  0.86033  0.86033  1.0000 0.1280497991
C   C116      1.0  0.86033  0.86033  0.50604  1.0000 0.1280497991
C   C117      1.0  0.86033  0.50604  0.86033  1.0000 0.1351857108
C   C118      1.0  0.13967  0.49396  0.13967  1.0000 0.1280497991
C   C119      1.0  0.13967  0.13967  0.49396  1.0000 0.1280497991
C   C120      1.0  0.49396  0.13967  0.13967  1.0000 0.1351857108
C   C121      1.0  0.58170  0.82400  0.82400  1.0000 -0.2286308361
C   C122      1.0  0.82400  0.82400  0.58170  1.0000 -0.2286308361
C   C123      1.0  0.82400  0.58170  0.82400  1.0000 -0.2286308361
C   C124      1.0  0.17600  0.41830  0.17600  1.0000 -0.2286308361
C   C125      1.0  0.17600  0.17600  0.41830  1.0000 -0.2286308361
C   C126      1.0  0.41830  0.17600  0.17600  1.0000 -0.2286308361
O   O1        1.0  0.54761  0.04037  0.62522  1.0000 -0.5240377911
O   O2        1.0  0.04037  0.62522  0.54761  1.0000 -0.5240377911
O   O3        1.0  0.62522  0.54761  0.04037  1.0000 -0.5240377911
O   O4        1.0  0.95963  0.45239  0.37478  1.0000 -0.5240377911
O   O5        1.0  0.37478  0.95963  0.45239  1.0000 -0.5240377911
O   O6        1.0  0.45239  0.37478  0.95963  1.0000 -0.5240377911
O   O7        1.0  0.45239  0.95963  0.37478  1.0000 -0.5240377911
O   O8        1.0  0.95963  0.37478  0.45239  1.0000 -0.5240377911
O   O9        1.0  0.37478  0.45239  0.95963  1.0000 -0.5240377911
O   O10       1.0  0.04037  0.54761  0.62522  1.0000 -0.5240377911
O   O11       1.0  0.62522  0.04037  0.54761  1.0000 -0.5240377911
O   O12       1.0  0.54761  0.62522  0.04037  1.0000 -0.5240377911
O   O13       1.0  0.45833  0.91464  0.53573  1.0000 -0.5055734046
O   O14       1.0  0.91464  0.53573  0.45833  1.0000 -0.5055734046
O   O15       1.0  0.53573  0.45833  0.91464  1.0000 -0.5055734046
O   O16       1.0  0.08536  0.54167  0.46427  1.0000 -0.5055734046
O   O17       1.0  0.46427  0.08536  0.54167  1.0000 -0.5055734046
O   O18       1.0  0.54167  0.46427  0.08536  1.0000 -0.5055734046
O   O19       1.0  0.54167  0.08536  0.46427  1.0000 -0.5055734046
O   O20       1.0  0.08536  0.46427  0.54167  1.0000 -0.5055734046
O   O21       1.0  0.46427  0.54167  0.08536  1.0000 -0.5055734046
O   O22       1.0  0.91464  0.45833  0.53573  1.0000 -0.5055734046
O   O23       1.0  0.53573  0.91464  0.45833  1.0000 -0.5055734046
O   O24       1.0  0.45833  0.53573  0.91464  1.0000 -0.5055734046
O   O25       1.0  0.50226  0.79952  0.79952  1.0000 -0.1986077009
O   O26       1.0  0.79952  0.79952  0.50226  1.0000 -0.1986077009
O   O27       1.0  0.79952  0.50226  0.79952  1.0000 -0.1986077009
O   O28       1.0  0.20048  0.49774  0.20048  1.0000 -0.1986077009
O   O29       1.0  0.20048  0.20048  0.49774  1.0000 -0.1986077009
O   O30       1.0  0.49774  0.20048  0.20048  1.0000 -0.1986077009
