# DDEC6 charges by PACMAN v1.1 (https://github.com/mtap-research/PACMAN-charge/)
data_2016[Dy][nan]3[ASR]2
_chemical_formula_sum              "Dy4 H36 C72 N12 O24"
_cell_length_a       13.6605
_cell_length_b       15.0103
_cell_length_c       18.5345
_cell_angle_alpha    69.051
_cell_angle_beta     71.145
_cell_angle_gamma    65.014

_symmetry_space_group_name_H-M    "P 1"
_symmetry_Int_Tables_number       1

loop_
  _symmetry_equiv_pos_as_xyz
  'x, y, z'

loop_
  _atom_site_type_symbol
  _atom_site_label
  _atom_site_symmetry_multiplicity
  _atom_site_fract_x
  _atom_site_fract_y
  _atom_site_fract_z
  _atom_site_occupancy
  _atom_site_charge
Dy  Dy1       1.0  0.84786  0.49709  0.13764  1.0000 2.1202668862
Dy  Dy2       1.0  0.15214  0.50291  0.86236  1.0000 2.1202668862
Dy  Dy3       1.0  0.62999  0.50384  0.36986  1.0000 2.1418767886
Dy  Dy4       1.0  0.37001  0.49616  0.63014  1.0000 2.1418767886
H   H1        1.0  0.55520  0.76230  0.03780  1.0000 0.1091532724
H   H2        1.0  0.44480  0.23770  0.96220  1.0000 0.1091532724
H   H3        1.0  0.41980  0.73860  0.26850  1.0000 0.1201315361
H   H4        1.0  0.58020  0.26140  0.73150  1.0000 0.1201315361
H   H5        1.0  0.29120  0.90030  0.23400  1.0000 0.1201315361
H   H6        1.0  0.70880  0.09970  0.76600  1.0000 0.1201315361
H   H7        1.0  0.06230  0.18660  0.16550  1.0000 0.102284299
H   H8        1.0  0.93770  0.81340  0.83450  1.0000 0.102284299
H   H9        1.0  0.24690  0.23710  0.95110  1.0000 0.1091532724
H   H10       1.0  0.75310  0.76290  0.04890  1.0000 0.1201315361
H   H11       1.0  0.35890  0.06550  0.97900  1.0000 0.1201315361
H   H12       1.0  0.64110  0.93450  0.02100  1.0000 0.1201315361
H   H13       1.0  0.83420  0.23090  0.15960  1.0000 0.1091532724
H   H14       1.0  0.16580  0.76910  0.84040  1.0000 0.1091532724
H   H15       1.0  0.63380  0.19320  0.37160  1.0000 0.1201315361
H   H16       1.0  0.36620  0.80680  0.62840  1.0000 0.1201315361
H   H17       1.0  0.65260  0.03480  0.36760  1.0000 0.1201315361
H   H18       1.0  0.34740  0.96520  0.63240  1.0000 0.1201315361
H   H19       1.0  0.67260  0.75790  0.35440  1.0000 0.1201315361
H   H20       1.0  0.32740  0.24210  0.64560  1.0000 0.1201315361
H   H21       1.0  0.86910  0.79540  0.13950  1.0000 0.1258475648
H   H22       1.0  0.13090  0.20460  0.86050  1.0000 0.1258475648
H   H23       1.0  0.86440  0.94670  0.14910  1.0000 0.1201315361
H   H24       1.0  0.13560  0.05330  0.85090  1.0000 0.1201315361
H   H25       1.0  0.93060  0.24900  0.46000  1.0000 0.1091532724
H   H26       1.0  0.06940  0.75100  0.54000  1.0000 0.1091532724
H   H27       1.0  0.10010  0.28070  0.23700  1.0000 0.1201315361
H   H28       1.0  0.89990  0.71930  0.76300  1.0000 0.1201315361
H   H29       1.0  0.22900  0.12120  0.27880  1.0000 0.1201315361
H   H30       1.0  0.77100  0.87880  0.72120  1.0000 0.1201315361
H   H31       1.0  0.45570  0.84460  0.34970  1.0000 0.1091532724
H   H32       1.0  0.54430  0.15540  0.65030  1.0000 0.1091532724
H   H33       1.0  0.24650  0.77370  0.54800  1.0000 0.1201315361
H   H34       1.0  0.75350  0.22630  0.45200  1.0000 0.1201315361
H   H35       1.0  0.13170  0.94280  0.52080  1.0000 0.1258475648
H   H36       1.0  0.86830  0.05720  0.47920  1.0000 0.1258475648
C   C1        1.0  0.07570  0.34230  0.04420  1.0000 0.6697176414
C   C2        1.0  0.92430  0.65770  0.95580  1.0000 0.6697176414
C   C3        1.0  0.59410  0.63270  0.17610  1.0000 0.6511690004
C   C4        1.0  0.40590  0.36730  0.82390  1.0000 0.6511690004
C   C5        1.0  0.35150  0.92450  0.11520  1.0000 0.1766391512
C   C6        1.0  0.64850  0.07550  0.88480  1.0000 0.1766391512
C   C7        1.0  0.50310  0.79080  0.07770  1.0000 0.0662045719
C   C8        1.0  0.49690  0.20920  0.92230  1.0000 0.0662045719
C   C9        1.0  0.50480  0.73450  0.15570  1.0000 -0.0798589875
C   C10       1.0  0.49520  0.26550  0.84430  1.0000 -0.0798589875
C   C11       1.0  0.42250  0.77540  0.21600  1.0000 -0.0695502145
C   C12       1.0  0.57750  0.22460  0.78400  1.0000 -0.0695502145
C   C13       1.0  0.34590  0.87120  0.19540  1.0000 -0.1594648613
C   C14       1.0  0.65410  0.12880  0.80460  1.0000 -0.1594648613
C   C15       1.0  0.27560  0.03040  0.09100  1.0000 0.1766391512
C   C16       1.0  0.72440  0.96960  0.90900  1.0000 0.1766391512
C   C17       1.0  0.12400  0.16280  0.12800  1.0000 0.052094396
C   C18       1.0  0.87600  0.83720  0.87200  1.0000 0.052094396
C   C19       1.0  0.14450  0.22990  0.05780  1.0000 -0.0798589875
C   C20       1.0  0.85550  0.77010  0.94220  1.0000 -0.0798589875
C   C21       1.0  0.23250  0.19360  0.00040  1.0000 -0.0619518535
C   C22       1.0  0.76750  0.80640  0.99960  1.0000 -0.0619518535
C   C23       1.0  0.29960  0.09160  0.01690  1.0000 -0.1594648613
C   C24       1.0  0.70040  0.90840  0.98310  1.0000 -0.1594648613
C   C25       1.0  0.71400  0.33400  0.26750  1.0000 0.6511690004
C   C26       1.0  0.28600  0.66600  0.73250  1.0000 0.6511690004
C   C27       1.0  0.75500  0.03970  0.26010  1.0000 0.1595065462
C   C28       1.0  0.24500  0.96030  0.73990  1.0000 0.1595065462
C   C29       1.0  0.79760  0.19170  0.20120  1.0000 0.0447220707
C   C30       1.0  0.20240  0.80830  0.79880  1.0000 0.0447220707
C   C31       1.0  0.72960  0.23010  0.26470  1.0000 -0.0798589875
C   C32       1.0  0.27040  0.76990  0.73530  1.0000 -0.0798589875
C   C33       1.0  0.67720  0.16910  0.32760  1.0000 -0.0619518535
C   C34       1.0  0.32280  0.83090  0.67240  1.0000 -0.0619518535
C   C35       1.0  0.68850  0.07440  0.32590  1.0000 -0.1594648613
C   C36       1.0  0.31150  0.92560  0.67410  1.0000 -0.1594648613
C   C37       1.0  0.76280  0.94170  0.25620  1.0000 0.1499946209
C   C38       1.0  0.23720  0.05830  0.74380  1.0000 0.1499946209
C   C39       1.0  0.71020  0.79620  0.31290  1.0000 0.052094396
C   C40       1.0  0.28980  0.20380  0.68710  1.0000 0.052094396
C   C41       1.0  0.77050  0.76020  0.24640  1.0000 -0.0798589875
C   C42       1.0  0.22950  0.23980  0.75360  1.0000 -0.0798589875
C   C43       1.0  0.82840  0.81830  0.18440  1.0000 -0.0619518535
C   C44       1.0  0.17160  0.18170  0.81560  1.0000 -0.0619518535
C   C45       1.0  0.82530  0.90880  0.18960  1.0000 -0.1594648613
C   C46       1.0  0.17470  0.09120  0.81040  1.0000 -0.1594648613
C   C47       1.0  0.77580  0.66060  0.24120  1.0000 0.6511690004
C   C48       1.0  0.22420  0.33940  0.75880  1.0000 0.6511690004
C   C49       1.0  0.90390  0.37510  0.31820  1.0000 0.6511690004
C   C50       1.0  0.09610  0.62490  0.68180  1.0000 0.6511690004
C   C51       1.0  0.15210  0.09340  0.39280  1.0000 0.1698111387
C   C52       1.0  0.84790  0.90660  0.60720  1.0000 0.1698111387
C   C53       1.0  0.99060  0.22200  0.42280  1.0000 0.0605603473
C   C54       1.0  0.00940  0.77800  0.57720  1.0000 0.0605603473
C   C55       1.0  0.99880  0.27920  0.34440  1.0000 -0.0798589875
C   C56       1.0  0.00120  0.72080  0.65560  1.0000 -0.0798589875
C   C57       1.0  0.09020  0.24300  0.28930  1.0000 -0.0619518535
C   C58       1.0  0.90980  0.75700  0.71070  1.0000 -0.0619518535
C   C59       1.0  0.16680  0.14820  0.31470  1.0000 -0.1594648613
C   C60       1.0  0.83320  0.85180  0.68530  1.0000 -0.1594648613
C   C61       1.0  0.22820  0.98820  0.41850  1.0000 0.1766391512
C   C62       1.0  0.77180  0.01180  0.58150  1.0000 0.1766391512
C   C63       1.0  0.38810  0.86360  0.38400  1.0000 0.0605603473
C   C64       1.0  0.61190  0.13640  0.61600  1.0000 0.0605603473
C   C65       1.0  0.36180  0.78950  0.44750  1.0000 -0.0798589875
C   C66       1.0  0.63820  0.21050  0.55250  1.0000 -0.0695502145
C   C67       1.0  0.26520  0.82000  0.50180  1.0000 -0.0695502145
C   C68       1.0  0.73480  0.18000  0.49820  1.0000 -0.0695502145
C   C69       1.0  0.19770  0.92080  0.48590  1.0000 -0.154485075
C   C70       1.0  0.80230  0.07920  0.51410  1.0000 -0.154485075
C   C71       1.0  0.43530  0.67830  0.45600  1.0000 0.6550047712
C   C72       1.0  0.56470  0.32170  0.54400  1.0000 0.6511690004
N   N1        1.0  0.42940  0.88450  0.05760  1.0000 -0.2939629016
N   N2        1.0  0.57060  0.11550  0.94240  1.0000 -0.2939629016
N   N3        1.0  0.18730  0.06420  0.14630  1.0000 -0.2726271931
N   N4        1.0  0.81270  0.93580  0.85370  1.0000 -0.2766205354
N   N5        1.0  0.81210  0.09550  0.19840  1.0000 -0.2995409502
N   N6        1.0  0.18790  0.90450  0.80160  1.0000 -0.2995409502
N   N7        1.0  0.70470  0.88720  0.31880  1.0000 -0.2995409502
N   N8        1.0  0.29530  0.11280  0.68120  1.0000 -0.2995409502
N   N9        1.0  0.32360  0.96080  0.36820  1.0000 -0.2726271931
N   N10       1.0  0.67640  0.03920  0.63180  1.0000 -0.2726271931
N   N11       1.0  0.06460  0.12960  0.44780  1.0000 -0.2939629016
N   N12       1.0  0.93540  0.87040  0.55220  1.0000 -0.2939629016
O   O1        1.0  0.40660  0.61360  0.51440  1.0000 -0.7161604149
O   O2        1.0  0.59340  0.38640  0.48560  1.0000 -0.7161604149
O   O3        1.0  0.51730  0.65960  0.40180  1.0000 -0.6678916259
O   O4        1.0  0.48270  0.34040  0.59820  1.0000 -0.6678916259
O   O5        1.0  0.64740  0.36580  0.32470  1.0000 -0.6402994378
O   O6        1.0  0.35260  0.63420  0.67530  1.0000 -0.6402994378
O   O7        1.0  0.01140  0.37240  0.10310  1.0000 -0.6773625297
O   O8        1.0  0.98860  0.62760  0.89690  1.0000 -0.6773625297
O   O9        1.0  0.92280  0.42950  0.24920  1.0000 -0.6678916259
O   O10       1.0  0.07720  0.57050  0.75080  1.0000 -0.6678916259
O   O11       1.0  0.77100  0.37920  0.21260  1.0000 -0.7126933022
O   O12       1.0  0.22900  0.62080  0.78740  1.0000 -0.7126933022
O   O13       1.0  0.09110  0.39720  0.97650  1.0000 -0.6678916259
O   O14       1.0  0.90890  0.60280  0.02350  1.0000 -0.6678916259
O   O15       1.0  0.82280  0.63790  0.17700  1.0000 -0.6541833563
O   O16       1.0  0.17720  0.36210  0.82300  1.0000 -0.6541833563
O   O17       1.0  0.67010  0.60560  0.12050  1.0000 -0.6678916259
O   O18       1.0  0.32990  0.39440  0.87950  1.0000 -0.6678916259
O   O19       1.0  0.58750  0.58280  0.24600  1.0000 -0.6943736358
O   O20       1.0  0.41250  0.41720  0.75400  1.0000 -0.6943736358
O   O21       1.0  0.73320  0.60880  0.30120  1.0000 -0.6678916259
O   O22       1.0  0.26680  0.39120  0.69880  1.0000 -0.6678916259
O   O23       1.0  0.81430  0.39130  0.36610  1.0000 -0.6601340456
O   O24       1.0  0.18570  0.60870  0.63390  1.0000 -0.6601340456
