# DDEC6 charges by PACMAN v1.1 (https://github.com/mtap-research/PACMAN-charge/)
data_2016[Cu][nbo]3[ASR]40
_chemical_formula_sum              "Cu6 H90 C132 O30"
_cell_length_a       21.6003
_cell_length_b       21.6003
_cell_length_c       21.6003
_cell_angle_alpha    108.912
_cell_angle_beta     108.912
_cell_angle_gamma    108.912

_symmetry_space_group_name_H-M    "P 1"
_symmetry_Int_Tables_number       1

loop_
  _symmetry_equiv_pos_as_xyz
  'x, y, z'

loop_
  _atom_site_type_symbol
  _atom_site_label
  _atom_site_symmetry_multiplicity
  _atom_site_fract_x
  _atom_site_fract_y
  _atom_site_fract_z
  _atom_site_occupancy
  _atom_site_charge
Cu  Cu1       1.0  0.42900  0.95288  0.95288  1.0000 0.8660932125
Cu  Cu2       1.0  0.95288  0.95288  0.42900  1.0000 0.8660932125
Cu  Cu3       1.0  0.95288  0.42900  0.95288  1.0000 0.8660932125
Cu  Cu4       1.0  0.04712  0.57100  0.04712  1.0000 0.8660932125
Cu  Cu5       1.0  0.04712  0.04712  0.57100  1.0000 0.8660932125
Cu  Cu6       1.0  0.57100  0.04712  0.04712  1.0000 0.8660932125
H   H1        1.0  0.65020  0.06480  0.88940  1.0000 0.1285233919
H   H2        1.0  0.06480  0.88940  0.65020  1.0000 0.1285233919
H   H3        1.0  0.88940  0.65020  0.06480  1.0000 0.1285233919
H   H4        1.0  0.93520  0.34980  0.11060  1.0000 0.1285233919
H   H5        1.0  0.11060  0.93520  0.34980  1.0000 0.1285233919
H   H6        1.0  0.34980  0.11060  0.93520  1.0000 0.1285233919
H   H7        1.0  0.34980  0.93520  0.11060  1.0000 0.1285233919
H   H8        1.0  0.93520  0.11060  0.34980  1.0000 0.1285233919
H   H9        1.0  0.11060  0.34980  0.93520  1.0000 0.1285233919
H   H10       1.0  0.06480  0.65020  0.88940  1.0000 0.1285233919
H   H11       1.0  0.88940  0.06480  0.65020  1.0000 0.1285233919
H   H12       1.0  0.65020  0.88940  0.06480  1.0000 0.1285233919
H   H13       1.0  0.67080  0.06250  0.79100  1.0000 0.1285233919
H   H14       1.0  0.06250  0.79100  0.67080  1.0000 0.1285233919
H   H15       1.0  0.79100  0.67080  0.06250  1.0000 0.1285233919
H   H16       1.0  0.93750  0.32920  0.20900  1.0000 0.1285233919
H   H17       1.0  0.20900  0.93750  0.32920  1.0000 0.1285233919
H   H18       1.0  0.32920  0.20900  0.93750  1.0000 0.1285233919
H   H19       1.0  0.32920  0.93750  0.20900  1.0000 0.1285233919
H   H20       1.0  0.93750  0.20900  0.32920  1.0000 0.1285233919
H   H21       1.0  0.20900  0.32920  0.93750  1.0000 0.1285233919
H   H22       1.0  0.06250  0.67080  0.79100  1.0000 0.1285233919
H   H23       1.0  0.79100  0.06250  0.67080  1.0000 0.1285233919
H   H24       1.0  0.67080  0.79100  0.06250  1.0000 0.1285233919
H   H25       1.0  0.45480  0.91800  0.64930  1.0000 0.1171879635
H   H26       1.0  0.91800  0.64930  0.45480  1.0000 0.1171879635
H   H27       1.0  0.64930  0.45480  0.91800  1.0000 0.1171879635
H   H28       1.0  0.08200  0.54520  0.35070  1.0000 0.1171879635
H   H29       1.0  0.35070  0.08200  0.54520  1.0000 0.1171879635
H   H30       1.0  0.54520  0.35070  0.08200  1.0000 0.1171879635
H   H31       1.0  0.54520  0.08200  0.35070  1.0000 0.1171879635
H   H32       1.0  0.08200  0.35070  0.54520  1.0000 0.1171879635
H   H33       1.0  0.35070  0.54520  0.08200  1.0000 0.1171879635
H   H34       1.0  0.91800  0.45480  0.64930  1.0000 0.1171879635
H   H35       1.0  0.64930  0.91800  0.45480  1.0000 0.1171879635
H   H36       1.0  0.45480  0.64930  0.91800  1.0000 0.1171879635
H   H37       1.0  0.43460  0.92060  0.74820  1.0000 0.1285233919
H   H38       1.0  0.92060  0.74820  0.43460  1.0000 0.1285233919
H   H39       1.0  0.74820  0.43460  0.92060  1.0000 0.1285233919
H   H40       1.0  0.07940  0.56540  0.25180  1.0000 0.1285233919
H   H41       1.0  0.25180  0.07940  0.56540  1.0000 0.1285233919
H   H42       1.0  0.56540  0.25180  0.07940  1.0000 0.1285233919
H   H43       1.0  0.56540  0.07940  0.25180  1.0000 0.1285233919
H   H44       1.0  0.07940  0.25180  0.56540  1.0000 0.1285233919
H   H45       1.0  0.25180  0.56540  0.07940  1.0000 0.1285233919
H   H46       1.0  0.92060  0.43460  0.74820  1.0000 0.1285233919
H   H47       1.0  0.74820  0.92060  0.43460  1.0000 0.1285233919
H   H48       1.0  0.43460  0.74820  0.92060  1.0000 0.1285233919
H   H49       1.0  0.48270  0.99780  0.59620  1.0000 0.1106929035
H   H50       1.0  0.99780  0.59620  0.48270  1.0000 0.1106929035
H   H51       1.0  0.59620  0.48270  0.99780  1.0000 0.1106929035
H   H52       1.0  0.00220  0.51730  0.40380  1.0000 0.1106929035
H   H53       1.0  0.40380  0.00220  0.51730  1.0000 0.1106929035
H   H54       1.0  0.51730  0.40380  0.00220  1.0000 0.1106929035
H   H55       1.0  0.51730  0.00220  0.40380  1.0000 0.1106929035
H   H56       1.0  0.00220  0.40380  0.51730  1.0000 0.1106929035
H   H57       1.0  0.40380  0.51730  0.00220  1.0000 0.1106929035
H   H58       1.0  0.99780  0.48270  0.59620  1.0000 0.1106929035
H   H59       1.0  0.59620  0.99780  0.48270  1.0000 0.1106929035
H   H60       1.0  0.48270  0.59620  0.99780  1.0000 0.1106929035
H   H61       1.0  0.62890  0.88510  0.67370  1.0000 0.0785333456
H   H62       1.0  0.88510  0.67370  0.62890  1.0000 0.0785333456
H   H63       1.0  0.67370  0.62890  0.88510  1.0000 0.0785333456
H   H64       1.0  0.11490  0.37110  0.32630  1.0000 0.0785333456
H   H65       1.0  0.32630  0.11490  0.37110  1.0000 0.0785333456
H   H66       1.0  0.37110  0.32630  0.11490  1.0000 0.0785333456
H   H67       1.0  0.37110  0.11490  0.32630  1.0000 0.0785333456
H   H68       1.0  0.11490  0.32630  0.37110  1.0000 0.0785333456
H   H69       1.0  0.32630  0.37110  0.11490  1.0000 0.0785333456
H   H70       1.0  0.88510  0.62890  0.67370  1.0000 0.0785333456
H   H71       1.0  0.67370  0.88510  0.62890  1.0000 0.0785333456
H   H72       1.0  0.62890  0.67370  0.88510  1.0000 0.0785333456
H   H73       1.0  0.73155  0.87250  0.73155  1.0000 0.1106929035
H   H74       1.0  0.87250  0.73155  0.73155  1.0000 0.1106929035
H   H75       1.0  0.73155  0.73155  0.87250  1.0000 0.1106929035
H   H76       1.0  0.12750  0.26845  0.26845  1.0000 0.1106929035
H   H77       1.0  0.26845  0.12750  0.26845  1.0000 0.1106929035
H   H78       1.0  0.26845  0.26845  0.12750  1.0000 0.1106929035
H   H79       1.0  0.78420  0.94790  0.73970  1.0000 0.1106929035
H   H80       1.0  0.94790  0.73970  0.78420  1.0000 0.1106929035
H   H81       1.0  0.73970  0.78420  0.94790  1.0000 0.1106929035
H   H82       1.0  0.05210  0.21580  0.26030  1.0000 0.1106929035
H   H83       1.0  0.26030  0.05210  0.21580  1.0000 0.1106929035
H   H84       1.0  0.21580  0.26030  0.05210  1.0000 0.1106929035
H   H85       1.0  0.21580  0.05210  0.26030  1.0000 0.1106929035
H   H86       1.0  0.05210  0.26030  0.21580  1.0000 0.1106929035
H   H87       1.0  0.26030  0.21580  0.05210  1.0000 0.1106929035
H   H88       1.0  0.94790  0.78420  0.73970  1.0000 0.1106929035
H   H89       1.0  0.73970  0.94790  0.78420  1.0000 0.1106929035
H   H90       1.0  0.78420  0.73970  0.94790  1.0000 0.1106929035
C   C1        1.0  0.52630  0.99573  0.89361  1.0000 0.5830554308
C   C2        1.0  0.99573  0.89361  0.52630  1.0000 0.5830554308
C   C3        1.0  0.89361  0.52630  0.99573  1.0000 0.5830554308
C   C4        1.0  0.00427  0.47370  0.10639  1.0000 0.5830554308
C   C5        1.0  0.10639  0.00427  0.47370  1.0000 0.5830554308
C   C6        1.0  0.47370  0.10639  0.00427  1.0000 0.5830554308
C   C7        1.0  0.47370  0.00427  0.10639  1.0000 0.5830554308
C   C8        1.0  0.00427  0.10639  0.47370  1.0000 0.5830554308
C   C9        1.0  0.10639  0.47370  0.00427  1.0000 0.5830554308
C   C10       1.0  0.99573  0.52630  0.89361  1.0000 0.5830554308
C   C11       1.0  0.89361  0.99573  0.52630  1.0000 0.5830554308
C   C12       1.0  0.52630  0.89361  0.99573  1.0000 0.5830554308
C   C13       1.0  0.53988  0.99305  0.82919  1.0000 -0.0336360133
C   C14       1.0  0.99305  0.82919  0.53988  1.0000 -0.0336360133
C   C15       1.0  0.82919  0.53988  0.99305  1.0000 -0.0336360133
C   C16       1.0  0.00695  0.46012  0.17081  1.0000 -0.0336360133
C   C17       1.0  0.17081  0.00695  0.46012  1.0000 -0.0336360133
C   C18       1.0  0.46012  0.17081  0.00695  1.0000 -0.0336360133
C   C19       1.0  0.46012  0.00695  0.17081  1.0000 -0.0336360133
C   C20       1.0  0.00695  0.17081  0.46012  1.0000 -0.0336360133
C   C21       1.0  0.17081  0.46012  0.00695  1.0000 -0.0336360133
C   C22       1.0  0.99305  0.53988  0.82919  1.0000 -0.0336360133
C   C23       1.0  0.82919  0.99305  0.53988  1.0000 -0.0336360133
C   C24       1.0  0.53988  0.82919  0.99305  1.0000 -0.0336360133
C   C25       1.0  0.61058  0.03520  0.84102  1.0000 -0.0883728237
C   C26       1.0  0.03520  0.84102  0.61058  1.0000 -0.0883728237
C   C27       1.0  0.84102  0.61058  0.03520  1.0000 -0.0883728237
C   C28       1.0  0.96480  0.38942  0.15898  1.0000 -0.0883728237
C   C29       1.0  0.15898  0.96480  0.38942  1.0000 -0.0883728237
C   C30       1.0  0.38942  0.15898  0.96480  1.0000 -0.0883728237
C   C31       1.0  0.38942  0.96480  0.15898  1.0000 -0.0883728237
C   C32       1.0  0.96480  0.15898  0.38942  1.0000 -0.0883728237
C   C33       1.0  0.15898  0.38942  0.96480  1.0000 -0.0883728237
C   C34       1.0  0.03520  0.61058  0.84102  1.0000 -0.0883728237
C   C35       1.0  0.84102  0.03520  0.61058  1.0000 -0.0883728237
C   C36       1.0  0.61058  0.84102  0.03520  1.0000 -0.0883728237
C   C37       1.0  0.62292  0.03391  0.78200  1.0000 -0.1473939229
C   C38       1.0  0.03391  0.78200  0.62292  1.0000 -0.1473939229
C   C39       1.0  0.78200  0.62292  0.03391  1.0000 -0.1473939229
C   C40       1.0  0.96609  0.37708  0.21800  1.0000 -0.1473939229
C   C41       1.0  0.21800  0.96609  0.37708  1.0000 -0.1473939229
C   C42       1.0  0.37708  0.21800  0.96609  1.0000 -0.1473939229
C   C43       1.0  0.37708  0.96609  0.21800  1.0000 -0.1473939229
C   C44       1.0  0.96609  0.21800  0.37708  1.0000 -0.1473939229
C   C45       1.0  0.21800  0.37708  0.96609  1.0000 -0.1473939229
C   C46       1.0  0.03391  0.62292  0.78200  1.0000 -0.1473939229
C   C47       1.0  0.78200  0.03391  0.62292  1.0000 -0.1473939229
C   C48       1.0  0.62292  0.78200  0.03391  1.0000 -0.1473939229
C   C49       1.0  0.56449  0.99021  0.70875  1.0000 0.0882888676
C   C50       1.0  0.99021  0.70875  0.56449  1.0000 0.0882888676
C   C51       1.0  0.70875  0.56449  0.99021  1.0000 0.0882888676
C   C52       1.0  0.00979  0.43551  0.29125  1.0000 0.0882888676
C   C53       1.0  0.29125  0.00979  0.43551  1.0000 0.0882888676
C   C54       1.0  0.43551  0.29125  0.00979  1.0000 0.0882888676
C   C55       1.0  0.43551  0.00979  0.29125  1.0000 0.0882888676
C   C56       1.0  0.00979  0.29125  0.43551  1.0000 0.0882888676
C   C57       1.0  0.29125  0.43551  0.00979  1.0000 0.0882888676
C   C58       1.0  0.99021  0.56449  0.70875  1.0000 0.0882888676
C   C59       1.0  0.70875  0.99021  0.56449  1.0000 0.0882888676
C   C60       1.0  0.56449  0.70875  0.99021  1.0000 0.0882888676
C   C61       1.0  0.49449  0.94797  0.69754  1.0000 -0.1576132088
C   C62       1.0  0.94797  0.69754  0.49449  1.0000 -0.1576132088
C   C63       1.0  0.69754  0.49449  0.94797  1.0000 -0.1576132088
C   C64       1.0  0.05203  0.50551  0.30246  1.0000 -0.1576132088
C   C65       1.0  0.30246  0.05203  0.50551  1.0000 -0.1576132088
C   C66       1.0  0.50551  0.30246  0.05203  1.0000 -0.1576132088
C   C67       1.0  0.50551  0.05203  0.30246  1.0000 -0.1576132088
C   C68       1.0  0.05203  0.30246  0.50551  1.0000 -0.1576132088
C   C69       1.0  0.30246  0.50551  0.05203  1.0000 -0.1576132088
C   C70       1.0  0.94797  0.49449  0.69754  1.0000 -0.1576132088
C   C71       1.0  0.69754  0.94797  0.49449  1.0000 -0.1576132088
C   C72       1.0  0.49449  0.69754  0.94797  1.0000 -0.1576132088
C   C73       1.0  0.48232  0.94945  0.75707  1.0000 -0.0883728237
C   C74       1.0  0.94945  0.75707  0.48232  1.0000 -0.0883728237
C   C75       1.0  0.75707  0.48232  0.94945  1.0000 -0.0883728237
C   C76       1.0  0.05055  0.51768  0.24293  1.0000 -0.0883728237
C   C77       1.0  0.24293  0.05055  0.51768  1.0000 -0.0883728237
C   C78       1.0  0.51768  0.24293  0.05055  1.0000 -0.0883728237
C   C79       1.0  0.51768  0.05055  0.24293  1.0000 -0.0883728237
C   C80       1.0  0.05055  0.24293  0.51768  1.0000 -0.0883728237
C   C81       1.0  0.24293  0.51768  0.05055  1.0000 -0.0883728237
C   C82       1.0  0.94945  0.48232  0.75707  1.0000 -0.0883728237
C   C83       1.0  0.75707  0.94945  0.48232  1.0000 -0.0883728237
C   C84       1.0  0.48232  0.75707  0.94945  1.0000 -0.0883728237
C   C85       1.0  0.57551  0.99218  0.64503  1.0000 -0.0171448737
C   C86       1.0  0.99218  0.64503  0.57551  1.0000 -0.0171448737
C   C87       1.0  0.64503  0.57551  0.99218  1.0000 -0.0171448737
C   C88       1.0  0.00782  0.42449  0.35497  1.0000 -0.0171448737
C   C89       1.0  0.35497  0.00782  0.42449  1.0000 -0.0171448737
C   C90       1.0  0.42449  0.35497  0.00782  1.0000 -0.0171448737
C   C91       1.0  0.42449  0.00782  0.35497  1.0000 -0.0171448737
C   C92       1.0  0.00782  0.35497  0.42449  1.0000 -0.0171448737
C   C93       1.0  0.35497  0.42449  0.00782  1.0000 -0.0171448737
C   C94       1.0  0.99218  0.57551  0.64503  1.0000 -0.0171448737
C   C95       1.0  0.64503  0.99218  0.57551  1.0000 -0.0171448737
C   C96       1.0  0.57551  0.64503  0.99218  1.0000 -0.0171448737
C   C97       1.0  0.52323  0.99601  0.59076  1.0000 -0.1963746979
C   C98       1.0  0.99601  0.59076  0.52323  1.0000 -0.1963746979
C   C99       1.0  0.59076  0.52323  0.99601  1.0000 -0.1963746979
C   C100      1.0  0.00399  0.47677  0.40924  1.0000 -0.1963746979
C   C101      1.0  0.40924  0.00399  0.47677  1.0000 -0.1963746979
C   C102      1.0  0.47677  0.40924  0.00399  1.0000 -0.1963746979
C   C103      1.0  0.47677  0.00399  0.40924  1.0000 -0.1963746979
C   C104      1.0  0.00399  0.40924  0.47677  1.0000 -0.1963746979
C   C105      1.0  0.40924  0.47677  0.00399  1.0000 -0.1963746979
C   C106      1.0  0.99601  0.52323  0.59076  1.0000 -0.1963746979
C   C107      1.0  0.59076  0.99601  0.52323  1.0000 -0.1963746979
C   C108      1.0  0.52323  0.59076  0.99601  1.0000 -0.1963746979
C   C109      1.0  0.52834  0.99741  0.52833  1.0000 0.071516426
C   C110      1.0  0.99741  0.52833  0.52833  1.0000 0.071516426
C   C111      1.0  0.52833  0.52833  0.99741  1.0000 0.071516426
C   C112      1.0  0.00259  0.47167  0.47167  1.0000 0.071516426
C   C113      1.0  0.47167  0.00259  0.47167  1.0000 0.071516426
C   C114      1.0  0.47167  0.47167  0.00259  1.0000 0.071516426
C   C115      1.0  0.63590  0.98946  0.63590  1.0000 0.1569606902
C   C116      1.0  0.98946  0.63590  0.63590  1.0000 0.1569606902
C   C117      1.0  0.63590  0.63590  0.98946  1.0000 0.1569606902
C   C118      1.0  0.01054  0.36410  0.36410  1.0000 0.1569606902
C   C119      1.0  0.36410  0.01054  0.36410  1.0000 0.1569606902
C   C120      1.0  0.36410  0.36410  0.01054  1.0000 0.1569606902
C   C121      1.0  0.67589  0.91212  0.67589  1.0000 0.0012199286
C   C122      1.0  0.91212  0.67589  0.67589  1.0000 0.0012199286
C   C123      1.0  0.67589  0.67589  0.91212  1.0000 0.0012199286
C   C124      1.0  0.08788  0.32411  0.32411  1.0000 0.0012199286
C   C125      1.0  0.32411  0.08788  0.32411  1.0000 0.0012199286
C   C126      1.0  0.32411  0.32411  0.08788  1.0000 0.0012199286
C   C127      1.0  0.73826  0.92087  0.73826  1.0000 -0.3675676941
C   C128      1.0  0.92087  0.73826  0.73826  1.0000 -0.3675676941
C   C129      1.0  0.73826  0.73826  0.92087  1.0000 -0.3675676941
C   C130      1.0  0.07913  0.26174  0.26174  1.0000 -0.3675676941
C   C131      1.0  0.26174  0.07913  0.26174  1.0000 -0.3675676941
C   C132      1.0  0.26173  0.26173  0.07913  1.0000 -0.3675676941
O   O1        1.0  0.45988  0.95652  0.87771  1.0000 -0.5195864289
O   O2        1.0  0.95652  0.87771  0.45988  1.0000 -0.5195864289
O   O3        1.0  0.87771  0.45988  0.95652  1.0000 -0.5195864289
O   O4        1.0  0.04348  0.54012  0.12229  1.0000 -0.5195864289
O   O5        1.0  0.12229  0.04348  0.54012  1.0000 -0.5195864289
O   O6        1.0  0.54012  0.12229  0.04348  1.0000 -0.5195864289
O   O7        1.0  0.54012  0.04348  0.12229  1.0000 -0.5195864289
O   O8        1.0  0.04348  0.12229  0.54012  1.0000 -0.5195864289
O   O9        1.0  0.12229  0.54012  0.04348  1.0000 -0.5195864289
O   O10       1.0  0.95652  0.45988  0.87771  1.0000 -0.5195864289
O   O11       1.0  0.87771  0.95652  0.45988  1.0000 -0.5195864289
O   O12       1.0  0.45988  0.87771  0.95652  1.0000 -0.5195864289
O   O13       1.0  0.58128  0.03657  0.95814  1.0000 -0.5148013889
O   O14       1.0  0.03657  0.95814  0.58128  1.0000 -0.5195864289
O   O15       1.0  0.95814  0.58128  0.03657  1.0000 -0.5195864289
O   O16       1.0  0.96343  0.41872  0.04186  1.0000 -0.5148013889
O   O17       1.0  0.04186  0.96343  0.41872  1.0000 -0.5195864289
O   O18       1.0  0.41872  0.04186  0.96343  1.0000 -0.5195864289
O   O19       1.0  0.41872  0.96343  0.04186  1.0000 -0.5195864289
O   O20       1.0  0.96343  0.04186  0.41872  1.0000 -0.5195864289
O   O21       1.0  0.04186  0.41872  0.96343  1.0000 -0.5148013889
O   O22       1.0  0.03657  0.58128  0.95814  1.0000 -0.5195864289
O   O23       1.0  0.95814  0.03657  0.58128  1.0000 -0.5148013889
O   O24       1.0  0.58128  0.95814  0.03657  1.0000 -0.5195864289
O   O25       1.0  0.68992  0.98537  0.68992  1.0000 -0.2537478148
O   O26       1.0  0.98537  0.68992  0.68992  1.0000 -0.2537478148
O   O27       1.0  0.68992  0.68992  0.98537  1.0000 -0.2537478148
O   O28       1.0  0.01463  0.31008  0.31008  1.0000 -0.2537478148
O   O29       1.0  0.31008  0.01463  0.31008  1.0000 -0.2551783084
O   O30       1.0  0.31008  0.31008  0.01463  1.0000 -0.2537478148
