# DDEC6 charges by PACMAN v1.1 (https://github.com/mtap-research/PACMAN-charge/)
data_2016[Cd][nan]3[ASR]33
_chemical_formula_sum              "Cd5 H48 C68 N8 O28"
_cell_length_a       14.4645
_cell_length_b       14.4645
_cell_length_c       15.1209
_cell_angle_alpha    87.5599
_cell_angle_beta     92.4401
_cell_angle_gamma    124.855

_symmetry_space_group_name_H-M    "P 1"
_symmetry_Int_Tables_number       1

loop_
  _symmetry_equiv_pos_as_xyz
  'x, y, z'

loop_
  _atom_site_type_symbol
  _atom_site_label
  _atom_site_symmetry_multiplicity
  _atom_site_fract_x
  _atom_site_fract_y
  _atom_site_fract_z
  _atom_site_occupancy
  _atom_site_charge
Cd  Cd1       1.0  0.50658  0.50658  0.50000  1.0000 1.007624846
Cd  Cd2       1.0  0.19189  0.96733  0.93600  1.0000 0.843398314
Cd  Cd3       1.0  0.96733  0.19189  0.06400  1.0000 0.843398314
Cd  Cd4       1.0  0.18891  0.71163  0.00230  1.0000 1.007624846
Cd  Cd5       1.0  0.71163  0.18891  0.99770  1.0000 1.007624846
H   H1        1.0  0.97860  0.01080  0.87460  1.0000 0.1325385593
H   H2        1.0  0.01080  0.97860  0.12540  1.0000 0.1391244579
H   H3        1.0  0.15110  0.17690  0.88700  1.0000 0.1325385593
H   H4        1.0  0.17690  0.15110  0.11300  1.0000 0.1325385593
H   H5        1.0  0.75900  0.57880  0.99910  1.0000 0.1391244579
H   H6        1.0  0.57880  0.75900  0.00090  1.0000 0.1391244579
H   H7        1.0  0.14820  0.30820  0.63900  1.0000 0.1509866802
H   H8        1.0  0.30820  0.14820  0.36100  1.0000 0.1509866802
H   H9        1.0  0.29750  0.37750  0.86580  1.0000 0.1325385593
H   H10       1.0  0.37750  0.29750  0.13420  1.0000 0.1325385593
H   H11       1.0  0.43900  0.21420  0.92640  1.0000 0.1325385593
H   H12       1.0  0.21420  0.43900  0.07360  1.0000 0.1325385593
H   H13       1.0  0.48240  0.50000  0.78730  1.0000 0.1509866802
H   H14       1.0  0.50000  0.48240  0.21270  1.0000 0.1509866802
H   H15       1.0  0.94640  0.72680  0.93340  1.0000 0.1325385593
H   H16       1.0  0.72680  0.94640  0.06660  1.0000 0.1325385593
H   H17       1.0  0.35820  0.60560  0.75370  1.0000 0.1325385593
H   H18       1.0  0.60560  0.35820  0.24630  1.0000 0.1325385593
H   H19       1.0  0.65690  0.67470  0.78500  1.0000 0.1509866802
H   H20       1.0  0.67470  0.65690  0.21500  1.0000 0.1509866802
H   H21       1.0  0.58730  0.40270  0.99740  1.0000 0.1391244579
H   H22       1.0  0.40270  0.58730  0.00260  1.0000 0.1391244579
H   H23       1.0  0.04310  0.39210  0.84290  1.0000 0.1325385593
H   H24       1.0  0.39210  0.04310  0.15710  1.0000 0.1325385593
H   H25       1.0  0.87100  0.25100  0.77990  1.0000 0.1094580106
H   H26       1.0  0.25100  0.87100  0.22010  1.0000 0.1094580106
H   H27       1.0  0.97400  0.54660  0.82740  1.0000 0.1391244579
H   H28       1.0  0.54660  0.97400  0.17260  1.0000 0.1391244579
H   H29       1.0  0.86340  0.64880  0.61930  1.0000 0.1509866802
H   H30       1.0  0.64880  0.86340  0.38070  1.0000 0.1509866802
H   H31       1.0  0.64520  0.36860  0.75990  1.0000 0.1325385593
H   H32       1.0  0.36860  0.64520  0.24010  1.0000 0.1325385593
H   H33       1.0  0.30600  0.80100  0.71300  1.0000 0.1391244579
H   H34       1.0  0.80100  0.30600  0.28700  1.0000 0.1391244579
H   H35       1.0  0.24960  0.84280  0.64730  1.0000 0.1325385593
H   H36       1.0  0.84280  0.24960  0.35270  1.0000 0.1325385593
H   H37       1.0  0.22260  0.72200  0.63820  1.0000 0.1325385593
H   H38       1.0  0.72200  0.22260  0.36180  1.0000 0.1325385593
H   H39       1.0  0.77930  0.85970  0.86070  1.0000 0.1325385593
H   H40       1.0  0.85970  0.77930  0.13930  1.0000 0.1391244579
H   H41       1.0  0.13170  0.66630  0.77270  1.0000 0.0978634425
H   H42       1.0  0.66630  0.13170  0.22730  1.0000 0.0948495902
H   H43       1.0  0.72260  0.05660  0.78500  1.0000 0.1391244579
H   H44       1.0  0.05660  0.72260  0.21500  1.0000 0.1391244579
H   H45       1.0  0.80510  0.02790  0.75330  1.0000 0.1202207245
H   H46       1.0  0.02790  0.80510  0.24670  1.0000 0.1202207245
H   H47       1.0  0.77190  0.09350  0.68970  1.0000 0.1391244579
H   H48       1.0  0.09350  0.77190  0.31030  1.0000 0.1391244579
C   C1        1.0  0.94700  0.93440  0.88450  1.0000 -0.0308508174
C   C2        1.0  0.93440  0.94700  0.11550  1.0000 -0.0308508174
C   C3        1.0  0.22300  0.59080  0.87790  1.0000 0.5328329317
C   C4        1.0  0.59080  0.22300  0.12210  1.0000 0.5328329317
C   C5        1.0  0.35760  0.48800  0.62360  1.0000 0.5328329317
C   C6        1.0  0.48800  0.35760  0.37640  1.0000 0.5328329317
C   C7        1.0  0.16880  0.82260  0.80610  1.0000 0.5476116054
C   C8        1.0  0.82260  0.16880  0.19390  1.0000 0.5476116054
C   C9        1.0  0.22830  0.21010  0.89130  1.0000 -0.0176032735
C   C10       1.0  0.21010  0.22830  0.10870  1.0000 -0.0176032735
C   C11       1.0  0.70380  0.56300  0.95660  1.0000 -0.1628257222
C   C12       1.0  0.56300  0.70380  0.04340  1.0000 -0.1628257222
C   C13       1.0  0.16260  0.35920  0.68220  1.0000 -0.1998819895
C   C14       1.0  0.35920  0.16260  0.31780  1.0000 -0.1998819895
C   C15       1.0  0.51770  0.43790  0.89510  1.0000 0.1509866802
C   C16       1.0  0.43790  0.51770  0.10490  1.0000 0.1509866802
C   C17       1.0  0.30860  0.32140  0.88070  1.0000 -0.1002028473
C   C18       1.0  0.32140  0.30860  0.11930  1.0000 -0.1002028473
C   C19       1.0  0.38590  0.22990  0.91340  1.0000 0.0978634425
C   C20       1.0  0.22990  0.38590  0.08660  1.0000 0.0978634425
C   C21       1.0  0.53770  0.51630  0.82990  1.0000 -0.1256074645
C   C22       1.0  0.51630  0.53770  0.17010  1.0000 -0.1256074645
C   C23       1.0  0.93040  0.77880  0.91630  1.0000 0.0978634425
C   C24       1.0  0.77880  0.93040  0.08370  1.0000 0.0978634425
C   C25       1.0  0.28800  0.53720  0.75020  1.0000 -0.1503748037
C   C26       1.0  0.53720  0.28800  0.24980  1.0000 -0.1503748037
C   C27       1.0  0.72310  0.64330  0.89280  1.0000 0.1509866802
C   C28       1.0  0.64330  0.72310  0.10720  1.0000 0.1509866802
C   C29       1.0  0.64200  0.62080  0.82850  1.0000 -0.1503748037
C   C30       1.0  0.62080  0.64200  0.17150  1.0000 -0.1503748037
C   C31       1.0  0.60050  0.45850  0.95640  1.0000 -0.1503748037
C   C32       1.0  0.45850  0.60050  0.04360  1.0000 -0.1503748037
C   C33       1.0  0.90900  0.18020  0.88280  1.0000 0.5328329317
C   C34       1.0  0.18020  0.90900  0.11720  1.0000 0.5328329317
C   C35       1.0  0.77920  0.36300  0.87760  1.0000 0.5476116054
C   C36       1.0  0.36300  0.77920  0.12240  1.0000 0.5476116054
C   C37       1.0  0.09940  0.40860  0.80440  1.0000 -0.2325965948
C   C38       1.0  0.40860  0.09940  0.19560  1.0000 -0.2325965948
C   C39       1.0  0.20560  0.51160  0.80910  1.0000 -0.0176032735
C   C40       1.0  0.51160  0.20560  0.19090  1.0000 -0.0176032735
C   C41       1.0  0.94030  0.61250  0.71930  1.0000 0.258954417
C   C42       1.0  0.61250  0.94030  0.28070  1.0000 0.258954417
C   C43       1.0  0.80410  0.44650  0.80440  1.0000 0.0014334142
C   C44       1.0  0.44650  0.80410  0.19560  1.0000 0.0014334142
C   C45       1.0  0.07960  0.33120  0.74120  1.0000 0.2440878265
C   C46       1.0  0.33120  0.07960  0.25880  1.0000 0.2440878265
C   C47       1.0  0.88780  0.19440  0.78610  1.0000 0.0586971479
C   C48       1.0  0.19440  0.88780  0.21390  1.0000 0.0586971479
C   C49       1.0  0.74200  0.51080  0.68220  1.0000 0.0111468292
C   C50       1.0  0.51080  0.74200  0.31780  1.0000 0.0111468292
C   C51       1.0  0.91630  0.53690  0.79020  1.0000 -0.2535042353
C   C52       1.0  0.53690  0.91630  0.20980  1.0000 -0.2535042353
C   C53       1.0  0.84900  0.59820  0.66550  1.0000 -0.1998819895
C   C54       1.0  0.59820  0.84900  0.33450  1.0000 -0.1998819895
C   C55       1.0  0.64870  0.49710  0.62330  1.0000 0.5398331098
C   C56       1.0  0.49710  0.64870  0.37670  1.0000 0.5398331098
C   C57       1.0  0.71860  0.43100  0.75120  1.0000 -0.140769992
C   C58       1.0  0.43100  0.71860  0.24880  1.0000 -0.140769992
C   C59       1.0  0.23880  0.77860  0.67920  1.0000 -0.3905089386
C   C60       1.0  0.77860  0.23880  0.32080  1.0000 -0.3905089386
C   C61       1.0  0.83710  0.85130  0.87590  1.0000 -0.0943529047
C   C62       1.0  0.85130  0.83710  0.12410  1.0000 -0.0943529047
C   C63       1.0  0.26680  0.46120  0.68580  1.0000 0.0111468292
C   C64       1.0  0.46120  0.26680  0.31420  1.0000 0.0111468292
C   C65       1.0  0.14280  0.73200  0.74020  1.0000 0.0586971479
C   C66       1.0  0.73200  0.14280  0.25980  1.0000 0.0652688555
C   C67       1.0  0.78750  0.08270  0.75020  1.0000 -0.4097457714
C   C68       1.0  0.08270  0.78750  0.24980  1.0000 -0.4097457714
N   N1        1.0  0.40990  0.33510  0.89620  1.0000 0.0162700284
N   N2        1.0  0.33510  0.40990  0.10380  1.0000 0.0162700284
N   N3        1.0  0.27610  0.15430  0.90910  1.0000 -0.2666307352
N   N4        1.0  0.15430  0.27610  0.09090  1.0000 -0.2666307352
N   N5        1.0  0.82600  0.75220  0.89360  1.0000 0.0111468292
N   N6        1.0  0.75220  0.82600  0.10640  1.0000 0.0111468292
N   N7        1.0  0.00540  0.88840  0.91050  1.0000 -0.2666307352
N   N8        1.0  0.88840  0.00540  0.08950  1.0000 -0.2666307352
O   O1        1.0  0.31270  0.68530  0.88430  1.0000 -0.5202306398
O   O2        1.0  0.68530  0.31270  0.11570  1.0000 -0.5202306398
O   O3        1.0  0.16400  0.79860  0.88690  1.0000 -0.5627358444
O   O4        1.0  0.79860  0.16400  0.11310  1.0000 -0.5627358444
O   O5        1.0  0.99410  0.18510  0.90700  1.0000 -0.5091698654
O   O6        1.0  0.18510  0.99410  0.09300  1.0000 -0.5091698654
O   O7        1.0  0.45170  0.57550  0.62970  1.0000 -0.5091698654
O   O8        1.0  0.57550  0.45170  0.37030  1.0000 -0.5091698654
O   O9        1.0  0.85070  0.38890  0.93970  1.0000 -0.5416031964
O   O10       1.0  0.38890  0.85070  0.06030  1.0000 -0.5416031964
O   O11       1.0  0.14370  0.55890  0.93070  1.0000 -0.5468238182
O   O12       1.0  0.55890  0.14370  0.06930  1.0000 -0.5468238182
O   O13       1.0  0.67160  0.57460  0.57140  1.0000 -0.4904838689
O   O14       1.0  0.57460  0.67160  0.42860  1.0000 -0.4904838689
O   O15       1.0  0.55070  0.40870  0.62880  1.0000 -0.5202306398
O   O16       1.0  0.40870  0.55070  0.37120  1.0000 -0.5202306398
O   O17       1.0  0.98020  0.22680  0.73050  1.0000 -0.1776164807
O   O18       1.0  0.22680  0.98020  0.26950  1.0000 -0.1776164807
O   O19       1.0  0.04420  0.69900  0.69040  1.0000 -0.1699789651
O   O20       1.0  0.69900  0.04420  0.30960  1.0000 -0.1699789651
O   O21       1.0  0.33130  0.41470  0.56570  1.0000 -0.495853398
O   O22       1.0  0.41470  0.33130  0.43430  1.0000 -0.495853398
O   O23       1.0  0.19010  0.91410  0.77910  1.0000 -0.4764180966
O   O24       1.0  0.91410  0.19010  0.22090  1.0000 -0.4764180966
O   O25       1.0  0.68630  0.26670  0.87400  1.0000 -0.5627358444
O   O26       1.0  0.26670  0.68630  0.12600  1.0000 -0.5627358444
O   O27       1.0  0.83710  0.16470  0.93570  1.0000 -0.5468238182
O   O28       1.0  0.16470  0.83710  0.06430  1.0000 -0.5468238182
