# DDEC6 charges by PACMAN v1.1 (https://github.com/mtap-research/PACMAN-charge/)
data_2016[Cu][nbo]3[ASR]1
_chemical_formula_sum              "Cu6 H39 C81 N3 O24"
_cell_length_a       17.4859
_cell_length_b       17.4859
_cell_length_c       17.4859
_cell_angle_alpha    97.4981
_cell_angle_beta     97.4981
_cell_angle_gamma    97.4981

_symmetry_space_group_name_H-M    "P 1"
_symmetry_Int_Tables_number       1

loop_
  _symmetry_equiv_pos_as_xyz
  'x, y, z'

loop_
  _atom_site_type_symbol
  _atom_site_label
  _atom_site_symmetry_multiplicity
  _atom_site_fract_x
  _atom_site_fract_y
  _atom_site_fract_z
  _atom_site_occupancy
  _atom_site_charge
Cu  Cu1       1.0  0.78814  0.10606  0.10606  1.0000 0.8521717604
Cu  Cu2       1.0  0.10606  0.10606  0.78814  1.0000 0.8521717604
Cu  Cu3       1.0  0.10606  0.78814  0.10606  1.0000 0.8521717604
Cu  Cu4       1.0  0.64150  0.04747  0.04747  1.0000 0.8521717604
Cu  Cu5       1.0  0.04747  0.04747  0.64150  1.0000 0.8521717604
Cu  Cu6       1.0  0.04747  0.64150  0.04747  1.0000 0.8521717604
H   H1        1.0  0.88830  0.08570  0.88830  1.0000 0.1389047469
H   H2        1.0  0.08570  0.88830  0.88830  1.0000 0.1389047469
H   H3        1.0  0.88830  0.88830  0.08570  1.0000 0.1389047469
H   H4        1.0  0.81300  0.06400  0.65950  1.0000 0.1227551168
H   H5        1.0  0.06400  0.65950  0.81300  1.0000 0.1227551168
H   H6        1.0  0.81300  0.65950  0.06400  1.0000 0.1227551168
H   H7        1.0  0.65950  0.81300  0.06400  1.0000 0.1227551168
H   H8        1.0  0.06400  0.81300  0.65950  1.0000 0.1227551168
H   H9        1.0  0.65950  0.06400  0.81300  1.0000 0.1227551168
H   H10       1.0  0.73840  0.12020  0.46880  1.0000 0.1227551168
H   H11       1.0  0.12020  0.46880  0.73840  1.0000 0.1227551168
H   H12       1.0  0.73840  0.46880  0.12020  1.0000 0.1227551168
H   H13       1.0  0.46880  0.73840  0.12020  1.0000 0.1227551168
H   H14       1.0  0.12020  0.73840  0.46880  1.0000 0.1227551168
H   H15       1.0  0.46880  0.12020  0.73840  1.0000 0.1227551168
H   H16       1.0  0.76840  0.11730  0.34570  1.0000 0.1389047469
H   H17       1.0  0.11730  0.34570  0.76840  1.0000 0.1389047469
H   H18       1.0  0.76840  0.34570  0.11730  1.0000 0.1389047469
H   H19       1.0  0.34570  0.76840  0.11730  1.0000 0.1389047469
H   H20       1.0  0.11730  0.76840  0.34570  1.0000 0.1389047469
H   H21       1.0  0.34570  0.11730  0.76840  1.0000 0.1389047469
H   H22       1.0  0.72100  0.06280  0.56580  1.0000 0.1134926369
H   H23       1.0  0.06280  0.56580  0.72100  1.0000 0.1134926369
H   H24       1.0  0.72100  0.56580  0.06280  1.0000 0.1134926369
H   H25       1.0  0.56580  0.72100  0.06280  1.0000 0.1134926369
H   H26       1.0  0.06280  0.72100  0.56580  1.0000 0.1134926369
H   H27       1.0  0.56580  0.06280  0.72100  1.0000 0.1134926369
H   H28       1.0  0.54290  0.03930  0.26460  1.0000 0.1342949932
H   H29       1.0  0.03930  0.26460  0.54290  1.0000 0.1342949932
H   H30       1.0  0.54290  0.26460  0.03930  1.0000 0.1342949932
H   H31       1.0  0.26460  0.54290  0.03930  1.0000 0.1342949932
H   H32       1.0  0.03930  0.54290  0.26460  1.0000 0.1342949932
H   H33       1.0  0.26460  0.03930  0.54290  1.0000 0.1342949932
H   H34       1.0  0.51820  0.03630  0.39010  1.0000 0.1227551168
H   H35       1.0  0.03630  0.39010  0.51820  1.0000 0.1227551168
H   H36       1.0  0.51820  0.39010  0.03630  1.0000 0.1227551168
H   H37       1.0  0.39010  0.51820  0.03630  1.0000 0.1227551168
H   H38       1.0  0.03630  0.51820  0.39010  1.0000 0.1227551168
H   H39       1.0  0.39010  0.03630  0.51820  1.0000 0.1227551168
C   C1        1.0  0.84650  0.08020  0.84650  1.0000 -0.0913724298
C   C2        1.0  0.08020  0.84650  0.84650  1.0000 -0.0913724298
C   C3        1.0  0.84650  0.84650  0.08020  1.0000 -0.0913724298
C   C4        1.0  0.86070  0.07600  0.76990  1.0000 -0.0132831261
C   C5        1.0  0.07600  0.76990  0.86070  1.0000 -0.0132831261
C   C6        1.0  0.86070  0.76990  0.07600  1.0000 -0.0132831261
C   C7        1.0  0.76990  0.86070  0.07600  1.0000 -0.0132831261
C   C8        1.0  0.07600  0.86070  0.76990  1.0000 -0.0132831261
C   C9        1.0  0.76990  0.07600  0.86070  1.0000 -0.0132831261
C   C10       1.0  0.72140  0.06670  0.72140  1.0000 0.0391094973
C   C11       1.0  0.06670  0.72140  0.72140  1.0000 0.0391094973
C   C12       1.0  0.72140  0.72140  0.06670  1.0000 0.0391094973
C   C13       1.0  0.80120  0.06850  0.71120  1.0000 -0.130751648
C   C14       1.0  0.06850  0.71120  0.80120  1.0000 -0.130751648
C   C15       1.0  0.80120  0.71120  0.06850  1.0000 -0.130751648
C   C16       1.0  0.71120  0.80120  0.06850  1.0000 -0.130751648
C   C17       1.0  0.06850  0.80120  0.71120  1.0000 -0.130751648
C   C18       1.0  0.71120  0.06850  0.80120  1.0000 -0.130751648
C   C19       1.0  0.94230  0.07650  0.75110  1.0000 0.5795499003
C   C20       1.0  0.07650  0.75110  0.94230  1.0000 0.5795499003
C   C21       1.0  0.94230  0.75110  0.07650  1.0000 0.5795499003
C   C22       1.0  0.75110  0.94230  0.07650  1.0000 0.5795499003
C   C23       1.0  0.07650  0.94230  0.75110  1.0000 0.5795499003
C   C24       1.0  0.75110  0.07650  0.94230  1.0000 0.5795499003
C   C25       1.0  0.66180  0.07040  0.66180  1.0000 0.0991523157
C   C26       1.0  0.07040  0.66180  0.66180  1.0000 0.0991523157
C   C27       1.0  0.66180  0.66180  0.07040  1.0000 0.0991523157
C   C28       1.0  0.69780  0.10090  0.42640  1.0000 -0.1657787844
C   C29       1.0  0.10090  0.42640  0.69780  1.0000 -0.1657787844
C   C30       1.0  0.69780  0.42640  0.10090  1.0000 -0.1657787844
C   C31       1.0  0.42640  0.69780  0.10090  1.0000 -0.1657787844
C   C32       1.0  0.10090  0.69780  0.42640  1.0000 -0.1657787844
C   C33       1.0  0.42640  0.10090  0.69780  1.0000 -0.1657787844
C   C34       1.0  0.67750  0.07520  0.20990  1.0000 0.5795499003
C   C35       1.0  0.07520  0.20990  0.67750  1.0000 0.5795499003
C   C36       1.0  0.67750  0.20990  0.07520  1.0000 0.5795499003
C   C37       1.0  0.20990  0.67750  0.07520  1.0000 0.5795499003
C   C38       1.0  0.07520  0.67750  0.20990  1.0000 0.5795499003
C   C39       1.0  0.20990  0.07520  0.67750  1.0000 0.5795499003
C   C40       1.0  0.71620  0.10120  0.35340  1.0000 -0.0913724298
C   C41       1.0  0.10120  0.35340  0.71620  1.0000 -0.0913724298
C   C42       1.0  0.71620  0.35340  0.10120  1.0000 -0.0913724298
C   C43       1.0  0.35340  0.71620  0.10120  1.0000 -0.0913724298
C   C44       1.0  0.10120  0.71620  0.35340  1.0000 -0.0913724298
C   C45       1.0  0.35340  0.10120  0.71620  1.0000 -0.0913724298
C   C46       1.0  0.67170  0.06950  0.58080  1.0000 -0.245814384
C   C47       1.0  0.06950  0.58080  0.67170  1.0000 -0.245814384
C   C48       1.0  0.67170  0.58080  0.06950  1.0000 -0.245814384
C   C49       1.0  0.58080  0.67170  0.06950  1.0000 -0.245814384
C   C50       1.0  0.06950  0.67170  0.58080  1.0000 -0.245814384
C   C51       1.0  0.58080  0.06950  0.67170  1.0000 -0.245814384
C   C52       1.0  0.62660  0.07580  0.44440  1.0000 0.0565031429
C   C53       1.0  0.07580  0.44440  0.62660  1.0000 0.0565031429
C   C54       1.0  0.62660  0.44440  0.07580  1.0000 0.0565031429
C   C55       1.0  0.44440  0.62660  0.07580  1.0000 0.0565031429
C   C56       1.0  0.07580  0.62660  0.44440  1.0000 0.0565031429
C   C57       1.0  0.44440  0.07580  0.62660  1.0000 0.0565031429
C   C58       1.0  0.58430  0.05460  0.30690  1.0000 -0.0913724298
C   C59       1.0  0.05460  0.30690  0.58430  1.0000 -0.0913724298
C   C60       1.0  0.58430  0.30690  0.05460  1.0000 -0.0913724298
C   C61       1.0  0.30690  0.58430  0.05460  1.0000 -0.0913724298
C   C62       1.0  0.05460  0.58430  0.30690  1.0000 -0.0913724298
C   C63       1.0  0.30690  0.05460  0.58430  1.0000 -0.0913724298
C   C64       1.0  0.65880  0.07790  0.29220  1.0000 -0.02445745
C   C65       1.0  0.07790  0.29220  0.65880  1.0000 -0.0263895082
C   C66       1.0  0.65880  0.29220  0.07790  1.0000 -0.0263895082
C   C67       1.0  0.29220  0.65880  0.07790  1.0000 -0.0263895082
C   C68       1.0  0.07790  0.65880  0.29220  1.0000 -0.0263895082
C   C69       1.0  0.29220  0.07790  0.65880  1.0000 -0.0263895082
C   C70       1.0  0.61240  0.07780  0.52590  1.0000 0.2021003853
C   C71       1.0  0.07780  0.52590  0.61240  1.0000 0.2021003853
C   C72       1.0  0.61240  0.52590  0.07780  1.0000 0.2021003853
C   C73       1.0  0.52590  0.61240  0.07780  1.0000 0.2021003853
C   C74       1.0  0.07780  0.61240  0.52590  1.0000 0.2021003853
C   C75       1.0  0.52590  0.07780  0.61240  1.0000 0.2021003853
C   C76       1.0  0.56990  0.05340  0.38160  1.0000 -0.1414910838
C   C77       1.0  0.05340  0.38160  0.56990  1.0000 -0.1414910838
C   C78       1.0  0.56990  0.38160  0.05340  1.0000 -0.1414910838
C   C79       1.0  0.38160  0.56990  0.05340  1.0000 -0.1414910838
C   C80       1.0  0.05340  0.56990  0.38160  1.0000 -0.1414910838
C   C81       1.0  0.38160  0.05340  0.56990  1.0000 -0.1414910838
N   N1        1.0  0.53960  0.07930  0.53960  1.0000 -0.3330286626
N   N2        1.0  0.07930  0.53960  0.53960  1.0000 -0.3330286626
N   N3        1.0  0.53960  0.53960  0.07930  1.0000 -0.3330286626
O   O1        1.0  0.62333  0.05154  0.15585  1.0000 -0.4999497915
O   O2        1.0  0.05154  0.15585  0.62333  1.0000 -0.4999497915
O   O3        1.0  0.62333  0.15585  0.05154  1.0000 -0.4999497915
O   O4        1.0  0.15585  0.62333  0.05154  1.0000 -0.4999497915
O   O5        1.0  0.05154  0.62333  0.15585  1.0000 -0.4999497915
O   O6        1.0  0.15585  0.05154  0.62333  1.0000 -0.4999497915
O   O7        1.0  0.99661  0.10011  0.80671  1.0000 -0.5070106769
O   O8        1.0  0.10011  0.80671  0.99661  1.0000 -0.5070106769
O   O9        1.0  0.99661  0.80671  0.10011  1.0000 -0.5070106769
O   O10       1.0  0.80671  0.99661  0.10011  1.0000 -0.5070106769
O   O11       1.0  0.10011  0.99661  0.80671  1.0000 -0.5070106769
O   O12       1.0  0.80671  0.10011  0.99661  1.0000 -0.5070106769
O   O13       1.0  0.94934  0.05388  0.68202  1.0000 -0.5191618487
O   O14       1.0  0.05388  0.68202  0.94934  1.0000 -0.5191618487
O   O15       1.0  0.94934  0.68202  0.05388  1.0000 -0.5191618487
O   O16       1.0  0.68202  0.94934  0.05388  1.0000 -0.5191618487
O   O17       1.0  0.05388  0.94934  0.68202  1.0000 -0.5191618487
O   O18       1.0  0.68202  0.05388  0.94934  1.0000 -0.5191618487
O   O19       1.0  0.74667  0.09916  0.20365  1.0000 -0.5191618487
O   O20       1.0  0.09916  0.20365  0.74667  1.0000 -0.5191618487
O   O21       1.0  0.74667  0.20365  0.09916  1.0000 -0.5191618487
O   O22       1.0  0.20365  0.74667  0.09916  1.0000 -0.5191618487
O   O23       1.0  0.09916  0.74667  0.20365  1.0000 -0.5191618487
O   O24       1.0  0.20365  0.09916  0.74667  1.0000 -0.5191618487
