# DDEC6 charges by PACMAN v1.1 (https://github.com/mtap-research/PACMAN-charge/)
data_2016[Co][nan]3[ASR]19
_chemical_formula_sum              "Co8 H40 C60 N12 O28"
_cell_length_a       10.1845
_cell_length_b       20.8747
_cell_length_c       13.1713
_cell_angle_alpha    90
_cell_angle_beta     127.297
_cell_angle_gamma    90

_symmetry_space_group_name_H-M    "P 1"
_symmetry_Int_Tables_number       1

loop_
  _symmetry_equiv_pos_as_xyz
  'x, y, z'

loop_
  _atom_site_type_symbol
  _atom_site_label
  _atom_site_symmetry_multiplicity
  _atom_site_fract_x
  _atom_site_fract_y
  _atom_site_fract_z
  _atom_site_occupancy
  _atom_site_charge
Co  Co1       1.0  0.35484  0.44935  0.44022  1.0000 0.9557234116
Co  Co2       1.0  0.64516  0.94935  0.05978  1.0000 0.9557234116
Co  Co3       1.0  0.64516  0.55065  0.55978  1.0000 0.9557234116
Co  Co4       1.0  0.35484  0.05065  0.94022  1.0000 0.9557234116
Co  Co5       1.0  0.71288  0.38594  0.63582  1.0000 0.9494384445
Co  Co6       1.0  0.28712  0.88594  0.86418  1.0000 0.9494384445
Co  Co7       1.0  0.28712  0.61406  0.36418  1.0000 0.9494384445
Co  Co8       1.0  0.71288  0.11406  0.13582  1.0000 0.9494384445
H   H1        1.0  0.60300  0.45380  0.44200  1.0000 0.401216603
H   H2        1.0  0.39700  0.95380  0.05800  1.0000 0.401216603
H   H3        1.0  0.39700  0.54620  0.55800  1.0000 0.401216603
H   H4        1.0  0.60300  0.04620  0.94200  1.0000 0.401216603
H   H5        1.0  0.33730  0.58810  0.96000  1.0000 0.1307083516
H   H6        1.0  0.66270  0.08810  0.54000  1.0000 0.1307083516
H   H7        1.0  0.66270  0.41190  0.04000  1.0000 0.1307083516
H   H8        1.0  0.33730  0.91190  0.46000  1.0000 0.1307083516
H   H9        1.0  0.40430  0.39780  0.99090  1.0000 0.1307083516
H   H10       1.0  0.59570  0.89780  0.50910  1.0000 0.1307083516
H   H11       1.0  0.59570  0.60220  0.00910  1.0000 0.1307083516
H   H12       1.0  0.40430  0.10220  0.49090  1.0000 0.1307083516
H   H13       1.0  0.14010  0.43990  0.91530  1.0000 0.1307083516
H   H14       1.0  0.85990  0.93990  0.58470  1.0000 0.1307083516
H   H15       1.0  0.85990  0.56010  0.08470  1.0000 0.1307083516
H   H16       1.0  0.14010  0.06010  0.41530  1.0000 0.1307083516
H   H17       1.0  0.10070  0.51360  0.88000  1.0000 0.1307083516
H   H18       1.0  0.89930  0.01360  0.62000  1.0000 0.1307083516
H   H19       1.0  0.89930  0.48640  0.12000  1.0000 0.1307083516
H   H20       1.0  0.10070  0.98640  0.38000  1.0000 0.1307083516
H   H21       1.0  0.27450  0.40920  0.15770  1.0000 0.1388635504
H   H22       1.0  0.72550  0.90920  0.34230  1.0000 0.1388635504
H   H23       1.0  0.72550  0.59080  0.84230  1.0000 0.1388635504
H   H24       1.0  0.27450  0.09080  0.65770  1.0000 0.1388635504
H   H25       1.0  0.14620  0.58950  0.06050  1.0000 0.1388635504
H   H26       1.0  0.85380  0.08950  0.43950  1.0000 0.1388635504
H   H27       1.0  0.85380  0.41050  0.93950  1.0000 0.1388635504
H   H28       1.0  0.14620  0.91050  0.56050  1.0000 0.1388635504
H   H29       1.0  0.16690  0.24820  0.33230  1.0000 0.1307083516
H   H30       1.0  0.83310  0.74820  0.16770  1.0000 0.1307083516
H   H31       1.0  0.83310  0.75180  0.66770  1.0000 0.1307083516
H   H32       1.0  0.16690  0.25180  0.83230  1.0000 0.1307083516
H   H33       1.0  0.19370  0.10170  0.14740  1.0000 0.1307083516
H   H34       1.0  0.80630  0.60170  0.35260  1.0000 0.1307083516
H   H35       1.0  0.80630  0.89830  0.85260  1.0000 0.1307083516
H   H36       1.0  0.19370  0.39830  0.64740  1.0000 0.1307083516
H   H37       1.0  0.55710  0.23320  0.32620  1.0000 0.1388635504
H   H38       1.0  0.44290  0.73320  0.17380  1.0000 0.1388635504
H   H39       1.0  0.44290  0.76680  0.67380  1.0000 0.1388635504
H   H40       1.0  0.55710  0.26680  0.82620  1.0000 0.1388635504
C   C1        1.0  0.34520  0.49194  0.97100  1.0000 0.0894937632
C   C2        1.0  0.65480  0.99194  0.52900  1.0000 0.100293525
C   C3        1.0  0.65480  0.50806  0.02900  1.0000 0.100293525
C   C4        1.0  0.34520  0.00806  0.47100  1.0000 0.0894937632
C   C5        1.0  0.40320  0.55221  0.97630  1.0000 -0.1393199347
C   C6        1.0  0.59680  0.05221  0.52370  1.0000 -0.1393199347
C   C7        1.0  0.59680  0.44779  0.02370  1.0000 -0.1393199347
C   C8        1.0  0.40320  0.94779  0.47630  1.0000 -0.1393199347
C   C9        1.0  0.44270  0.43930  0.99460  1.0000 -0.1393199347
C   C10       1.0  0.55730  0.93930  0.50540  1.0000 -0.1393199347
C   C11       1.0  0.55730  0.56070  0.00540  1.0000 -0.1393199347
C   C12       1.0  0.44270  0.06070  0.49460  1.0000 -0.1393199347
C   C13       1.0  0.18100  0.48340  0.94610  1.0000 -0.1661403411
C   C14       1.0  0.81900  0.98340  0.55390  1.0000 -0.1661403411
C   C15       1.0  0.81900  0.51660  0.05390  1.0000 -0.1661403411
C   C16       1.0  0.18100  0.01660  0.44610  1.0000 -0.1661403411
C   C17       1.0  0.25110  0.45251  0.15960  1.0000 0.100293525
C   C18       1.0  0.74890  0.95251  0.34040  1.0000 0.100293525
C   C19       1.0  0.74890  0.54749  0.84040  1.0000 0.100293525
C   C20       1.0  0.25110  0.04749  0.65960  1.0000 0.100293525
C   C21       1.0  0.18080  0.55083  0.10640  1.0000 0.0894937632
C   C22       1.0  0.81920  0.05083  0.39360  1.0000 0.0894937632
C   C23       1.0  0.81920  0.44917  0.89360  1.0000 0.0894937632
C   C24       1.0  0.18080  0.94917  0.60640  1.0000 0.0894937632
C   C25       1.0  0.37150  0.25089  0.33890  1.0000 -0.0192155349
C   C26       1.0  0.62850  0.75089  0.16110  1.0000 -0.0192155349
C   C27       1.0  0.62850  0.74911  0.66110  1.0000 -0.0192155349
C   C28       1.0  0.37150  0.24911  0.83890  1.0000 -0.0192155349
C   C29       1.0  0.22340  0.22638  0.30690  1.0000 -0.1241837412
C   C30       1.0  0.77660  0.72638  0.19310  1.0000 -0.1241837412
C   C31       1.0  0.77660  0.77362  0.69310  1.0000 -0.1241837412
C   C32       1.0  0.22340  0.27362  0.80690  1.0000 -0.1241837412
C   C33       1.0  0.15920  0.17001  0.23770  1.0000 -0.0192155349
C   C34       1.0  0.84080  0.67001  0.26230  1.0000 -0.0192155349
C   C35       1.0  0.84080  0.82999  0.76230  1.0000 -0.0192155349
C   C36       1.0  0.15920  0.32999  0.73770  1.0000 -0.0192155349
C   C37       1.0  0.23960  0.13911  0.19690  1.0000 -0.1241837412
C   C38       1.0  0.76040  0.63911  0.30310  1.0000 -0.1241837412
C   C39       1.0  0.76040  0.86089  0.80310  1.0000 -0.1241837412
C   C40       1.0  0.23960  0.36089  0.69690  1.0000 -0.1241837412
C   C41       1.0  0.38840  0.16287  0.22820  1.0000 -0.0192155349
C   C42       1.0  0.61160  0.66287  0.27180  1.0000 -0.0192155349
C   C43       1.0  0.61160  0.83713  0.77180  1.0000 -0.0192155349
C   C44       1.0  0.38840  0.33713  0.72820  1.0000 -0.0192155349
C   C45       1.0  0.45470  0.21792  0.30140  1.0000 -0.129483004
C   C46       1.0  0.54530  0.71792  0.19860  1.0000 -0.129483004
C   C47       1.0  0.54530  0.78208  0.69860  1.0000 -0.129483004
C   C48       1.0  0.45470  0.28208  0.80140  1.0000 -0.129483004
C   C49       1.0  0.43990  0.31279  0.41040  1.0000 0.5877394594
C   C50       1.0  0.56010  0.81279  0.08960  1.0000 0.5877394594
C   C51       1.0  0.56010  0.68721  0.58960  1.0000 0.5877394594
C   C52       1.0  0.43990  0.18721  0.91040  1.0000 0.5877394594
C   C53       1.0  0.99820  0.14396  0.20180  1.0000 0.5384595759
C   C54       1.0  0.00180  0.64396  0.29820  1.0000 0.5384595759
C   C55       1.0  0.00180  0.85604  0.79820  1.0000 0.5384595759
C   C56       1.0  0.99820  0.35604  0.70180  1.0000 0.5384595759
C   C57       1.0  0.46890  0.13113  0.17670  1.0000 0.5753807492
C   C58       1.0  0.53110  0.63113  0.32330  1.0000 0.5753807492
C   C59       1.0  0.53110  0.86887  0.82330  1.0000 0.5753807492
C   C60       1.0  0.46890  0.36887  0.67670  1.0000 0.5753807492
N   N1        1.0  0.26520  0.48016  0.25460  1.0000 -0.2101625212
N   N2        1.0  0.73480  0.98016  0.24540  1.0000 -0.2101625212
N   N3        1.0  0.73480  0.51984  0.74540  1.0000 -0.2101625212
N   N4        1.0  0.26520  0.01984  0.75460  1.0000 -0.2101625212
N   N5        1.0  0.21910  0.54360  0.22030  1.0000 -0.1975807779
N   N6        1.0  0.78090  0.04360  0.27970  1.0000 -0.1975807779
N   N7        1.0  0.78090  0.45640  0.77970  1.0000 -0.1975807779
N   N8        1.0  0.21910  0.95640  0.72030  1.0000 -0.1975807779
N   N9        1.0  0.19840  0.49484  0.06450  1.0000 0.0174336924
N   N10       1.0  0.80160  0.99484  0.43550  1.0000 0.0174336924
N   N11       1.0  0.80160  0.50516  0.93550  1.0000 0.0174336924
N   N12       1.0  0.19840  0.00516  0.56450  1.0000 0.0174336924
O   O1        1.0  0.33399  0.35448  0.38690  1.0000 -0.5984052204
O   O2        1.0  0.66601  0.85448  0.11310  1.0000 -0.5984052204
O   O3        1.0  0.66601  0.64552  0.61310  1.0000 -0.5984052204
O   O4        1.0  0.33399  0.14552  0.88690  1.0000 -0.5984052204
O   O5        1.0  0.59423  0.31866  0.48510  1.0000 -0.529628449
O   O6        1.0  0.40577  0.81866  0.01490  1.0000 -0.529628449
O   O7        1.0  0.40577  0.68134  0.51490  1.0000 -0.529628449
O   O8        1.0  0.59423  0.18134  0.98510  1.0000 -0.529628449
O   O9        1.0  0.93515  0.16720  0.25170  1.0000 -0.5494826965
O   O10       1.0  0.06485  0.66720  0.24830  1.0000 -0.5494826965
O   O11       1.0  0.06485  0.83280  0.74830  1.0000 -0.5494826965
O   O12       1.0  0.93515  0.33280  0.75170  1.0000 -0.5494826965
O   O13       1.0  0.92779  0.09967  0.12240  1.0000 -0.5494826965
O   O14       1.0  0.07221  0.59967  0.37760  1.0000 -0.5494826965
O   O15       1.0  0.07221  0.90033  0.87760  1.0000 -0.5494826965
O   O16       1.0  0.92779  0.40033  0.62240  1.0000 -0.5494826965
O   O17       1.0  0.40975  0.07902  0.11770  1.0000 -0.5912360482
O   O18       1.0  0.59025  0.57902  0.38230  1.0000 -0.5912360482
O   O19       1.0  0.59025  0.92098  0.88230  1.0000 -0.5912360482
O   O20       1.0  0.40975  0.42098  0.61770  1.0000 -0.5912360482
O   O21       1.0  0.59139  0.15909  0.19500  1.0000 -0.5363363259
O   O22       1.0  0.40861  0.65909  0.30500  1.0000 -0.5363363259
O   O23       1.0  0.40861  0.84091  0.80500  1.0000 -0.5363363259
O   O24       1.0  0.59139  0.34091  0.69500  1.0000 -0.5363363259
O   O25       1.0  0.60089  0.45603  0.50710  1.0000 -0.8683215909
O   O26       1.0  0.39911  0.95603  0.99290  1.0000 -0.8683215909
O   O27       1.0  0.39911  0.54397  0.49290  1.0000 -0.8683215909
O   O28       1.0  0.60089  0.04397  0.00710  1.0000 -0.8683215909
