# DDEC6 charges by PACMAN v1.1 (https://github.com/mtap-research/PACMAN-charge/)
data_2016[Co][nan]3[ASR]13
_chemical_formula_sum              "Co6 H16 C28 N12 O12"
_cell_length_a       10.975
_cell_length_b       10.975
_cell_length_c       11.0033
_cell_angle_alpha    83.6309
_cell_angle_beta     96.3691
_cell_angle_gamma    100.647

_symmetry_space_group_name_H-M    "P 1"
_symmetry_Int_Tables_number       1

loop_
  _symmetry_equiv_pos_as_xyz
  'x, y, z'

loop_
  _atom_site_type_symbol
  _atom_site_label
  _atom_site_symmetry_multiplicity
  _atom_site_fract_x
  _atom_site_fract_y
  _atom_site_fract_z
  _atom_site_occupancy
  _atom_site_charge
Co  Co1       1.0  0.14441  0.99119  0.99410  1.0000 0.8734004668
Co  Co2       1.0  0.99119  0.14441  0.50590  1.0000 0.8734004668
Co  Co3       1.0  0.85559  0.00881  0.00590  1.0000 0.8734004668
Co  Co4       1.0  0.00881  0.85559  0.49410  1.0000 0.8734004668
Co  Co5       1.0  0.90860  0.90860  0.75000  1.0000 0.9035844228
Co  Co6       1.0  0.09140  0.09140  0.25000  1.0000 0.9085853717
H   H1        1.0  0.34100  0.87800  0.50860  1.0000 0.1393557808
H   H2        1.0  0.87800  0.34100  0.99140  1.0000 0.1393557808
H   H3        1.0  0.65900  0.12200  0.49140  1.0000 0.1393557808
H   H4        1.0  0.12200  0.65900  0.00860  1.0000 0.1393557808
H   H5        1.0  0.54270  0.88550  0.59900  1.0000 0.1197992559
H   H6        1.0  0.88550  0.54270  0.90100  1.0000 0.1197992559
H   H7        1.0  0.45730  0.11450  0.40100  1.0000 0.1197992559
H   H8        1.0  0.11450  0.45730  0.09900  1.0000 0.1197992559
H   H9        1.0  0.44420  0.95420  0.92050  1.0000 0.1393557808
H   H10       1.0  0.95420  0.44420  0.57950  1.0000 0.1393557808
H   H11       1.0  0.55580  0.04580  0.07950  1.0000 0.1393557808
H   H12       1.0  0.04580  0.55580  0.42050  1.0000 0.1393557808
H   H13       1.0  0.92400  0.81800  0.95200  1.0000 0.3890243492
H   H14       1.0  0.81800  0.92400  0.54800  1.0000 0.3890243492
H   H15       1.0  0.07600  0.18200  0.04800  1.0000 0.3890243492
H   H16       1.0  0.18200  0.07600  0.45200  1.0000 0.3890243492
C   C1        1.0  0.30180  0.91760  0.78940  1.0000 0.1197992559
C   C2        1.0  0.91760  0.30180  0.71060  1.0000 0.1197992559
C   C3        1.0  0.69820  0.08240  0.21060  1.0000 0.1197992559
C   C4        1.0  0.08240  0.69820  0.28940  1.0000 0.1197992559
C   C5        1.0  0.27070  0.89850  0.66700  1.0000 0.1197992559
C   C6        1.0  0.89850  0.27070  0.83300  1.0000 0.1197992559
C   C7        1.0  0.72930  0.10150  0.33300  1.0000 0.1197992559
C   C8        1.0  0.10150  0.72930  0.16700  1.0000 0.1197992559
C   C9        1.0  0.36070  0.88910  0.59150  1.0000 -0.1782726848
C   C10       1.0  0.88910  0.36070  0.90850  1.0000 -0.1782726848
C   C11       1.0  0.63930  0.11090  0.40850  1.0000 -0.1782726848
C   C12       1.0  0.11090  0.63930  0.09150  1.0000 -0.1782726848
C   C13       1.0  0.48050  0.89670  0.64560  1.0000 -0.1104717215
C   C14       1.0  0.89670  0.48050  0.85440  1.0000 -0.1104717215
C   C15       1.0  0.51950  0.10330  0.35440  1.0000 -0.1104717215
C   C16       1.0  0.10330  0.51950  0.14560  1.0000 -0.1104717215
C   C17       1.0  0.51170  0.92050  0.76700  1.0000 -0.0170267166
C   C18       1.0  0.92050  0.51170  0.73300  1.0000 -0.0170267166
C   C19       1.0  0.48830  0.07950  0.23300  1.0000 -0.0170267166
C   C20       1.0  0.07950  0.48830  0.26700  1.0000 -0.0170267166
C   C21       1.0  0.42310  0.93430  0.84000  1.0000 -0.1563610264
C   C22       1.0  0.93430  0.42310  0.66000  1.0000 -0.1563610264
C   C23       1.0  0.57690  0.06570  0.16000  1.0000 -0.1563610264
C   C24       1.0  0.06570  0.57690  0.34000  1.0000 -0.1563610264
C   C25       1.0  0.64820  0.92400  0.82010  1.0000 0.5868741891
C   C26       1.0  0.92400  0.64820  0.67990  1.0000 0.5868741891
C   C27       1.0  0.35180  0.07600  0.17990  1.0000 0.5868741891
C   C28       1.0  0.07600  0.35180  0.32010  1.0000 0.5868741891
N   N1        1.0  0.19320  0.92480  0.83820  1.0000 -0.2482456134
N   N2        1.0  0.92480  0.19320  0.66180  1.0000 -0.2482456134
N   N3        1.0  0.80680  0.07520  0.16180  1.0000 -0.2482456134
N   N4        1.0  0.07520  0.80680  0.33820  1.0000 -0.2482456134
N   N5        1.0  0.09870  0.90890  0.74740  1.0000 -0.0564965697
N   N6        1.0  0.90890  0.09870  0.75260  1.0000 -0.0564965697
N   N7        1.0  0.90130  0.09110  0.25260  1.0000 -0.0564965697
N   N8        1.0  0.09110  0.90130  0.24740  1.0000 -0.0564965697
N   N9        1.0  0.14570  0.89250  0.64200  1.0000 -0.2423456439
N   N10       1.0  0.89250  0.14570  0.85800  1.0000 -0.2423456439
N   N11       1.0  0.85430  0.10750  0.35800  1.0000 -0.2423456439
N   N12       1.0  0.10750  0.85430  0.14200  1.0000 -0.2423456439
O   O1        1.0  0.95410  0.90530  0.93370  1.0000 -0.8216477612
O   O2        1.0  0.90530  0.95410  0.56630  1.0000 -0.8216477612
O   O3        1.0  0.04590  0.09470  0.06630  1.0000 -0.8216477612
O   O4        1.0  0.09470  0.04590  0.43370  1.0000 -0.8216477612
O   O5        1.0  0.67560  0.95920  0.92530  1.0000 -0.5566840449
O   O6        1.0  0.95920  0.67560  0.57470  1.0000 -0.5566840449
O   O7        1.0  0.32440  0.04080  0.07470  1.0000 -0.5566840449
O   O8        1.0  0.04080  0.32440  0.42530  1.0000 -0.5566840449
O   O9        1.0  0.71830  0.88970  0.75350  1.0000 -0.5528990009
O   O10       1.0  0.88970  0.71830  0.74650  1.0000 -0.5528990009
O   O11       1.0  0.28170  0.11030  0.24650  1.0000 -0.5528990009
O   O12       1.0  0.11030  0.28170  0.25350  1.0000 -0.5528990009
