# DDEC6 charges by PACMAN v1.1 (https://github.com/mtap-research/PACMAN-charge/)
data_2016[Cu][nbo]3[ASR]48
_chemical_formula_sum              "Cu6 H78 C126 O30"
_cell_length_a       21.58
_cell_length_b       21.58
_cell_length_c       21.58
_cell_angle_alpha    107.602
_cell_angle_beta     107.602
_cell_angle_gamma    107.602

_symmetry_space_group_name_H-M    "P 1"
_symmetry_Int_Tables_number       1

loop_
  _symmetry_equiv_pos_as_xyz
  'x, y, z'

loop_
  _atom_site_type_symbol
  _atom_site_label
  _atom_site_symmetry_multiplicity
  _atom_site_fract_x
  _atom_site_fract_y
  _atom_site_fract_z
  _atom_site_occupancy
  _atom_site_charge
Cu  Cu1       1.0  0.43116  0.95771  0.95771  1.0000 0.8523954044
Cu  Cu2       1.0  0.95771  0.95771  0.43116  1.0000 0.8523954044
Cu  Cu3       1.0  0.95771  0.43116  0.95771  1.0000 0.8523954044
Cu  Cu4       1.0  0.04229  0.56884  0.04229  1.0000 0.8523954044
Cu  Cu5       1.0  0.04229  0.04229  0.56884  1.0000 0.8523954044
Cu  Cu6       1.0  0.56884  0.04229  0.04229  1.0000 0.8523954044
H   H1        1.0  0.64190  0.88060  0.06390  1.0000 0.131030102
H   H2        1.0  0.88060  0.06390  0.64190  1.0000 0.131030102
H   H3        1.0  0.06390  0.64190  0.88060  1.0000 0.131030102
H   H4        1.0  0.11940  0.35810  0.93610  1.0000 0.131030102
H   H5        1.0  0.93610  0.11940  0.35810  1.0000 0.131030102
H   H6        1.0  0.35810  0.93610  0.11940  1.0000 0.131030102
H   H7        1.0  0.35810  0.11940  0.93610  1.0000 0.131030102
H   H8        1.0  0.11940  0.93610  0.35810  1.0000 0.131030102
H   H9        1.0  0.93610  0.35810  0.11940  1.0000 0.131030102
H   H10       1.0  0.88060  0.64190  0.06390  1.0000 0.131030102
H   H11       1.0  0.06390  0.88060  0.64190  1.0000 0.131030102
H   H12       1.0  0.64190  0.06390  0.88060  1.0000 0.131030102
H   H13       1.0  0.66270  0.78410  0.06190  1.0000 0.131030102
H   H14       1.0  0.78410  0.06190  0.66270  1.0000 0.131030102
H   H15       1.0  0.06190  0.66270  0.78410  1.0000 0.131030102
H   H16       1.0  0.21590  0.33730  0.93810  1.0000 0.131030102
H   H17       1.0  0.93810  0.21590  0.33730  1.0000 0.131030102
H   H18       1.0  0.33730  0.93810  0.21590  1.0000 0.131030102
H   H19       1.0  0.33730  0.21590  0.93810  1.0000 0.131030102
H   H20       1.0  0.21590  0.93810  0.33730  1.0000 0.131030102
H   H21       1.0  0.93810  0.33730  0.21590  1.0000 0.131030102
H   H22       1.0  0.78410  0.66270  0.06190  1.0000 0.131030102
H   H23       1.0  0.06190  0.78410  0.66270  1.0000 0.131030102
H   H24       1.0  0.66270  0.06190  0.78410  1.0000 0.131030102
H   H25       1.0  0.45720  0.65650  0.92280  1.0000 0.1188801409
H   H26       1.0  0.65650  0.92280  0.45720  1.0000 0.1188801409
H   H27       1.0  0.92280  0.45720  0.65650  1.0000 0.1188801409
H   H28       1.0  0.34350  0.54280  0.07720  1.0000 0.1188801409
H   H29       1.0  0.07720  0.34350  0.54280  1.0000 0.1188801409
H   H30       1.0  0.54280  0.07720  0.34350  1.0000 0.1188801409
H   H31       1.0  0.54280  0.34350  0.07720  1.0000 0.1188801409
H   H32       1.0  0.34350  0.07720  0.54280  1.0000 0.1188801409
H   H33       1.0  0.07720  0.54280  0.34350  1.0000 0.1188801409
H   H34       1.0  0.65650  0.45720  0.92280  1.0000 0.1188801409
H   H35       1.0  0.92280  0.65650  0.45720  1.0000 0.1188801409
H   H36       1.0  0.45720  0.92280  0.65650  1.0000 0.1188801409
H   H37       1.0  0.43990  0.75700  0.92750  1.0000 0.131030102
H   H38       1.0  0.75700  0.92750  0.43990  1.0000 0.131030102
H   H39       1.0  0.92750  0.43990  0.75700  1.0000 0.131030102
H   H40       1.0  0.24300  0.56010  0.07250  1.0000 0.131030102
H   H41       1.0  0.07250  0.24300  0.56010  1.0000 0.131030102
H   H42       1.0  0.56010  0.07250  0.24300  1.0000 0.131030102
H   H43       1.0  0.56010  0.24300  0.07250  1.0000 0.131030102
H   H44       1.0  0.24300  0.07250  0.56010  1.0000 0.131030102
H   H45       1.0  0.07250  0.56010  0.24300  1.0000 0.131030102
H   H46       1.0  0.75700  0.43990  0.92750  1.0000 0.131030102
H   H47       1.0  0.92750  0.75700  0.43990  1.0000 0.131030102
H   H48       1.0  0.43990  0.92750  0.75700  1.0000 0.131030102
H   H49       1.0  0.47930  0.59430  0.99500  1.0000 0.1113272664
H   H50       1.0  0.59430  0.99500  0.47930  1.0000 0.1113272664
H   H51       1.0  0.99500  0.47930  0.59430  1.0000 0.1113272664
H   H52       1.0  0.40570  0.52070  0.00500  1.0000 0.1113272664
H   H53       1.0  0.00500  0.40570  0.52070  1.0000 0.1113272664
H   H54       1.0  0.52070  0.00500  0.40570  1.0000 0.1113272664
H   H55       1.0  0.52070  0.40570  0.00500  1.0000 0.1113272664
H   H56       1.0  0.40570  0.00500  0.52070  1.0000 0.1113272664
H   H57       1.0  0.00500  0.52070  0.40570  1.0000 0.1113272664
H   H58       1.0  0.59430  0.47930  0.99500  1.0000 0.1113272664
H   H59       1.0  0.99500  0.59430  0.47930  1.0000 0.1113272664
H   H60       1.0  0.47930  0.99500  0.59430  1.0000 0.1113272664
H   H61       1.0  0.71335  0.71335  0.91730  1.0000 0.1113272664
H   H62       1.0  0.71335  0.91730  0.71335  1.0000 0.1113272664
H   H63       1.0  0.91730  0.71335  0.71335  1.0000 0.1113272664
H   H64       1.0  0.28665  0.28665  0.08270  1.0000 0.1113272664
H   H65       1.0  0.08270  0.28665  0.28665  1.0000 0.1113272664
H   H66       1.0  0.28665  0.08270  0.28665  1.0000 0.1113272664
H   H67       1.0  0.67500  0.63000  0.89260  1.0000 0.1024584058
H   H68       1.0  0.63000  0.89260  0.67500  1.0000 0.1024584058
H   H69       1.0  0.89260  0.67500  0.63000  1.0000 0.1024584058
H   H70       1.0  0.37000  0.32500  0.10740  1.0000 0.1024584058
H   H71       1.0  0.10740  0.37000  0.32500  1.0000 0.1024584058
H   H72       1.0  0.32500  0.10740  0.37000  1.0000 0.1024584058
H   H73       1.0  0.32500  0.37000  0.10740  1.0000 0.1024584058
H   H74       1.0  0.37000  0.10740  0.32500  1.0000 0.1024584058
H   H75       1.0  0.10740  0.32500  0.37000  1.0000 0.1024584058
H   H76       1.0  0.63000  0.67500  0.89260  1.0000 0.1024584058
H   H77       1.0  0.89260  0.63000  0.67500  1.0000 0.1024584058
H   H78       1.0  0.67500  0.89260  0.63000  1.0000 0.1024584058
C   C1        1.0  0.52314  0.89196  0.99370  1.0000 0.5800691734
C   C2        1.0  0.89196  0.99370  0.52314  1.0000 0.5800691734
C   C3        1.0  0.99370  0.52314  0.89196  1.0000 0.5800691734
C   C4        1.0  0.10804  0.47686  0.00630  1.0000 0.5800691734
C   C5        1.0  0.00630  0.10804  0.47686  1.0000 0.5800691734
C   C6        1.0  0.47686  0.00630  0.10804  1.0000 0.5800691734
C   C7        1.0  0.47686  0.10804  0.00630  1.0000 0.5800691734
C   C8        1.0  0.10804  0.00630  0.47686  1.0000 0.5800691734
C   C9        1.0  0.00630  0.47686  0.10804  1.0000 0.5800691734
C   C10       1.0  0.89196  0.52314  0.99370  1.0000 0.5800691734
C   C11       1.0  0.99370  0.89196  0.52314  1.0000 0.5800691734
C   C12       1.0  0.52314  0.99370  0.89196  1.0000 0.5800691734
C   C13       1.0  0.53941  0.82994  0.99385  1.0000 -0.0478098701
C   C14       1.0  0.82994  0.99385  0.53941  1.0000 -0.0478098701
C   C15       1.0  0.99385  0.53941  0.82994  1.0000 -0.0478098701
C   C16       1.0  0.17006  0.46059  0.00615  1.0000 -0.0478098701
C   C17       1.0  0.00615  0.17006  0.46059  1.0000 -0.0478098701
C   C18       1.0  0.46059  0.00615  0.17006  1.0000 -0.0478098701
C   C19       1.0  0.46059  0.17006  0.00615  1.0000 -0.0478098701
C   C20       1.0  0.17006  0.00615  0.46059  1.0000 -0.0478098701
C   C21       1.0  0.00615  0.46059  0.17006  1.0000 -0.0478098701
C   C22       1.0  0.82994  0.53941  0.99385  1.0000 -0.0478098701
C   C23       1.0  0.99385  0.82994  0.53941  1.0000 -0.0478098701
C   C24       1.0  0.53941  0.99385  0.82994  1.0000 -0.0478098701
C   C25       1.0  0.60408  0.83483  0.03409  1.0000 -0.0916163534
C   C26       1.0  0.83483  0.03409  0.60408  1.0000 -0.0916163534
C   C27       1.0  0.03409  0.60408  0.83483  1.0000 -0.0916163534
C   C28       1.0  0.16517  0.39592  0.96591  1.0000 -0.0916163534
C   C29       1.0  0.96591  0.16517  0.39592  1.0000 -0.0916163534
C   C30       1.0  0.39592  0.96591  0.16517  1.0000 -0.0916163534
C   C31       1.0  0.39592  0.16517  0.96591  1.0000 -0.0916163534
C   C32       1.0  0.16517  0.96591  0.39592  1.0000 -0.0916163534
C   C33       1.0  0.96591  0.39592  0.16517  1.0000 -0.0916163534
C   C34       1.0  0.83483  0.60408  0.03409  1.0000 -0.0916163534
C   C35       1.0  0.03409  0.83483  0.60408  1.0000 -0.0916163534
C   C36       1.0  0.60408  0.03409  0.83483  1.0000 -0.0916163534
C   C37       1.0  0.61691  0.77697  0.03352  1.0000 -0.1414267208
C   C38       1.0  0.77697  0.03352  0.61691  1.0000 -0.1414267208
C   C39       1.0  0.03352  0.61691  0.77697  1.0000 -0.1414267208
C   C40       1.0  0.22303  0.38309  0.96648  1.0000 -0.1414267208
C   C41       1.0  0.96648  0.22303  0.38309  1.0000 -0.1414267208
C   C42       1.0  0.38309  0.96648  0.22303  1.0000 -0.1414267208
C   C43       1.0  0.38309  0.22303  0.96648  1.0000 -0.1414267208
C   C44       1.0  0.22303  0.96648  0.38309  1.0000 -0.1414267208
C   C45       1.0  0.96648  0.38309  0.22303  1.0000 -0.1414267208
C   C46       1.0  0.77697  0.61691  0.03352  1.0000 -0.1414267208
C   C47       1.0  0.03352  0.77697  0.61691  1.0000 -0.1414267208
C   C48       1.0  0.61691  0.03352  0.77697  1.0000 -0.1414267208
C   C49       1.0  0.56270  0.70726  0.99124  1.0000 0.088680483
C   C50       1.0  0.70726  0.99124  0.56270  1.0000 0.088680483
C   C51       1.0  0.99124  0.56270  0.70726  1.0000 0.088680483
C   C52       1.0  0.29274  0.43730  0.00876  1.0000 0.088680483
C   C53       1.0  0.00876  0.29274  0.43730  1.0000 0.088680483
C   C54       1.0  0.43730  0.00876  0.29274  1.0000 0.088680483
C   C55       1.0  0.43730  0.29274  0.00876  1.0000 0.088680483
C   C56       1.0  0.29274  0.00876  0.43730  1.0000 0.088680483
C   C57       1.0  0.00876  0.43730  0.29274  1.0000 0.088680483
C   C58       1.0  0.70726  0.56270  0.99124  1.0000 0.088680483
C   C59       1.0  0.99124  0.70726  0.56270  1.0000 0.088680483
C   C60       1.0  0.56270  0.99124  0.70726  1.0000 0.088680483
C   C61       1.0  0.49586  0.70181  0.95163  1.0000 -0.1606299825
C   C62       1.0  0.70181  0.95163  0.49586  1.0000 -0.1606299825
C   C63       1.0  0.95163  0.49586  0.70181  1.0000 -0.1606299825
C   C64       1.0  0.29819  0.50414  0.04837  1.0000 -0.1606299825
C   C65       1.0  0.04837  0.29819  0.50414  1.0000 -0.1606299825
C   C66       1.0  0.50414  0.04837  0.29819  1.0000 -0.1606299825
C   C67       1.0  0.50414  0.29819  0.04837  1.0000 -0.1606299825
C   C68       1.0  0.29819  0.04837  0.50414  1.0000 -0.1606299825
C   C69       1.0  0.04837  0.50414  0.29819  1.0000 -0.1606299825
C   C70       1.0  0.70181  0.49586  0.95163  1.0000 -0.1606299825
C   C71       1.0  0.95163  0.70181  0.49586  1.0000 -0.1606299825
C   C72       1.0  0.49586  0.95163  0.70181  1.0000 -0.1606299825
C   C73       1.0  0.48585  0.76283  0.95432  1.0000 -0.0950476339
C   C74       1.0  0.76283  0.95432  0.48585  1.0000 -0.0950476339
C   C75       1.0  0.95432  0.48585  0.76283  1.0000 -0.0950476339
C   C76       1.0  0.23717  0.51415  0.04568  1.0000 -0.0950476339
C   C77       1.0  0.04568  0.23717  0.51415  1.0000 -0.0950476339
C   C78       1.0  0.51415  0.04568  0.23717  1.0000 -0.0950476339
C   C79       1.0  0.51415  0.23717  0.04568  1.0000 -0.0950476339
C   C80       1.0  0.23717  0.04568  0.51415  1.0000 -0.0950476339
C   C81       1.0  0.04568  0.51415  0.23717  1.0000 -0.0950476339
C   C82       1.0  0.76283  0.48585  0.95432  1.0000 -0.0950476339
C   C83       1.0  0.95432  0.76283  0.48585  1.0000 -0.0950476339
C   C84       1.0  0.48585  0.95432  0.76283  1.0000 -0.0950476339
C   C85       1.0  0.57484  0.64406  0.99280  1.0000 -0.020478988
C   C86       1.0  0.64406  0.99280  0.57484  1.0000 -0.020478988
C   C87       1.0  0.99280  0.57484  0.64406  1.0000 -0.020478988
C   C88       1.0  0.35594  0.42516  0.00720  1.0000 -0.020478988
C   C89       1.0  0.00720  0.35594  0.42516  1.0000 -0.020478988
C   C90       1.0  0.42516  0.00720  0.35594  1.0000 -0.020478988
C   C91       1.0  0.42516  0.35594  0.00720  1.0000 -0.020478988
C   C92       1.0  0.35594  0.00720  0.42516  1.0000 -0.020478988
C   C93       1.0  0.00720  0.42516  0.35594  1.0000 -0.020478988
C   C94       1.0  0.64406  0.57484  0.99280  1.0000 -0.020478988
C   C95       1.0  0.99280  0.64406  0.57484  1.0000 -0.020478988
C   C96       1.0  0.57484  0.99280  0.64406  1.0000 -0.020478988
C   C97       1.0  0.52040  0.58893  0.99467  1.0000 -0.2054865693
C   C98       1.0  0.58893  0.99467  0.52040  1.0000 -0.2054865693
C   C99       1.0  0.99467  0.52040  0.58893  1.0000 -0.2041398247
C   C100      1.0  0.41107  0.47960  0.00533  1.0000 -0.2041398247
C   C101      1.0  0.00533  0.41107  0.47960  1.0000 -0.2041398247
C   C102      1.0  0.47960  0.00533  0.41107  1.0000 -0.2041398247
C   C103      1.0  0.47960  0.41107  0.00533  1.0000 -0.2041398247
C   C104      1.0  0.41107  0.00533  0.47960  1.0000 -0.2041398247
C   C105      1.0  0.00533  0.47960  0.41107  1.0000 -0.2054865693
C   C106      1.0  0.58893  0.52040  0.99467  1.0000 -0.2041398247
C   C107      1.0  0.99467  0.58893  0.52040  1.0000 -0.2041398247
C   C108      1.0  0.52040  0.99467  0.58893  1.0000 -0.2054865693
C   C109      1.0  0.52677  0.52677  0.99616  1.0000 0.0713316838
C   C110      1.0  0.52677  0.99616  0.52677  1.0000 0.0713316838
C   C111      1.0  0.99616  0.52677  0.52677  1.0000 0.0713316838
C   C112      1.0  0.47323  0.47323  0.00384  1.0000 0.0713316838
C   C113      1.0  0.00384  0.47323  0.47323  1.0000 0.0713316838
C   C114      1.0  0.47323  0.00384  0.47323  1.0000 0.0713316838
C   C115      1.0  0.63200  0.63200  0.98760  1.0000 0.1188801409
C   C116      1.0  0.63200  0.98760  0.63200  1.0000 0.1188801409
C   C117      1.0  0.98760  0.63200  0.63200  1.0000 0.1188801409
C   C118      1.0  0.36800  0.36800  0.01240  1.0000 0.1188801409
C   C119      1.0  0.01240  0.36800  0.36800  1.0000 0.1188801409
C   C120      1.0  0.36800  0.01240  0.36800  1.0000 0.1188801409
C   C121      1.0  0.67555  0.67555  0.91700  1.0000 -0.2178623414
C   C122      1.0  0.67555  0.91700  0.67555  1.0000 -0.2178623414
C   C123      1.0  0.91700  0.67555  0.67555  1.0000 -0.2178623414
C   C124      1.0  0.32445  0.32445  0.08300  1.0000 -0.2178623414
C   C125      1.0  0.08300  0.32445  0.32445  1.0000 -0.2178623414
C   C126      1.0  0.32445  0.08300  0.32445  1.0000 -0.2178623414
O   O1        1.0  0.45981  0.88028  0.95924  1.0000 -0.4937586645
O   O2        1.0  0.88028  0.95924  0.45981  1.0000 -0.4937586645
O   O3        1.0  0.95924  0.45981  0.88028  1.0000 -0.4937586645
O   O4        1.0  0.11972  0.54019  0.04076  1.0000 -0.4937586645
O   O5        1.0  0.04076  0.11972  0.54019  1.0000 -0.4937586645
O   O6        1.0  0.54019  0.04076  0.11972  1.0000 -0.4937586645
O   O7        1.0  0.54019  0.11972  0.04076  1.0000 -0.4937586645
O   O8        1.0  0.11972  0.04076  0.54019  1.0000 -0.4937586645
O   O9        1.0  0.04076  0.54019  0.11972  1.0000 -0.4937586645
O   O10       1.0  0.88028  0.45981  0.95924  1.0000 -0.4937586645
O   O11       1.0  0.95924  0.88028  0.45981  1.0000 -0.4937586645
O   O12       1.0  0.45981  0.95924  0.88028  1.0000 -0.4937586645
O   O13       1.0  0.57689  0.95213  0.03083  1.0000 -0.5039942289
O   O14       1.0  0.95213  0.03083  0.57689  1.0000 -0.5039942289
O   O15       1.0  0.03083  0.57689  0.95213  1.0000 -0.5039942289
O   O16       1.0  0.04787  0.42311  0.96917  1.0000 -0.5050679555
O   O17       1.0  0.96917  0.04787  0.42311  1.0000 -0.5050679555
O   O18       1.0  0.42311  0.96917  0.04787  1.0000 -0.5050679555
O   O19       1.0  0.42311  0.04787  0.96917  1.0000 -0.5039942289
O   O20       1.0  0.04787  0.96917  0.42311  1.0000 -0.5050679555
O   O21       1.0  0.96917  0.42311  0.04787  1.0000 -0.5039942289
O   O22       1.0  0.95213  0.57689  0.03083  1.0000 -0.5050679555
O   O23       1.0  0.03083  0.95213  0.57689  1.0000 -0.5039942289
O   O24       1.0  0.57689  0.03083  0.95213  1.0000 -0.5039942289
O   O25       1.0  0.68786  0.68786  0.98808  1.0000 -0.2054865693
O   O26       1.0  0.68786  0.98808  0.68786  1.0000 -0.2054865693
O   O27       1.0  0.98808  0.68786  0.68786  1.0000 -0.2054865693
O   O28       1.0  0.31214  0.31214  0.01192  1.0000 -0.2054865693
O   O29       1.0  0.01192  0.31214  0.31214  1.0000 -0.2054865693
O   O30       1.0  0.31214  0.01192  0.31214  1.0000 -0.2054865693
