# DDEC6 charges by PACMAN v1.1 (https://github.com/mtap-research/PACMAN-charge/)
data_2016[Cd][nan]3[ASR]24
_chemical_formula_sum              "Cd2 H56 C42 N12 O12"
_cell_length_a       15.3698
_cell_length_b       15.3698
_cell_length_c       18.323
_cell_angle_alpha    62.2614
_cell_angle_beta     117.739
_cell_angle_gamma    161.808

_symmetry_space_group_name_H-M    "P 1"
_symmetry_Int_Tables_number       1

loop_
  _symmetry_equiv_pos_as_xyz
  'x, y, z'

loop_
  _atom_site_type_symbol
  _atom_site_label
  _atom_site_symmetry_multiplicity
  _atom_site_fract_x
  _atom_site_fract_y
  _atom_site_fract_z
  _atom_site_occupancy
  _atom_site_charge
Cd  Cd1       1.0  0.46062  0.97938  0.91387  1.0000 1.0681631539
Cd  Cd2       1.0  0.97938  0.46062  0.08613  1.0000 1.0681631539
H   H1        1.0  0.17320  0.92560  0.86360  1.0000 0.1088228644
H   H2        1.0  0.92560  0.17320  0.13640  1.0000 0.1088228644
H   H3        1.0  0.94520  0.73760  0.95820  1.0000 0.1088228644
H   H4        1.0  0.73760  0.94520  0.04180  1.0000 0.1088228644
H   H5        1.0  0.65640  0.48080  0.90640  1.0000 0.1088228644
H   H6        1.0  0.48080  0.65640  0.09360  1.0000 0.1088228644
H   H7        1.0  0.10720  0.03740  0.85990  1.0000 0.1003224302
H   H8        1.0  0.03740  0.10720  0.14010  1.0000 0.1003224302
H   H9        1.0  0.81400  0.78340  0.88010  1.0000 0.0944182052
H   H10       1.0  0.78340  0.81400  0.11990  1.0000 0.0944182052
H   H11       1.0  0.85490  0.80910  0.66940  1.0000 0.1003224302
H   H12       1.0  0.80910  0.85490  0.33060  1.0000 0.1003224302
H   H13       1.0  0.12930  0.04590  0.72880  1.0000 0.1003224302
H   H14       1.0  0.04590  0.12930  0.27120  1.0000 0.1003224302
H   H15       1.0  0.94550  0.72290  0.74200  1.0000 0.1088228644
H   H16       1.0  0.72290  0.94550  0.25800  1.0000 0.1088228644
H   H17       1.0  0.65930  0.47770  0.76470  1.0000 0.1088228644
H   H18       1.0  0.47770  0.65930  0.23530  1.0000 0.1088228644
H   H19       1.0  0.87610  0.12210  0.36780  1.0000 0.1088228644
H   H20       1.0  0.12210  0.87610  0.63220  1.0000 0.1088228644
H   H21       1.0  0.10350  0.46830  0.42470  1.0000 0.1003224302
H   H22       1.0  0.46830  0.10350  0.57530  1.0000 0.1003224302
H   H23       1.0  0.78680  0.16520  0.39750  1.0000 0.1088228644
H   H24       1.0  0.16520  0.78680  0.60250  1.0000 0.1088228644
H   H25       1.0  0.73980  0.96920  0.51420  1.0000 0.1003224302
H   H26       1.0  0.96920  0.73980  0.48580  1.0000 0.1003224302
H   H27       1.0  0.87770  0.17070  0.54580  1.0000 0.1003224302
H   H28       1.0  0.17070  0.87770  0.45420  1.0000 0.1003224302
H   H29       1.0  0.40070  0.47450  0.53590  1.0000 0.0944182052
H   H30       1.0  0.47450  0.40070  0.46410  1.0000 0.0944182052
H   H31       1.0  0.08550  0.16790  0.51000  1.0000 0.1003224302
H   H32       1.0  0.16790  0.08550  0.49000  1.0000 0.1003224302
H   H33       1.0  0.30380  0.45380  0.38950  1.0000 0.1088228644
H   H34       1.0  0.45380  0.30380  0.61050  1.0000 0.1088228644
H   H35       1.0  0.44250  0.65870  0.41750  1.0000 0.0944182052
H   H36       1.0  0.65870  0.44250  0.58250  1.0000 0.0944182052
H   H37       1.0  0.81440  0.11360  0.90010  1.0000 0.1088228644
H   H38       1.0  0.11360  0.81440  0.09990  1.0000 0.1088228644
H   H39       1.0  0.38070  0.62670  0.88750  1.0000 0.1003224302
H   H40       1.0  0.62670  0.38070  0.11250  1.0000 0.1003224302
H   H41       1.0  0.21700  0.41440  0.96610  1.0000 0.1088228644
H   H42       1.0  0.41440  0.21700  0.03390  1.0000 0.1088228644
H   H43       1.0  0.00090  0.11730  0.91280  1.0000 0.1003224302
H   H44       1.0  0.11730  0.00090  0.08720  1.0000 0.1003224302
H   H45       1.0  0.31890  0.41590  0.89930  1.0000 0.1003224302
H   H46       1.0  0.41590  0.31890  0.10070  1.0000 0.1003224302
H   H47       1.0  0.83030  0.12530  0.70080  1.0000 0.1003224302
H   H48       1.0  0.12530  0.83030  0.29920  1.0000 0.1003224302
H   H49       1.0  0.68170  0.93130  0.78330  1.0000 0.1088228644
H   H50       1.0  0.93130  0.68170  0.21670  1.0000 0.1088228644
H   H51       1.0  0.06700  0.45020  0.74700  1.0000 0.1088228644
H   H52       1.0  0.45020  0.06700  0.25300  1.0000 0.1088228644
H   H53       1.0  0.74900  0.15720  0.75790  1.0000 0.1088228644
H   H54       1.0  0.15720  0.74900  0.24210  1.0000 0.1088228644
H   H55       1.0  0.32700  0.74540  0.30360  1.0000 0.3319881533
H   H56       1.0  0.74540  0.32700  0.69640  1.0000 0.3319881533
C   C1        1.0  0.88330  0.54070  0.90770  1.0000 0.5940639947
C   C2        1.0  0.54070  0.88330  0.09230  1.0000 0.5940639947
C   C3        1.0  0.96840  0.72960  0.85990  1.0000 -0.1015735034
C   C4        1.0  0.72960  0.96840  0.14010  1.0000 -0.1015735034
C   C5        1.0  0.85620  0.67980  0.90250  1.0000 -0.2205100457
C   C6        1.0  0.67980  0.85620  0.09750  1.0000 -0.2205100457
C   C7        1.0  0.90800  0.83800  0.85550  1.0000 -0.0897643899
C   C8        1.0  0.83800  0.90800  0.14450  1.0000 -0.0897643899
C   C9        1.0  0.92790  0.84810  0.72690  1.0000 -0.0779722322
C   C10       1.0  0.84810  0.92790  0.27310  1.0000 -0.0779722322
C   C11       1.0  0.85970  0.67430  0.76930  1.0000 -0.2205100457
C   C12       1.0  0.67430  0.85970  0.23070  1.0000 -0.2205100457
C   C13       1.0  0.57130  0.61470  0.73770  1.0000 0.4714661215
C   C14       1.0  0.61470  0.57130  0.26230  1.0000 0.4714661215
C   C15       1.0  0.25070  0.39930  0.62900  1.0000 0.4587706674
C   C16       1.0  0.39930  0.25070  0.37100  1.0000 0.4587706674
C   C17       1.0  0.22360  0.37440  0.75000  1.0000 0.4587706674
C   C18       1.0  0.37440  0.22360  0.25000  1.0000 0.4587706674
C   C19       1.0  0.09040  0.44160  0.28740  1.0000 0.5446266506
C   C20       1.0  0.44160  0.09040  0.71260  1.0000 0.5446266506
C   C21       1.0  0.03700  0.31100  0.37360  1.0000 -0.1209140893
C   C22       1.0  0.31100  0.03700  0.62640  1.0000 -0.1209140893
C   C23       1.0  0.95630  0.28570  0.42400  1.0000 -0.229409126
C   C24       1.0  0.28570  0.95630  0.57600  1.0000 -0.229409126
C   C25       1.0  0.90640  0.16360  0.51390  1.0000 -0.0680521603
C   C26       1.0  0.16360  0.90640  0.48610  1.0000 -0.0680521603
C   C27       1.0  0.22870  0.34930  0.50830  1.0000 -0.0897643899
C   C28       1.0  0.34930  0.22870  0.49170  1.0000 -0.0897643899
C   C29       1.0  0.27440  0.46360  0.41860  1.0000 -0.229409126
C   C30       1.0  0.46360  0.27440  0.58140  1.0000 -0.229409126
C   C31       1.0  0.06480  0.46520  0.88310  1.0000 0.5836600337
C   C32       1.0  0.46520  0.06480  0.11690  1.0000 0.5836600337
C   C33       1.0  0.98360  0.30040  0.87150  1.0000 -0.1117879532
C   C34       1.0  0.30040  0.98360  0.12850  1.0000 -0.1117879532
C   C35       1.0  0.20280  0.42920  0.90630  1.0000 -0.229409126
C   C36       1.0  0.42920  0.20280  0.09370  1.0000 -0.229409126
C   C37       1.0  0.15200  0.30000  0.88300  1.0000 -0.0897643899
C   C38       1.0  0.30000  0.15200  0.11700  1.0000 -0.0897643899
C   C39       1.0  0.85240  0.12360  0.76000  1.0000 -0.0779722322
C   C40       1.0  0.12360  0.85240  0.24000  1.0000 -0.0779722322
C   C41       1.0  0.91230  0.26770  0.77730  1.0000 -0.2102521609
C   C42       1.0  0.26770  0.91230  0.22270  1.0000 -0.2102521609
N   N1        1.0  0.80620  0.78180  0.76800  1.0000 -0.0897643899
N   N2        1.0  0.78180  0.80620  0.23200  1.0000 -0.0897643899
N   N3        1.0  0.47140  0.54260  0.65940  1.0000 -0.6021168258
N   N4        1.0  0.54260  0.47140  0.34060  1.0000 -0.6021168258
N   N5        1.0  0.13260  0.32540  0.66930  1.0000 -0.5149457481
N   N6        1.0  0.32540  0.13260  0.33070  1.0000 -0.5149457481
N   N7        1.0  0.44630  0.52570  0.78690  1.0000 -0.5749182131
N   N8        1.0  0.52570  0.44630  0.21310  1.0000 -0.5749182131
N   N9        1.0  0.14530  0.32270  0.55080  1.0000 -0.1117879532
N   N10       1.0  0.32270  0.14530  0.44920  1.0000 -0.1117879532
N   N11       1.0  0.08310  0.27290  0.79650  1.0000 -0.1015735034
N   N12       1.0  0.27290  0.08310  0.20350  1.0000 -0.1015735034
O   O1        1.0  0.64930  0.29870  0.89820  1.0000 -0.487660053
O   O2        1.0  0.29870  0.64930  0.10180  1.0000 -0.487660053
O   O3        1.0  0.07870  0.66530  0.95740  1.0000 -0.6225385692
O   O4        1.0  0.66530  0.07870  0.04260  1.0000 -0.6225385692
O   O5        1.0  0.33790  0.71410  0.28770  1.0000 -0.44407815
O   O6        1.0  0.71410  0.33790  0.71230  1.0000 -0.44407815
O   O7        1.0  0.94200  0.32200  0.22660  1.0000 -0.4662519719
O   O8        1.0  0.32200  0.94200  0.77340  1.0000 -0.4662519719
O   O9        1.0  0.89400  0.37400  0.86300  1.0000 -0.5807644155
O   O10       1.0  0.37400  0.89400  0.13700  1.0000 -0.5807644155
O   O11       1.0  0.30890  0.70110  0.90970  1.0000 -0.5495432641
O   O12       1.0  0.70110  0.30890  0.09030  1.0000 -0.5495432641
