# DDEC6 charges by PACMAN v1.1 (https://github.com/mtap-research/PACMAN-charge/)
data_2016[Cu][nbo]3[ASR]32
_chemical_formula_sum              "Cu6 H90 C132 O30"
_cell_length_a       21.614
_cell_length_b       21.614
_cell_length_c       21.614
_cell_angle_alpha    108.741
_cell_angle_beta     108.741
_cell_angle_gamma    108.741

_symmetry_space_group_name_H-M    "P 1"
_symmetry_Int_Tables_number       1

loop_
  _symmetry_equiv_pos_as_xyz
  'x, y, z'

loop_
  _atom_site_type_symbol
  _atom_site_label
  _atom_site_symmetry_multiplicity
  _atom_site_fract_x
  _atom_site_fract_y
  _atom_site_fract_z
  _atom_site_occupancy
  _atom_site_charge
Cu  Cu1       1.0  0.45361  0.45361  0.92940  1.0000 0.8597434256
Cu  Cu2       1.0  0.45361  0.92940  0.45361  1.0000 0.8597434256
Cu  Cu3       1.0  0.92940  0.45361  0.45361  1.0000 0.8597434256
Cu  Cu4       1.0  0.54639  0.54639  0.07060  1.0000 0.8597434256
Cu  Cu5       1.0  0.07060  0.54639  0.54639  1.0000 0.8597434256
Cu  Cu6       1.0  0.54639  0.07060  0.54639  1.0000 0.8597434256
H   H1        1.0  0.38820  0.56390  0.14900  1.0000 0.1281851242
H   H2        1.0  0.56390  0.14900  0.38820  1.0000 0.1281851242
H   H3        1.0  0.14900  0.38820  0.56390  1.0000 0.1281851242
H   H4        1.0  0.43610  0.61180  0.85100  1.0000 0.1281851242
H   H5        1.0  0.85100  0.43610  0.61180  1.0000 0.1281851242
H   H6        1.0  0.61180  0.85100  0.43610  1.0000 0.1281851242
H   H7        1.0  0.61180  0.43610  0.85100  1.0000 0.1281851242
H   H8        1.0  0.43610  0.85100  0.61180  1.0000 0.1281851242
H   H9        1.0  0.85100  0.61180  0.43610  1.0000 0.1281851242
H   H10       1.0  0.56390  0.38820  0.14900  1.0000 0.1281851242
H   H11       1.0  0.14900  0.56390  0.38820  1.0000 0.1281851242
H   H12       1.0  0.38820  0.14900  0.56390  1.0000 0.1281851242
H   H13       1.0  0.28950  0.56000  0.16940  1.0000 0.1281851242
H   H14       1.0  0.56000  0.16940  0.28950  1.0000 0.1281851242
H   H15       1.0  0.16940  0.28950  0.56000  1.0000 0.1281851242
H   H16       1.0  0.44000  0.71050  0.83060  1.0000 0.1281851242
H   H17       1.0  0.83060  0.44000  0.71050  1.0000 0.1281851242
H   H18       1.0  0.71050  0.83060  0.44000  1.0000 0.1281851242
H   H19       1.0  0.71050  0.44000  0.83060  1.0000 0.1281851242
H   H20       1.0  0.44000  0.83060  0.71050  1.0000 0.1281851242
H   H21       1.0  0.83060  0.71050  0.44000  1.0000 0.1281851242
H   H22       1.0  0.56000  0.28950  0.16940  1.0000 0.1281851242
H   H23       1.0  0.16940  0.56000  0.28950  1.0000 0.1281851242
H   H24       1.0  0.28950  0.16940  0.56000  1.0000 0.1281851242
H   H25       1.0  0.14920  0.41820  0.95470  1.0000 0.115755445
H   H26       1.0  0.41820  0.95470  0.14920  1.0000 0.115755445
H   H27       1.0  0.95470  0.14920  0.41820  1.0000 0.115755445
H   H28       1.0  0.58180  0.85080  0.04530  1.0000 0.115755445
H   H29       1.0  0.04530  0.58180  0.85080  1.0000 0.115755445
H   H30       1.0  0.85080  0.04530  0.58180  1.0000 0.115755445
H   H31       1.0  0.85080  0.58180  0.04530  1.0000 0.115755445
H   H32       1.0  0.58180  0.04530  0.85080  1.0000 0.115755445
H   H33       1.0  0.04530  0.85080  0.58180  1.0000 0.115755445
H   H34       1.0  0.41820  0.14920  0.95470  1.0000 0.115755445
H   H35       1.0  0.95470  0.41820  0.14920  1.0000 0.115755445
H   H36       1.0  0.14920  0.95470  0.41820  1.0000 0.115755445
H   H37       1.0  0.24880  0.42190  0.93450  1.0000 0.1281851242
H   H38       1.0  0.42190  0.93450  0.24880  1.0000 0.1281851242
H   H39       1.0  0.93450  0.24880  0.42190  1.0000 0.1281851242
H   H40       1.0  0.57810  0.75120  0.06550  1.0000 0.1281851242
H   H41       1.0  0.06550  0.57810  0.75120  1.0000 0.1281851242
H   H42       1.0  0.75120  0.06550  0.57810  1.0000 0.1281851242
H   H43       1.0  0.75120  0.57810  0.06550  1.0000 0.1281851242
H   H44       1.0  0.57810  0.06550  0.75120  1.0000 0.1281851242
H   H45       1.0  0.06550  0.75120  0.57810  1.0000 0.1281851242
H   H46       1.0  0.42190  0.24880  0.93450  1.0000 0.1281851242
H   H47       1.0  0.93450  0.42190  0.24880  1.0000 0.1281851242
H   H48       1.0  0.24880  0.93450  0.42190  1.0000 0.1281851242
H   H49       1.0  0.09570  0.49670  0.98220  1.0000 0.1107504801
H   H50       1.0  0.49670  0.98220  0.09570  1.0000 0.1107504801
H   H51       1.0  0.98220  0.09570  0.49670  1.0000 0.1107504801
H   H52       1.0  0.50330  0.90430  0.01780  1.0000 0.1107504801
H   H53       1.0  0.01780  0.50330  0.90430  1.0000 0.1107504801
H   H54       1.0  0.90430  0.01780  0.50330  1.0000 0.1107504801
H   H55       1.0  0.90430  0.50330  0.01780  1.0000 0.1107504801
H   H56       1.0  0.50330  0.01780  0.90430  1.0000 0.1107504801
H   H57       1.0  0.01780  0.90430  0.50330  1.0000 0.1107504801
H   H58       1.0  0.49670  0.09570  0.98220  1.0000 0.1107504801
H   H59       1.0  0.98220  0.49670  0.09570  1.0000 0.1107504801
H   H60       1.0  0.09570  0.98220  0.49670  1.0000 0.1107504801
H   H61       1.0  0.13150  0.38840  0.17620  1.0000 0.0821013127
H   H62       1.0  0.38840  0.17620  0.13150  1.0000 0.0821013127
H   H63       1.0  0.17620  0.13150  0.38840  1.0000 0.0821013127
H   H64       1.0  0.61160  0.86850  0.82380  1.0000 0.0821013127
H   H65       1.0  0.82380  0.61160  0.86850  1.0000 0.0821013127
H   H66       1.0  0.86850  0.82380  0.61160  1.0000 0.0821013127
H   H67       1.0  0.86850  0.61160  0.82380  1.0000 0.0821013127
H   H68       1.0  0.61160  0.82380  0.86850  1.0000 0.0821013127
H   H69       1.0  0.82380  0.86850  0.61160  1.0000 0.0821013127
H   H70       1.0  0.38840  0.13150  0.17620  1.0000 0.0821013127
H   H71       1.0  0.17620  0.38840  0.13150  1.0000 0.0821013127
H   H72       1.0  0.13150  0.17620  0.38840  1.0000 0.0821013127
H   H73       1.0  0.22740  0.36910  0.22740  1.0000 0.1107504801
H   H74       1.0  0.36910  0.22740  0.22740  1.0000 0.1107504801
H   H75       1.0  0.22740  0.22740  0.36910  1.0000 0.1107504801
H   H76       1.0  0.63090  0.77260  0.77260  1.0000 0.1107504801
H   H77       1.0  0.77260  0.63090  0.77260  1.0000 0.1107504801
H   H78       1.0  0.77260  0.77260  0.63090  1.0000 0.1107504801
H   H79       1.0  0.23840  0.44430  0.28310  1.0000 0.1107504801
H   H80       1.0  0.44430  0.28310  0.23840  1.0000 0.1107504801
H   H81       1.0  0.28310  0.23840  0.44430  1.0000 0.1107504801
H   H82       1.0  0.55570  0.76160  0.71690  1.0000 0.1107504801
H   H83       1.0  0.71690  0.55570  0.76160  1.0000 0.1107504801
H   H84       1.0  0.76160  0.71690  0.55570  1.0000 0.1107504801
H   H85       1.0  0.76160  0.55570  0.71690  1.0000 0.1107504801
H   H86       1.0  0.55570  0.71690  0.76160  1.0000 0.1107504801
H   H87       1.0  0.71690  0.76160  0.55570  1.0000 0.1107504801
H   H88       1.0  0.44430  0.23840  0.28310  1.0000 0.1107504801
H   H89       1.0  0.28310  0.44430  0.23840  1.0000 0.1107504801
H   H90       1.0  0.23840  0.28310  0.44430  1.0000 0.1107504801
C   C1        1.0  0.39376  0.49554  0.02562  1.0000 0.5799922539
C   C2        1.0  0.49554  0.02562  0.39376  1.0000 0.5799922539
C   C3        1.0  0.02562  0.39376  0.49554  1.0000 0.5799922539
C   C4        1.0  0.50446  0.60624  0.97438  1.0000 0.5799922539
C   C5        1.0  0.97438  0.50446  0.60624  1.0000 0.5799922539
C   C6        1.0  0.60624  0.97438  0.50446  1.0000 0.5799922539
C   C7        1.0  0.60624  0.50446  0.97438  1.0000 0.5799922539
C   C8        1.0  0.50446  0.97438  0.60624  1.0000 0.5799922539
C   C9        1.0  0.97438  0.60624  0.50446  1.0000 0.5799922539
C   C10       1.0  0.49554  0.39376  0.02562  1.0000 0.5799922539
C   C11       1.0  0.02562  0.49554  0.39376  1.0000 0.5799922539
C   C12       1.0  0.39376  0.02562  0.49554  1.0000 0.5799922539
C   C13       1.0  0.32857  0.49292  0.03925  1.0000 -0.0303923295
C   C14       1.0  0.49292  0.03925  0.32857  1.0000 -0.0303923295
C   C15       1.0  0.03925  0.32857  0.49292  1.0000 -0.0303923295
C   C16       1.0  0.50708  0.67143  0.96075  1.0000 -0.0303923295
C   C17       1.0  0.96075  0.50708  0.67143  1.0000 -0.0303923295
C   C18       1.0  0.67143  0.96075  0.50708  1.0000 -0.0303923295
C   C19       1.0  0.67143  0.50708  0.96075  1.0000 -0.0303923295
C   C20       1.0  0.50708  0.96075  0.67143  1.0000 -0.0303923295
C   C21       1.0  0.96075  0.67143  0.50708  1.0000 -0.0303923295
C   C22       1.0  0.49292  0.32857  0.03925  1.0000 -0.0303923295
C   C23       1.0  0.03925  0.49292  0.32857  1.0000 -0.0303923295
C   C24       1.0  0.32857  0.03925  0.49292  1.0000 -0.0303923295
C   C25       1.0  0.34020  0.53449  0.10965  1.0000 -0.0885960069
C   C26       1.0  0.53449  0.10965  0.34020  1.0000 -0.0885960069
C   C27       1.0  0.10965  0.34020  0.53449  1.0000 -0.0885960069
C   C28       1.0  0.46551  0.65980  0.89035  1.0000 -0.0885960069
C   C29       1.0  0.89035  0.46551  0.65980  1.0000 -0.0885960069
C   C30       1.0  0.65980  0.89035  0.46551  1.0000 -0.0885960069
C   C31       1.0  0.65980  0.46551  0.89035  1.0000 -0.0885960069
C   C32       1.0  0.46551  0.89035  0.65980  1.0000 -0.0885960069
C   C33       1.0  0.89035  0.65980  0.46551  1.0000 -0.0885960069
C   C34       1.0  0.53449  0.34020  0.10965  1.0000 -0.0885960069
C   C35       1.0  0.10965  0.53449  0.34020  1.0000 -0.0885960069
C   C36       1.0  0.34020  0.10965  0.53449  1.0000 -0.0885960069
C   C37       1.0  0.28080  0.53248  0.12162  1.0000 -0.1490540461
C   C38       1.0  0.53248  0.12162  0.28080  1.0000 -0.1490540461
C   C39       1.0  0.12162  0.28080  0.53248  1.0000 -0.1490540461
C   C40       1.0  0.46752  0.71920  0.87838  1.0000 -0.1490540461
C   C41       1.0  0.87838  0.46752  0.71920  1.0000 -0.1490540461
C   C42       1.0  0.71920  0.87838  0.46752  1.0000 -0.1490540461
C   C43       1.0  0.71920  0.46752  0.87838  1.0000 -0.1490540461
C   C44       1.0  0.46752  0.87838  0.71920  1.0000 -0.1490540461
C   C45       1.0  0.87838  0.71920  0.46752  1.0000 -0.1490540461
C   C46       1.0  0.53248  0.28080  0.12162  1.0000 -0.1490540461
C   C47       1.0  0.12162  0.53248  0.28080  1.0000 -0.1490540461
C   C48       1.0  0.28080  0.12162  0.53248  1.0000 -0.1490540461
C   C49       1.0  0.20877  0.49057  0.06447  1.0000 0.086112203
C   C50       1.0  0.49057  0.06447  0.20877  1.0000 0.086112203
C   C51       1.0  0.06447  0.20877  0.49057  1.0000 0.086112203
C   C52       1.0  0.50943  0.79123  0.93553  1.0000 0.086112203
C   C53       1.0  0.93553  0.50943  0.79123  1.0000 0.086112203
C   C54       1.0  0.79123  0.93553  0.50943  1.0000 0.086112203
C   C55       1.0  0.79123  0.50943  0.93553  1.0000 0.086112203
C   C56       1.0  0.50943  0.93553  0.79123  1.0000 0.086112203
C   C57       1.0  0.93553  0.79123  0.50943  1.0000 0.086112203
C   C58       1.0  0.49057  0.20877  0.06447  1.0000 0.086112203
C   C59       1.0  0.06447  0.49057  0.20877  1.0000 0.086112203
C   C60       1.0  0.20877  0.06447  0.49057  1.0000 0.086112203
C   C61       1.0  0.19716  0.44804  0.99393  1.0000 -0.1619514494
C   C62       1.0  0.44804  0.99393  0.19716  1.0000 -0.1619514494
C   C63       1.0  0.99393  0.19716  0.44804  1.0000 -0.1619514494
C   C64       1.0  0.55196  0.80284  0.00607  1.0000 -0.1619514494
C   C65       1.0  0.00607  0.55196  0.80284  1.0000 -0.1619514494
C   C66       1.0  0.80284  0.00607  0.55196  1.0000 -0.1619514494
C   C67       1.0  0.80284  0.55196  0.00607  1.0000 -0.1619514494
C   C68       1.0  0.55196  0.00607  0.80284  1.0000 -0.1619514494
C   C69       1.0  0.00607  0.80284  0.55196  1.0000 -0.1619514494
C   C70       1.0  0.44804  0.19716  0.99393  1.0000 -0.1619514494
C   C71       1.0  0.99393  0.44804  0.19716  1.0000 -0.1619514494
C   C72       1.0  0.19716  0.99393  0.44804  1.0000 -0.1619514494
C   C73       1.0  0.25717  0.45002  0.98198  1.0000 -0.0885960069
C   C74       1.0  0.45002  0.98198  0.25717  1.0000 -0.0885960069
C   C75       1.0  0.98198  0.25717  0.45002  1.0000 -0.0885960069
C   C76       1.0  0.54998  0.74283  0.01802  1.0000 -0.0885960069
C   C77       1.0  0.01802  0.54998  0.74283  1.0000 -0.0885960069
C   C78       1.0  0.74283  0.01802  0.54998  1.0000 -0.0885960069
C   C79       1.0  0.74283  0.54998  0.01802  1.0000 -0.0885960069
C   C80       1.0  0.54998  0.01802  0.74283  1.0000 -0.0885960069
C   C81       1.0  0.01802  0.74283  0.54998  1.0000 -0.0885960069
C   C82       1.0  0.45002  0.25717  0.98198  1.0000 -0.0885960069
C   C83       1.0  0.98198  0.45002  0.25717  1.0000 -0.0885960069
C   C84       1.0  0.25717  0.98198  0.45002  1.0000 -0.0885960069
C   C85       1.0  0.14441  0.49205  0.07527  1.0000 -0.0188675676
C   C86       1.0  0.49205  0.07527  0.14441  1.0000 -0.0188675676
C   C87       1.0  0.07527  0.14441  0.49205  1.0000 -0.0188675676
C   C88       1.0  0.50795  0.85559  0.92473  1.0000 -0.0188675676
C   C89       1.0  0.92473  0.50795  0.85559  1.0000 -0.0188675676
C   C90       1.0  0.85559  0.92473  0.50795  1.0000 -0.0188675676
C   C91       1.0  0.85559  0.50795  0.92473  1.0000 -0.0188675676
C   C92       1.0  0.50795  0.92473  0.85559  1.0000 -0.0188675676
C   C93       1.0  0.92473  0.85559  0.50795  1.0000 -0.0188675676
C   C94       1.0  0.49205  0.14441  0.07527  1.0000 -0.0188675676
C   C95       1.0  0.07527  0.49205  0.14441  1.0000 -0.0188675676
C   C96       1.0  0.14441  0.07527  0.49205  1.0000 -0.0188675676
C   C97       1.0  0.09047  0.49566  0.02291  1.0000 -0.1923201302
C   C98       1.0  0.49566  0.02291  0.09047  1.0000 -0.1923201302
C   C99       1.0  0.02291  0.09047  0.49566  1.0000 -0.1923201302
C   C100      1.0  0.50434  0.90953  0.97709  1.0000 -0.1923201302
C   C101      1.0  0.97709  0.50434  0.90953  1.0000 -0.1923201302
C   C102      1.0  0.90953  0.97709  0.50434  1.0000 -0.1923201302
C   C103      1.0  0.90953  0.50434  0.97709  1.0000 -0.1923201302
C   C104      1.0  0.50434  0.97709  0.90953  1.0000 -0.1923201302
C   C105      1.0  0.97709  0.90953  0.50434  1.0000 -0.1923201302
C   C106      1.0  0.49566  0.09047  0.02291  1.0000 -0.1923201302
C   C107      1.0  0.02291  0.49566  0.09047  1.0000 -0.1923201302
C   C108      1.0  0.09047  0.02291  0.49566  1.0000 -0.1923201302
C   C109      1.0  0.02830  0.49784  0.02830  1.0000 0.0673865048
C   C110      1.0  0.49784  0.02830  0.02830  1.0000 0.0673865048
C   C111      1.0  0.02830  0.02830  0.49784  1.0000 0.0673865048
C   C112      1.0  0.50216  0.97170  0.97170  1.0000 0.0673865048
C   C113      1.0  0.97170  0.50216  0.97170  1.0000 0.0673865048
C   C114      1.0  0.97170  0.97170  0.50216  1.0000 0.0673865048
C   C115      1.0  0.13612  0.48957  0.13612  1.0000 0.1605585111
C   C116      1.0  0.48957  0.13612  0.13612  1.0000 0.1605585111
C   C117      1.0  0.13611  0.13611  0.48957  1.0000 0.1605585111
C   C118      1.0  0.51043  0.86389  0.86389  1.0000 0.1605585111
C   C119      1.0  0.86389  0.51043  0.86389  1.0000 0.1605585111
C   C120      1.0  0.86389  0.86389  0.51043  1.0000 0.1605585111
C   C121      1.0  0.17855  0.41520  0.17855  1.0000 -0.0056725224
C   C122      1.0  0.41520  0.17855  0.17855  1.0000 -0.0041403387
C   C123      1.0  0.17855  0.17855  0.41520  1.0000 -0.0041403387
C   C124      1.0  0.58480  0.82145  0.82145  1.0000 -0.0041403387
C   C125      1.0  0.82145  0.58480  0.82145  1.0000 -0.0041403387
C   C126      1.0  0.82145  0.82145  0.58480  1.0000 -0.0041403387
C   C127      1.0  0.23660  0.41850  0.23660  1.0000 -0.3643355992
C   C128      1.0  0.41850  0.23660  0.23660  1.0000 -0.3643355992
C   C129      1.0  0.23660  0.23660  0.41850  1.0000 -0.3643355992
C   C130      1.0  0.58150  0.76340  0.76340  1.0000 -0.3643355992
C   C131      1.0  0.76340  0.58150  0.76340  1.0000 -0.3643355992
C   C132      1.0  0.76340  0.76340  0.58150  1.0000 -0.3668799606
O   O1        1.0  0.37792  0.45631  0.95961  1.0000 -0.5223282781
O   O2        1.0  0.45631  0.95961  0.37792  1.0000 -0.5223282781
O   O3        1.0  0.95961  0.37792  0.45631  1.0000 -0.5223282781
O   O4        1.0  0.54369  0.62208  0.04039  1.0000 -0.5223282781
O   O5        1.0  0.04039  0.54369  0.62208  1.0000 -0.5223282781
O   O6        1.0  0.62208  0.04039  0.54369  1.0000 -0.5223282781
O   O7        1.0  0.62208  0.54369  0.04039  1.0000 -0.5223282781
O   O8        1.0  0.54369  0.04039  0.62208  1.0000 -0.5223282781
O   O9        1.0  0.04039  0.62208  0.54369  1.0000 -0.5223282781
O   O10       1.0  0.45631  0.37792  0.95961  1.0000 -0.5223282781
O   O11       1.0  0.95961  0.45631  0.37792  1.0000 -0.5223282781
O   O12       1.0  0.37792  0.95961  0.45631  1.0000 -0.5223282781
O   O13       1.0  0.45717  0.53574  0.08017  1.0000 -0.5139300866
O   O14       1.0  0.53574  0.08017  0.45717  1.0000 -0.5139300866
O   O15       1.0  0.08017  0.45717  0.53574  1.0000 -0.5139300866
O   O16       1.0  0.46426  0.54283  0.91983  1.0000 -0.5223282781
O   O17       1.0  0.91983  0.46426  0.54283  1.0000 -0.5139300866
O   O18       1.0  0.54283  0.91983  0.46426  1.0000 -0.5139300866
O   O19       1.0  0.54283  0.46426  0.91983  1.0000 -0.5139300866
O   O20       1.0  0.46426  0.91983  0.54283  1.0000 -0.5139300866
O   O21       1.0  0.91983  0.54283  0.46426  1.0000 -0.5139300866
O   O22       1.0  0.53574  0.45717  0.08017  1.0000 -0.5139300866
O   O23       1.0  0.08017  0.53574  0.45717  1.0000 -0.5139300866
O   O24       1.0  0.45717  0.08017  0.53574  1.0000 -0.5139300866
O   O25       1.0  0.18979  0.48610  0.18979  1.0000 -0.2365898733
O   O26       1.0  0.48610  0.18979  0.18979  1.0000 -0.2343617138
O   O27       1.0  0.18979  0.18979  0.48610  1.0000 -0.2365898733
O   O28       1.0  0.51390  0.81020  0.81020  1.0000 -0.2343617138
O   O29       1.0  0.81020  0.51390  0.81020  1.0000 -0.2365898733
O   O30       1.0  0.81020  0.81020  0.51390  1.0000 -0.2365898733
