# DDEC6 charges by PACMAN v1.1 (https://github.com/mtap-research/PACMAN-charge/)
data_2016[Co][nan]2[ASR]1
_chemical_formula_sum              "Co2 H32 C84 N12 F20"
_cell_length_a       13.3613
_cell_length_b       13.3613
_cell_length_c       14.275
_cell_angle_alpha    79.2585
_cell_angle_beta     100.741
_cell_angle_gamma    115.797

_symmetry_space_group_name_H-M    "P 1"
_symmetry_Int_Tables_number       1

loop_
  _symmetry_equiv_pos_as_xyz
  'x, y, z'

loop_
  _atom_site_type_symbol
  _atom_site_label
  _atom_site_symmetry_multiplicity
  _atom_site_fract_x
  _atom_site_fract_y
  _atom_site_fract_z
  _atom_site_occupancy
  _atom_site_charge
Co  Co1       1.0  0.50000  0.00000  0.50000  1.0000 0.6106729114
Co  Co2       1.0  0.00000  0.50000  0.00000  1.0000 0.6106729114
H   H1        1.0  0.38840  0.65020  0.75080  1.0000 0.1316292439
H   H2        1.0  0.17450  0.91070  0.69110  1.0000 0.1316292439
H   H3        1.0  0.18720  0.08640  0.57640  1.0000 0.1227162832
H   H4        1.0  0.54620  0.64360  0.68210  1.0000 0.1227162832
H   H5        1.0  0.13630  0.64650  0.66020  1.0000 0.1384025716
H   H6        1.0  0.01680  0.54760  0.77440  1.0000 0.0995150411
H   H7        1.0  0.23940  0.69720  0.96790  1.0000 0.0995150411
H   H8        1.0  0.34480  0.83000  0.85250  1.0000 0.1316292439
H   H9        1.0  0.65020  0.38840  0.74920  1.0000 0.1316292439
H   H10       1.0  0.91070  0.17450  0.80890  1.0000 0.1316292439
H   H11       1.0  0.08640  0.18720  0.92360  1.0000 0.1227162832
H   H12       1.0  0.64360  0.54620  0.81790  1.0000 0.1227162832
H   H13       1.0  0.64650  0.13630  0.83980  1.0000 0.1384025716
H   H14       1.0  0.54760  0.01680  0.72560  1.0000 0.0995150411
H   H15       1.0  0.69720  0.23940  0.53210  1.0000 0.0995150411
H   H16       1.0  0.83000  0.34480  0.64750  1.0000 0.1316292439
H   H17       1.0  0.61160  0.34980  0.24920  1.0000 0.1316292439
H   H18       1.0  0.82550  0.08930  0.30890  1.0000 0.1316292439
H   H19       1.0  0.81280  0.91360  0.42360  1.0000 0.1227162832
H   H20       1.0  0.45380  0.35640  0.31790  1.0000 0.1227162832
H   H21       1.0  0.86370  0.35350  0.33980  1.0000 0.1384025716
H   H22       1.0  0.98320  0.45240  0.22560  1.0000 0.0995150411
H   H23       1.0  0.76060  0.30280  0.03210  1.0000 0.0995150411
H   H24       1.0  0.65520  0.17000  0.14750  1.0000 0.1316292439
H   H25       1.0  0.34980  0.61160  0.25080  1.0000 0.1316292439
H   H26       1.0  0.08930  0.82550  0.19110  1.0000 0.1316292439
H   H27       1.0  0.91360  0.81280  0.07640  1.0000 0.1227162832
H   H28       1.0  0.35640  0.45380  0.18210  1.0000 0.1227162832
H   H29       1.0  0.35350  0.86370  0.16020  1.0000 0.1384025716
H   H30       1.0  0.45240  0.98320  0.27440  1.0000 0.0995150411
H   H31       1.0  0.30280  0.76060  0.46790  1.0000 0.0995150411
H   H32       1.0  0.17000  0.65520  0.35250  1.0000 0.1316292439
C   C1        1.0  0.63880  0.83180  0.53910  1.0000 -0.0072535782
C   C2        1.0  0.55430  0.80070  0.59490  1.0000 0.1555989178
C   C3        1.0  0.42950  0.70230  0.70190  1.0000 -0.2156925595
C   C4        1.0  0.41230  0.79490  0.65460  1.0000 0.1694323492
C   C5        1.0  0.32640  0.82480  0.66880  1.0000 -0.0507743007
C   C6        1.0  0.30530  0.91810  0.62230  1.0000 0.1694323492
C   C7        1.0  0.22460  0.94860  0.64400  1.0000 -0.1995625815
C   C8        1.0  0.23260  0.04660  0.58210  1.0000 -0.1995625815
C   C9        1.0  0.32410  0.07270  0.52990  1.0000 0.1947870085
C   C10       1.0  0.51690  0.69870  0.66560  1.0000 -0.1869245863
C   C11       1.0  0.70840  0.75780  0.57390  1.0000 -0.157424955
C   C12       1.0  0.80690  0.79110  0.63660  1.0000 0.1694323492
C   C13       1.0  0.86820  0.72640  0.65720  1.0000 0.0232785286
C   C14       1.0  0.83080  0.62860  0.61530  1.0000 0.1694323492
C   C15       1.0  0.73230  0.59530  0.55260  1.0000 -0.0004075833
C   C16       1.0  0.67100  0.65980  0.53190  1.0000 0.180315336
C   C17       1.0  0.25270  0.75130  0.74270  1.0000 0.108880257
C   C18       1.0  0.15810  0.66630  0.72380  1.0000 -0.2087788367
C   C19       1.0  0.08790  0.60330  0.79460  1.0000 0.0995150411
C   C20       1.0  0.21060  0.69140  0.90210  1.0000 0.0913105958
C   C21       1.0  0.27930  0.76730  0.83310  1.0000 -0.2087788367
C   C22       1.0  0.83180  0.63880  0.96090  1.0000 -0.0072535782
C   C23       1.0  0.80070  0.55430  0.90510  1.0000 0.1555989178
C   C24       1.0  0.70230  0.42950  0.79810  1.0000 -0.2156925595
C   C25       1.0  0.79490  0.41230  0.84540  1.0000 0.1694323492
C   C26       1.0  0.82480  0.32640  0.83120  1.0000 -0.0507743007
C   C27       1.0  0.91810  0.30530  0.87770  1.0000 0.1694323492
C   C28       1.0  0.94860  0.22460  0.85600  1.0000 -0.1995625815
C   C29       1.0  0.04660  0.23260  0.91790  1.0000 -0.1995625815
C   C30       1.0  0.07270  0.32410  0.97010  1.0000 0.1947870085
C   C31       1.0  0.69870  0.51690  0.83440  1.0000 -0.1869245863
C   C32       1.0  0.75780  0.70840  0.92610  1.0000 -0.157424955
C   C33       1.0  0.79110  0.80690  0.86340  1.0000 0.1694323492
C   C34       1.0  0.72640  0.86820  0.84280  1.0000 0.0232785286
C   C35       1.0  0.62860  0.83080  0.88470  1.0000 0.1694323492
C   C36       1.0  0.59530  0.73230  0.94740  1.0000 -0.0004075833
C   C37       1.0  0.65980  0.67100  0.96810  1.0000 0.180315336
C   C38       1.0  0.75130  0.25270  0.75730  1.0000 0.108880257
C   C39       1.0  0.66630  0.15810  0.77620  1.0000 -0.2087788367
C   C40       1.0  0.60330  0.08790  0.70540  1.0000 0.0995150411
C   C41       1.0  0.69140  0.21060  0.59790  1.0000 0.0913105958
C   C42       1.0  0.76730  0.27930  0.66690  1.0000 -0.2087788367
C   C43       1.0  0.36120  0.16820  0.46090  1.0000 -0.0072535782
C   C44       1.0  0.44570  0.19930  0.40510  1.0000 0.1555989178
C   C45       1.0  0.57050  0.29770  0.29810  1.0000 -0.2156925595
C   C46       1.0  0.58770  0.20510  0.34540  1.0000 0.1694323492
C   C47       1.0  0.67360  0.17520  0.33120  1.0000 -0.0507743007
C   C48       1.0  0.69470  0.08190  0.37770  1.0000 0.1694323492
C   C49       1.0  0.77540  0.05140  0.35600  1.0000 -0.1995625815
C   C50       1.0  0.76740  0.95340  0.41790  1.0000 -0.1995625815
C   C51       1.0  0.67590  0.92730  0.47010  1.0000 0.1947870085
C   C52       1.0  0.48310  0.30130  0.33440  1.0000 -0.1869245863
C   C53       1.0  0.29160  0.24220  0.42610  1.0000 -0.157424955
C   C54       1.0  0.19310  0.20890  0.36340  1.0000 0.1694323492
C   C55       1.0  0.13180  0.27360  0.34280  1.0000 0.0232785286
C   C56       1.0  0.16920  0.37140  0.38470  1.0000 0.1694323492
C   C57       1.0  0.26770  0.40470  0.44740  1.0000 -0.0004075833
C   C58       1.0  0.32900  0.34020  0.46810  1.0000 0.180315336
C   C59       1.0  0.74730  0.24870  0.25730  1.0000 0.108880257
C   C60       1.0  0.84190  0.33370  0.27620  1.0000 -0.2087788367
C   C61       1.0  0.91210  0.39670  0.20540  1.0000 0.0995150411
C   C62       1.0  0.78940  0.30860  0.09790  1.0000 0.0913105958
C   C63       1.0  0.72070  0.23270  0.16690  1.0000 -0.2087788367
C   C64       1.0  0.16820  0.36120  0.03910  1.0000 -0.0072535782
C   C65       1.0  0.19930  0.44570  0.09490  1.0000 0.1555989178
C   C66       1.0  0.29770  0.57050  0.20190  1.0000 -0.2156925595
C   C67       1.0  0.20510  0.58770  0.15460  1.0000 0.1694323492
C   C68       1.0  0.17520  0.67360  0.16880  1.0000 -0.0507743007
C   C69       1.0  0.08190  0.69470  0.12230  1.0000 0.1694323492
C   C70       1.0  0.05140  0.77540  0.14400  1.0000 -0.1995625815
C   C71       1.0  0.95340  0.76740  0.08210  1.0000 -0.1995625815
C   C72       1.0  0.92730  0.67590  0.02990  1.0000 0.1947870085
C   C73       1.0  0.30130  0.48310  0.16560  1.0000 -0.1869245863
C   C74       1.0  0.24220  0.29160  0.07390  1.0000 -0.157424955
C   C75       1.0  0.20890  0.19310  0.13660  1.0000 0.1694323492
C   C76       1.0  0.27360  0.13180  0.15720  1.0000 0.0232785286
C   C77       1.0  0.37140  0.16920  0.11530  1.0000 0.1694323492
C   C78       1.0  0.40470  0.26770  0.05260  1.0000 -0.0004075833
C   C79       1.0  0.34020  0.32900  0.03190  1.0000 0.180315336
C   C80       1.0  0.24870  0.74730  0.24270  1.0000 0.108880257
C   C81       1.0  0.33370  0.84190  0.22380  1.0000 -0.2087788367
C   C82       1.0  0.39670  0.91210  0.29460  1.0000 0.0995150411
C   C83       1.0  0.30860  0.78940  0.40210  1.0000 0.0913105958
C   C84       1.0  0.23270  0.72070  0.33310  1.0000 -0.2087788367
N   N1        1.0  0.48760  0.85580  0.59160  1.0000 -0.3609459198
N   N2        1.0  0.36410  0.99450  0.55290  1.0000 -0.3439912892
N   N3        1.0  0.11100  0.61420  0.88220  1.0000 -0.2087788367
N   N4        1.0  0.85580  0.48760  0.90840  1.0000 -0.3609459198
N   N5        1.0  0.99450  0.36410  0.94710  1.0000 -0.3439912892
N   N6        1.0  0.61420  0.11100  0.61780  1.0000 -0.2087788367
N   N7        1.0  0.51240  0.14420  0.40840  1.0000 -0.3609459198
N   N8        1.0  0.63590  0.00550  0.44710  1.0000 -0.3439912892
N   N9        1.0  0.88900  0.38580  0.11780  1.0000 -0.2087788367
N   N10       1.0  0.14420  0.51240  0.09160  1.0000 -0.3609459198
N   N11       1.0  0.00550  0.63590  0.05290  1.0000 -0.3439912892
N   N12       1.0  0.38580  0.88900  0.38220  1.0000 -0.2087788367
F   F1        1.0  0.86120  0.89220  0.66270  1.0000 -0.1069706327
F   F2        1.0  0.96720  0.75880  0.70430  1.0000 -0.0881420619
F   F3        1.0  0.87680  0.56880  0.63340  1.0000 -0.0644124674
F   F4        1.0  0.68830  0.49750  0.51350  1.0000 -0.0991322494
F   F5        1.0  0.57340  0.63240  0.47530  1.0000 -0.1069706327
F   F6        1.0  0.89220  0.86120  0.83730  1.0000 -0.1069706327
F   F7        1.0  0.75880  0.96720  0.79570  1.0000 -0.0881420619
F   F8        1.0  0.56880  0.87680  0.86660  1.0000 -0.0644124674
F   F9        1.0  0.49750  0.68830  0.98650  1.0000 -0.0991322494
F   F10       1.0  0.63240  0.57340  0.02470  1.0000 -0.1069706327
F   F11       1.0  0.13880  0.10780  0.33730  1.0000 -0.1069706327
F   F12       1.0  0.03280  0.24120  0.29570  1.0000 -0.0881420619
F   F13       1.0  0.12320  0.43120  0.36660  1.0000 -0.0644124674
F   F14       1.0  0.31170  0.50250  0.48650  1.0000 -0.0991322494
F   F15       1.0  0.42660  0.36760  0.52470  1.0000 -0.1069706327
F   F16       1.0  0.10780  0.13880  0.16270  1.0000 -0.1069706327
F   F17       1.0  0.24120  0.03280  0.20430  1.0000 -0.0881420619
F   F18       1.0  0.43120  0.12320  0.13340  1.0000 -0.0644124674
F   F19       1.0  0.50250  0.31170  0.01350  1.0000 -0.0991322494
F   F20       1.0  0.36760  0.42660  0.97530  1.0000 -0.1069706327
