# DDEC6 charges by PACMAN v1.1 (https://github.com/mtap-research/PACMAN-charge/)
data_2016[Zn][ths]3[ASR]8
_chemical_formula_sum              "Zn12 H96 C144 I24 N48"
_cell_length_a       19.1104
_cell_length_b       19.1104
_cell_length_c       31.0405
_cell_angle_alpha    79.0897
_cell_angle_beta     100.91
_cell_angle_gamma    134.557

_symmetry_space_group_name_H-M    "P 1"
_symmetry_Int_Tables_number       1

loop_
  _symmetry_equiv_pos_as_xyz
  'x, y, z'

loop_
  _atom_site_type_symbol
  _atom_site_label
  _atom_site_symmetry_multiplicity
  _atom_site_fract_x
  _atom_site_fract_y
  _atom_site_fract_z
  _atom_site_occupancy
  _atom_site_charge
Zn  Zn1       1.0  0.70517  0.54401  0.09557  1.0000 0.4626862593
Zn  Zn2       1.0  0.45599  0.29483  0.59557  1.0000 0.4626862593
Zn  Zn3       1.0  0.77722  0.02972  0.93672  1.0000 0.4626862593
Zn  Zn4       1.0  0.97028  0.22278  0.43672  1.0000 0.4626862593
Zn  Zn5       1.0  0.32136  0.97670  0.77300  1.0000 0.4443320669
Zn  Zn6       1.0  0.02330  0.67864  0.27300  1.0000 0.4443320669
Zn  Zn7       1.0  0.54401  0.70517  0.40443  1.0000 0.4626862593
Zn  Zn8       1.0  0.29483  0.45599  0.90443  1.0000 0.4626862593
Zn  Zn9       1.0  0.02972  0.77722  0.56328  1.0000 0.4626862593
Zn  Zn10      1.0  0.22278  0.97028  0.06328  1.0000 0.4626862593
Zn  Zn11      1.0  0.97670  0.32136  0.72700  1.0000 0.4443320669
Zn  Zn12      1.0  0.67864  0.02330  0.22700  1.0000 0.4443320669
H   H1        1.0  0.64110  0.46530  0.63810  1.0000 0.1016767835
H   H2        1.0  0.53470  0.35890  0.13810  1.0000 0.1016767835
H   H3        1.0  0.62490  0.22770  0.71560  1.0000 0.1305640191
H   H4        1.0  0.77230  0.37510  0.21560  1.0000 0.1305640191
H   H5        1.0  0.42300  0.07520  0.85930  1.0000 0.1093711294
H   H6        1.0  0.92480  0.57700  0.35930  1.0000 0.1093711294
H   H7        1.0  0.76230  0.51190  0.69290  1.0000 0.1305640191
H   H8        1.0  0.48810  0.23770  0.19290  1.0000 0.1305640191
H   H9        1.0  0.50960  0.19140  0.65870  1.0000 0.1093711294
H   H10       1.0  0.80860  0.49040  0.15870  1.0000 0.1093711294
H   H11       1.0  0.11370  0.83950  0.73510  1.0000 0.1016767835
H   H12       1.0  0.16050  0.88630  0.23510  1.0000 0.1016767835
H   H13       1.0  0.24870  0.78310  0.82220  1.0000 0.1093711294
H   H14       1.0  0.21690  0.75130  0.32220  1.0000 0.1093711294
H   H15       1.0  0.95370  0.09830  0.00230  1.0000 0.1093711294
H   H16       1.0  0.90170  0.04630  0.50230  1.0000 0.1093711294
H   H17       1.0  0.52130  0.31070  0.97930  1.0000 0.1392896953
H   H18       1.0  0.68930  0.47870  0.47930  1.0000 0.1392896953
H   H19       1.0  0.71410  0.17090  0.80130  1.0000 0.1305640191
H   H20       1.0  0.82910  0.28590  0.30130  1.0000 0.1305640191
H   H21       1.0  0.16220  0.04700  0.83990  1.0000 0.1392896953
H   H22       1.0  0.95300  0.83780  0.33990  1.0000 0.1392896953
H   H23       1.0  0.94320  0.37340  0.88000  1.0000 0.1392896953
H   H24       1.0  0.62660  0.05680  0.38000  1.0000 0.1392896953
H   H25       1.0  0.69340  0.05200  0.84790  1.0000 0.1093711294
H   H26       1.0  0.94800  0.30660  0.34790  1.0000 0.1093711294
H   H27       1.0  0.36140  0.34300  0.02250  1.0000 0.1392896953
H   H28       1.0  0.65700  0.63860  0.52250  1.0000 0.1392896953
H   H29       1.0  0.91650  0.24750  0.92630  1.0000 0.1093711294
H   H30       1.0  0.75250  0.08350  0.42630  1.0000 0.1093711294
H   H31       1.0  0.97090  0.67790  0.73740  1.0000 0.1392896953
H   H32       1.0  0.32210  0.02910  0.23740  1.0000 0.1392896953
H   H33       1.0  0.49720  0.45980  0.06600  1.0000 0.1093711294
H   H34       1.0  0.54020  0.50280  0.56600  1.0000 0.1093711294
H   H35       1.0  0.41120  0.13900  0.90820  1.0000 0.1305640191
H   H36       1.0  0.86100  0.58880  0.40820  1.0000 0.1305640191
H   H37       1.0  0.10780  0.61940  0.82780  1.0000 0.1392896953
H   H38       1.0  0.38060  0.89220  0.32780  1.0000 0.1392896953
H   H39       1.0  0.18300  0.98820  0.79220  1.0000 0.1016767835
H   H40       1.0  0.01180  0.81700  0.29220  1.0000 0.1016767835
H   H41       1.0  0.65210  0.42550  0.02460  1.0000 0.1093711294
H   H42       1.0  0.57450  0.34790  0.52460  1.0000 0.1093711294
H   H43       1.0  0.09980  0.14320  0.00450  1.0000 0.1392896953
H   H44       1.0  0.85680  0.90020  0.50450  1.0000 0.1392896953
H   H45       1.0  0.89310  0.04430  0.87990  1.0000 0.1093711294
H   H46       1.0  0.95570  0.10690  0.37990  1.0000 0.1093711294
H   H47       1.0  0.04090  0.09050  0.87790  1.0000 0.1392896953
H   H48       1.0  0.90950  0.95910  0.37790  1.0000 0.1392896953
H   H49       1.0  0.46530  0.64110  0.86190  1.0000 0.1016767835
H   H50       1.0  0.35890  0.53470  0.36190  1.0000 0.1016767835
H   H51       1.0  0.22770  0.62490  0.78440  1.0000 0.1305640191
H   H52       1.0  0.37510  0.77230  0.28440  1.0000 0.1305640191
H   H53       1.0  0.07520  0.42300  0.64070  1.0000 0.1093711294
H   H54       1.0  0.57700  0.92480  0.14070  1.0000 0.1093711294
H   H55       1.0  0.51190  0.76230  0.80710  1.0000 0.1305640191
H   H56       1.0  0.23770  0.48810  0.30710  1.0000 0.1305640191
H   H57       1.0  0.19140  0.50960  0.84130  1.0000 0.1093711294
H   H58       1.0  0.49040  0.80860  0.34130  1.0000 0.1093711294
H   H59       1.0  0.83950  0.11370  0.76490  1.0000 0.1016767835
H   H60       1.0  0.88630  0.16050  0.26490  1.0000 0.1016767835
H   H61       1.0  0.78310  0.24870  0.67780  1.0000 0.1093711294
H   H62       1.0  0.75130  0.21690  0.17780  1.0000 0.1093711294
H   H63       1.0  0.09830  0.95370  0.49770  1.0000 0.1093711294
H   H64       1.0  0.04630  0.90170  0.99770  1.0000 0.1093711294
H   H65       1.0  0.31070  0.52130  0.52070  1.0000 0.1392896953
H   H66       1.0  0.47870  0.68930  0.02070  1.0000 0.1392896953
H   H67       1.0  0.17090  0.71410  0.69870  1.0000 0.1305640191
H   H68       1.0  0.28590  0.82910  0.19870  1.0000 0.1305640191
H   H69       1.0  0.04700  0.16220  0.66010  1.0000 0.1392896953
H   H70       1.0  0.83780  0.95300  0.16010  1.0000 0.1392896953
H   H71       1.0  0.37340  0.94320  0.62000  1.0000 0.1392896953
H   H72       1.0  0.05680  0.62660  0.12000  1.0000 0.1392896953
H   H73       1.0  0.05200  0.69340  0.65210  1.0000 0.1093711294
H   H74       1.0  0.30660  0.94800  0.15210  1.0000 0.1093711294
H   H75       1.0  0.34300  0.36140  0.47750  1.0000 0.1392896953
H   H76       1.0  0.63860  0.65700  0.97750  1.0000 0.1392896953
H   H77       1.0  0.24750  0.91650  0.57370  1.0000 0.1093711294
H   H78       1.0  0.08350  0.75250  0.07370  1.0000 0.1093711294
H   H79       1.0  0.67790  0.97090  0.76260  1.0000 0.1392896953
H   H80       1.0  0.02910  0.32210  0.26260  1.0000 0.1392896953
H   H81       1.0  0.45980  0.49720  0.43400  1.0000 0.1093711294
H   H82       1.0  0.50280  0.54020  0.93400  1.0000 0.1093711294
H   H83       1.0  0.13900  0.41120  0.59180  1.0000 0.1305640191
H   H84       1.0  0.58880  0.86100  0.09180  1.0000 0.1305640191
H   H85       1.0  0.61940  0.10780  0.67220  1.0000 0.1392896953
H   H86       1.0  0.89220  0.38060  0.17220  1.0000 0.1392896953
H   H87       1.0  0.98820  0.18300  0.70780  1.0000 0.1016767835
H   H88       1.0  0.81700  0.01180  0.20780  1.0000 0.1016767835
H   H89       1.0  0.42550  0.65210  0.47540  1.0000 0.1093711294
H   H90       1.0  0.34790  0.57450  0.97540  1.0000 0.1093711294
H   H91       1.0  0.14320  0.09980  0.49550  1.0000 0.1392896953
H   H92       1.0  0.90020  0.85680  0.99550  1.0000 0.1392896953
H   H93       1.0  0.04430  0.89310  0.62010  1.0000 0.1093711294
H   H94       1.0  0.10690  0.95570  0.12010  1.0000 0.1093711294
H   H95       1.0  0.09050  0.04090  0.62210  1.0000 0.1392896953
H   H96       1.0  0.95910  0.90950  0.12210  1.0000 0.1392896953
C   C1        1.0  0.42450  0.31110  0.99600  1.0000 0.0709499647
C   C2        1.0  0.68890  0.57550  0.49600  1.0000 0.0709499647
C   C3        1.0  0.63830  0.41710  0.65390  1.0000 0.0887906998
C   C4        1.0  0.58290  0.36170  0.15390  1.0000 0.0887906998
C   C5        1.0  0.83200  0.28540  0.83460  1.0000 0.0508790854
C   C6        1.0  0.71460  0.16800  0.33460  1.0000 0.0508790854
C   C7        1.0  0.70770  0.37570  0.71040  1.0000 0.0627896056
C   C8        1.0  0.62430  0.29230  0.21040  1.0000 0.0627896056
C   C9        1.0  0.78480  0.40340  0.74650  1.0000 0.372205728
C   C10       1.0  0.59660  0.21520  0.24650  1.0000 0.372205728
C   C11       1.0  0.33920  0.23660  0.96650  1.0000 0.3609040976
C   C12       1.0  0.76340  0.66080  0.46650  1.0000 0.3609040976
C   C13       1.0  0.84510  0.36270  0.80390  1.0000 0.372205728
C   C14       1.0  0.63730  0.15490  0.30390  1.0000 0.372205728
C   C15       1.0  0.18080  0.14640  0.94190  1.0000 0.372205728
C   C16       1.0  0.85360  0.81920  0.44190  1.0000 0.372205728
C   C17       1.0  0.62980  0.27740  0.70000  1.0000 -0.1595825441
C   C18       1.0  0.72260  0.37020  0.20000  1.0000 -0.1595825441
C   C19       1.0  0.93090  0.52210  0.78140  1.0000 0.3609040976
C   C20       1.0  0.47790  0.06910  0.28140  1.0000 0.3609040976
C   C21       1.0  0.37030  0.07050  0.85530  1.0000 0.0709499647
C   C22       1.0  0.92950  0.62970  0.35530  1.0000 0.0709499647
C   C23       1.0  0.71160  0.44620  0.68690  1.0000 -0.1421512248
C   C24       1.0  0.55380  0.28840  0.18690  1.0000 -0.1421512248
C   C25       1.0  0.56060  0.25640  0.66590  1.0000 0.0887906998
C   C26       1.0  0.74360  0.43940  0.16590  1.0000 0.0887906998
C   C27       1.0  0.11210  0.79430  0.75390  1.0000 0.0709499647
C   C28       1.0  0.20570  0.88790  0.25390  1.0000 0.0709499647
C   C29       1.0  0.28370  0.10030  0.88060  1.0000 0.0709499647
C   C30       1.0  0.89970  0.71630  0.38060  1.0000 0.0709499647
C   C31       1.0  0.27390  0.14010  0.91210  1.0000 0.3464917801
C   C32       1.0  0.85990  0.72610  0.41210  1.0000 0.3464917801
C   C33       1.0  0.19170  0.76130  0.80530  1.0000 0.0769728205
C   C34       1.0  0.23870  0.80830  0.30530  1.0000 0.0769728205
C   C35       1.0  0.97130  0.09650  0.97690  1.0000 0.0709499647
C   C36       1.0  0.90350  0.02870  0.47690  1.0000 0.0709499647
C   C37       1.0  0.02190  0.62850  0.78280  1.0000 0.0709499647
C   C38       1.0  0.37150  0.97810  0.28280  1.0000 0.0709499647
C   C39       1.0  0.51450  0.33930  0.99710  1.0000 -0.1421512248
C   C40       1.0  0.66070  0.48550  0.49710  1.0000 -0.1421512248
C   C41       1.0  0.08570  0.11790  0.94210  1.0000 0.0709499647
C   C42       1.0  0.88210  0.91430  0.44210  1.0000 0.0627896056
C   C43       1.0  0.75690  0.18830  0.82650  1.0000 -0.1421512248
C   C44       1.0  0.81170  0.24310  0.32650  1.0000 -0.1421512248
C   C45       1.0  0.21630  0.05410  0.84450  1.0000 -0.1421512248
C   C46       1.0  0.94590  0.78370  0.34450  1.0000 -0.1421512248
C   C47       1.0  0.89220  0.30840  0.87290  1.0000 -0.1319630966
C   C48       1.0  0.69160  0.10780  0.37290  1.0000 -0.1319630966
C   C49       1.0  0.74410  0.11730  0.85460  1.0000 0.0769728205
C   C50       1.0  0.88270  0.25590  0.35460  1.0000 0.0709499647
C   C51       1.0  0.41970  0.35850  0.02250  1.0000 -0.1421512248
C   C52       1.0  0.64150  0.58030  0.52250  1.0000 -0.1421512248
C   C53       1.0  0.87530  0.23210  0.90070  1.0000 0.1016767835
C   C54       1.0  0.76790  0.12470  0.40070  1.0000 0.1016767835
C   C55       1.0  0.02650  0.69770  0.75510  1.0000 -0.149139639
C   C56       1.0  0.30230  0.97350  0.25510  1.0000 -0.149139639
C   C57       1.0  0.50130  0.42830  0.04860  1.0000 0.0627896056
C   C58       1.0  0.57170  0.49870  0.54860  1.0000 0.0627896056
C   C59       1.0  0.36320  0.10800  0.88490  1.0000 -0.1319630966
C   C60       1.0  0.89200  0.63680  0.38490  1.0000 -0.1319630966
C   C61       1.0  0.10770  0.66310  0.80850  1.0000 -0.1595825441
C   C62       1.0  0.33690  0.89230  0.30850  1.0000 -0.1595825441
C   C63       1.0  0.22950  0.01910  0.81600  1.0000 0.0709499647
C   C64       1.0  0.98090  0.77050  0.31600  1.0000 0.0769728205
C   C65       1.0  0.59310  0.40870  0.02420  1.0000 0.0769728205
C   C66       1.0  0.59130  0.40690  0.52420  1.0000 0.0769728205
C   C67       1.0  0.05860  0.12240  0.97870  1.0000 -0.149139639
C   C68       1.0  0.87760  0.94140  0.47870  1.0000 -0.149139639
C   C69       1.0  0.93580  0.06520  0.90530  1.0000 0.0887906998
C   C70       1.0  0.93480  0.06420  0.40530  1.0000 0.0887906998
C   C71       1.0  0.02380  0.09120  0.90390  1.0000 -0.1421512248
C   C72       1.0  0.90880  0.97620  0.40390  1.0000 -0.1421512248
C   C73       1.0  0.31110  0.42450  0.50400  1.0000 0.0709499647
C   C74       1.0  0.57550  0.68890  0.00400  1.0000 0.0709499647
C   C75       1.0  0.41710  0.63830  0.84610  1.0000 0.0887906998
C   C76       1.0  0.36170  0.58290  0.34610  1.0000 0.0887906998
C   C77       1.0  0.28540  0.83200  0.66540  1.0000 0.0508790854
C   C78       1.0  0.16800  0.71460  0.16540  1.0000 0.0508790854
C   C79       1.0  0.37570  0.70770  0.78960  1.0000 0.0627896056
C   C80       1.0  0.29230  0.62430  0.28960  1.0000 0.0627896056
C   C81       1.0  0.40340  0.78480  0.75350  1.0000 0.372205728
C   C82       1.0  0.21520  0.59660  0.25350  1.0000 0.372205728
C   C83       1.0  0.23660  0.33920  0.53350  1.0000 0.3609040976
C   C84       1.0  0.66080  0.76340  0.03350  1.0000 0.3609040976
C   C85       1.0  0.36270  0.84510  0.69610  1.0000 0.372205728
C   C86       1.0  0.15490  0.63730  0.19610  1.0000 0.372205728
C   C87       1.0  0.14640  0.18080  0.55810  1.0000 0.372205728
C   C88       1.0  0.81920  0.85360  0.05810  1.0000 0.372205728
C   C89       1.0  0.27740  0.62980  0.80000  1.0000 -0.1595825441
C   C90       1.0  0.37020  0.72260  0.30000  1.0000 -0.1595825441
C   C91       1.0  0.52210  0.93090  0.71860  1.0000 0.3609040976
C   C92       1.0  0.06910  0.47790  0.21860  1.0000 0.3609040976
C   C93       1.0  0.07050  0.37030  0.64470  1.0000 0.0709499647
C   C94       1.0  0.62970  0.92950  0.14470  1.0000 0.0709499647
C   C95       1.0  0.44620  0.71160  0.81310  1.0000 -0.1421512248
C   C96       1.0  0.28840  0.55380  0.31310  1.0000 -0.1421512248
C   C97       1.0  0.25640  0.56060  0.83410  1.0000 0.0887906998
C   C98       1.0  0.43940  0.74360  0.33410  1.0000 0.0887906998
C   C99       1.0  0.79430  0.11210  0.74610  1.0000 0.0709499647
C   C100      1.0  0.88790  0.20570  0.24610  1.0000 0.0709499647
C   C101      1.0  0.10030  0.28370  0.61940  1.0000 0.0709499647
C   C102      1.0  0.71630  0.89970  0.11940  1.0000 0.0709499647
C   C103      1.0  0.14010  0.27390  0.58790  1.0000 0.3464917801
C   C104      1.0  0.72610  0.85990  0.08790  1.0000 0.3464917801
C   C105      1.0  0.76130  0.19170  0.69470  1.0000 0.0769728205
C   C106      1.0  0.80830  0.23870  0.19470  1.0000 0.0769728205
C   C107      1.0  0.09650  0.97130  0.52310  1.0000 0.0709499647
C   C108      1.0  0.02870  0.90350  0.02310  1.0000 0.0709499647
C   C109      1.0  0.62850  0.02190  0.71720  1.0000 0.0709499647
C   C110      1.0  0.97810  0.37150  0.21720  1.0000 0.0709499647
C   C111      1.0  0.33930  0.51450  0.50290  1.0000 -0.1421512248
C   C112      1.0  0.48550  0.66070  0.00290  1.0000 -0.1421512248
C   C113      1.0  0.11790  0.08570  0.55790  1.0000 0.0627896056
C   C114      1.0  0.91430  0.88210  0.05790  1.0000 0.0709499647
C   C115      1.0  0.18830  0.75690  0.67350  1.0000 -0.1421512248
C   C116      1.0  0.24310  0.81170  0.17350  1.0000 -0.1421512248
C   C117      1.0  0.05410  0.21630  0.65550  1.0000 -0.1421512248
C   C118      1.0  0.78370  0.94590  0.15550  1.0000 -0.1421512248
C   C119      1.0  0.30840  0.89220  0.62710  1.0000 -0.1319630966
C   C120      1.0  0.10780  0.69160  0.12710  1.0000 -0.1319630966
C   C121      1.0  0.11730  0.74410  0.64540  1.0000 0.0709499647
C   C122      1.0  0.25590  0.88270  0.14540  1.0000 0.0709499647
C   C123      1.0  0.35850  0.41970  0.47750  1.0000 -0.1421512248
C   C124      1.0  0.58030  0.64150  0.97750  1.0000 -0.1421512248
C   C125      1.0  0.23210  0.87530  0.59930  1.0000 0.1016767835
C   C126      1.0  0.12470  0.76790  0.09930  1.0000 0.1016767835
C   C127      1.0  0.69770  0.02650  0.74490  1.0000 -0.149139639
C   C128      1.0  0.97350  0.30230  0.24490  1.0000 -0.149139639
C   C129      1.0  0.42830  0.50130  0.45140  1.0000 0.0627896056
C   C130      1.0  0.49870  0.57170  0.95140  1.0000 0.0627896056
C   C131      1.0  0.10800  0.36320  0.61510  1.0000 -0.1319630966
C   C132      1.0  0.63680  0.89200  0.11510  1.0000 -0.1319630966
C   C133      1.0  0.66310  0.10770  0.69150  1.0000 -0.1595825441
C   C134      1.0  0.89230  0.33690  0.19150  1.0000 -0.1595825441
C   C135      1.0  0.01910  0.22950  0.68400  1.0000 0.0769728205
C   C136      1.0  0.77050  0.98090  0.18400  1.0000 0.0769728205
C   C137      1.0  0.40870  0.59310  0.47580  1.0000 0.0769728205
C   C138      1.0  0.40690  0.59130  0.97580  1.0000 0.0769728205
C   C139      1.0  0.12240  0.05860  0.52130  1.0000 -0.149139639
C   C140      1.0  0.94140  0.87760  0.02130  1.0000 -0.149139639
C   C141      1.0  0.06520  0.93580  0.59470  1.0000 0.0887906998
C   C142      1.0  0.06420  0.93480  0.09470  1.0000 0.0887906998
C   C143      1.0  0.09120  0.02380  0.59610  1.0000 -0.1421512248
C   C144      1.0  0.97620  0.90880  0.09610  1.0000 -0.1421512248
I   I1        1.0  0.67309  0.62597  0.13271  1.0000 -0.4389263224
I   I2        1.0  0.37403  0.32691  0.63271  1.0000 -0.4389263224
I   I3        1.0  0.47394  0.00562  0.79670  1.0000 -0.4389263224
I   I4        1.0  0.99438  0.52606  0.29670  1.0000 -0.4389263224
I   I5        1.0  0.85847  0.62591  0.06048  1.0000 -0.4389263224
I   I6        1.0  0.37409  0.14153  0.56048  1.0000 -0.4389263224
I   I7        1.0  0.29822  0.04078  0.69743  1.0000 -0.4237378649
I   I8        1.0  0.95922  0.70178  0.19743  1.0000 -0.4268089943
I   I9        1.0  0.64817  0.86857  0.90066  1.0000 -0.454504054
I   I10       1.0  0.13143  0.35183  0.40066  1.0000 -0.454504054
I   I11       1.0  0.76152  0.05618  0.01025  1.0000 -0.4389263224
I   I12       1.0  0.94382  0.23848  0.51025  1.0000 -0.4389263224
I   I13       1.0  0.62597  0.67309  0.36729  1.0000 -0.4389263224
I   I14       1.0  0.32691  0.37403  0.86729  1.0000 -0.4389263224
I   I15       1.0  0.00562  0.47394  0.70330  1.0000 -0.4389263224
I   I16       1.0  0.52606  0.99438  0.20330  1.0000 -0.4389263224
I   I17       1.0  0.62591  0.85847  0.43952  1.0000 -0.4389263224
I   I18       1.0  0.14153  0.37409  0.93952  1.0000 -0.4389263224
I   I19       1.0  0.04078  0.29822  0.80257  1.0000 -0.4268089943
I   I20       1.0  0.70178  0.95922  0.30257  1.0000 -0.4237378649
I   I21       1.0  0.86857  0.64817  0.59934  1.0000 -0.454504054
I   I22       1.0  0.35183  0.13143  0.09934  1.0000 -0.454504054
I   I23       1.0  0.05618  0.76152  0.48975  1.0000 -0.4389263224
I   I24       1.0  0.23848  0.94382  0.98975  1.0000 -0.4389263224
N   N1        1.0  0.19490  0.82730  0.77870  1.0000 -0.1810004947
N   N2        1.0  0.17270  0.80510  0.27870  1.0000 -0.1810004947
N   N3        1.0  0.80210  0.13790  0.89200  1.0000 -0.1810004947
N   N4        1.0  0.86210  0.19790  0.39200  1.0000 -0.1810004947
N   N5        1.0  0.77390  0.33250  0.77160  1.0000 -0.3803385161
N   N6        1.0  0.66750  0.22610  0.27160  1.0000 -0.3803385161
N   N7        1.0  0.86110  0.49970  0.75050  1.0000 -0.3931603369
N   N8        1.0  0.50030  0.13890  0.25050  1.0000 -0.3931603369
N   N9        1.0  0.56370  0.32470  0.64300  1.0000 -0.1810004947
N   N10       1.0  0.67530  0.43630  0.14300  1.0000 -0.1810004947
N   N11       1.0  0.30530  0.02630  0.82010  1.0000 -0.1902600552
N   N12       1.0  0.97370  0.69470  0.32010  1.0000 -0.1902600552
N   N13       1.0  0.58770  0.45290  0.05010  1.0000 -0.1902600552
N   N14       1.0  0.54710  0.41230  0.55010  1.0000 -0.1902600552
N   N15       1.0  0.25180  0.20720  0.97150  1.0000 -0.3931603369
N   N16       1.0  0.79280  0.74820  0.47150  1.0000 -0.3931603369
N   N17       1.0  0.92580  0.45740  0.81040  1.0000 -0.3958107047
N   N18       1.0  0.54260  0.07420  0.31040  1.0000 -0.3931603369
N   N19       1.0  0.90930  0.06850  0.94060  1.0000 -0.1902600552
N   N20       1.0  0.93150  0.09070  0.44060  1.0000 -0.1902600552
N   N21       1.0  0.18560  0.10940  0.91190  1.0000 -0.3958107047
N   N22       1.0  0.89060  0.81440  0.41190  1.0000 -0.3958107047
N   N23       1.0  0.35360  0.20520  0.93850  1.0000 -0.3803385161
N   N24       1.0  0.79480  0.64640  0.43850  1.0000 -0.3803385161
N   N25       1.0  0.82730  0.19490  0.72130  1.0000 -0.1810004947
N   N26       1.0  0.80510  0.17270  0.22130  1.0000 -0.1810004947
N   N27       1.0  0.13790  0.80210  0.60800  1.0000 -0.1810004947
N   N28       1.0  0.19790  0.86210  0.10800  1.0000 -0.1810004947
N   N29       1.0  0.33250  0.77390  0.72840  1.0000 -0.3803385161
N   N30       1.0  0.22610  0.66750  0.22840  1.0000 -0.3803385161
N   N31       1.0  0.49970  0.86110  0.74950  1.0000 -0.3931603369
N   N32       1.0  0.13890  0.50030  0.24950  1.0000 -0.3931603369
N   N33       1.0  0.32470  0.56370  0.85700  1.0000 -0.1810004947
N   N34       1.0  0.43630  0.67530  0.35700  1.0000 -0.1810004947
N   N35       1.0  0.02630  0.30530  0.67990  1.0000 -0.1902600552
N   N36       1.0  0.69470  0.97370  0.17990  1.0000 -0.1902600552
N   N37       1.0  0.45290  0.58770  0.44990  1.0000 -0.1902600552
N   N38       1.0  0.41230  0.54710  0.94990  1.0000 -0.1902600552
N   N39       1.0  0.20720  0.25180  0.52850  1.0000 -0.3931603369
N   N40       1.0  0.74820  0.79280  0.02850  1.0000 -0.3931603369
N   N41       1.0  0.45740  0.92580  0.68960  1.0000 -0.3931603369
N   N42       1.0  0.07420  0.54260  0.18960  1.0000 -0.3931603369
N   N43       1.0  0.06850  0.90930  0.55940  1.0000 -0.1902600552
N   N44       1.0  0.09070  0.93150  0.05940  1.0000 -0.1902600552
N   N45       1.0  0.10940  0.18560  0.58810  1.0000 -0.3958107047
N   N46       1.0  0.81440  0.89060  0.08810  1.0000 -0.3931603369
N   N47       1.0  0.20520  0.35360  0.56150  1.0000 -0.3803385161
N   N48       1.0  0.64640  0.79480  0.06150  1.0000 -0.3803385161
