# DDEC6 charges by PACMAN v1.1 (https://github.com/mtap-research/PACMAN-charge/)
data_2016[Cd][sql]2[ASR]5
_chemical_formula_sum              "Cd4 H36 C52 N12 O12"
_cell_length_a       11.698
_cell_length_b       13.324
_cell_length_c       18.4804
_cell_angle_alpha    90
_cell_angle_beta     126.673
_cell_angle_gamma    90

_symmetry_space_group_name_H-M    "P 1"
_symmetry_Int_Tables_number       1

loop_
  _symmetry_equiv_pos_as_xyz
  'x, y, z'

loop_
  _atom_site_type_symbol
  _atom_site_label
  _atom_site_symmetry_multiplicity
  _atom_site_fract_x
  _atom_site_fract_y
  _atom_site_fract_z
  _atom_site_occupancy
  _atom_site_charge
Cd  Cd1       1.0  0.01159  0.08595  0.07321  1.0000 0.8315976147
Cd  Cd2       1.0  0.98841  0.58595  0.42679  1.0000 0.8315976147
Cd  Cd3       1.0  0.98841  0.91405  0.92679  1.0000 0.8315976147
Cd  Cd4       1.0  0.01159  0.41405  0.57321  1.0000 0.8315976147
H   H1        1.0  0.85300  0.46560  0.24640  1.0000 0.10440456
H   H2        1.0  0.87560  0.33690  0.17660  1.0000 0.1407917623
H   H3        1.0  0.27450  0.30430  0.39180  1.0000 0.133026201
H   H4        1.0  0.22990  0.42590  0.46050  1.0000 0.10440456
H   H5        1.0  0.42680  0.10570  0.29510  1.0000 0.1096334492
H   H6        1.0  0.58710  0.99710  0.31000  1.0000 0.1096334492
H   H7        1.0  0.66640  0.87210  0.26530  1.0000 0.1407917623
H   H8        1.0  0.27530  0.85200  0.03270  1.0000 0.133026201
H   H9        1.0  0.45080  0.75680  0.06400  1.0000 0.3480138068
H   H10       1.0  0.14700  0.96560  0.25360  1.0000 0.10440456
H   H11       1.0  0.12440  0.83690  0.32340  1.0000 0.1407917623
H   H12       1.0  0.72550  0.80430  0.10820  1.0000 0.133026201
H   H13       1.0  0.77010  0.92590  0.03950  1.0000 0.10440456
H   H14       1.0  0.57320  0.60570  0.20490  1.0000 0.1096334492
H   H15       1.0  0.41290  0.49710  0.19000  1.0000 0.1096334492
H   H16       1.0  0.33360  0.37210  0.23470  1.0000 0.1407917623
H   H17       1.0  0.72470  0.35200  0.46730  1.0000 0.133026201
H   H18       1.0  0.54920  0.25680  0.43600  1.0000 0.3480138068
H   H19       1.0  0.14700  0.53440  0.75360  1.0000 0.10440456
H   H20       1.0  0.12440  0.66310  0.82340  1.0000 0.1407917623
H   H21       1.0  0.72550  0.69570  0.60820  1.0000 0.133026201
H   H22       1.0  0.77010  0.57410  0.53950  1.0000 0.10440456
H   H23       1.0  0.57320  0.89430  0.70490  1.0000 0.1096334492
H   H24       1.0  0.41290  0.00290  0.69000  1.0000 0.1096334492
H   H25       1.0  0.33360  0.12790  0.73470  1.0000 0.1407917623
H   H26       1.0  0.72470  0.14800  0.96730  1.0000 0.133026201
H   H27       1.0  0.54920  0.24320  0.93600  1.0000 0.3480138068
H   H28       1.0  0.85300  0.03440  0.74640  1.0000 0.10440456
H   H29       1.0  0.87560  0.16310  0.67660  1.0000 0.1407917623
H   H30       1.0  0.27450  0.19570  0.89180  1.0000 0.133026201
H   H31       1.0  0.22990  0.07410  0.96050  1.0000 0.10440456
H   H32       1.0  0.42680  0.39430  0.79510  1.0000 0.1096334492
H   H33       1.0  0.58710  0.50290  0.81000  1.0000 0.1096334492
H   H34       1.0  0.66640  0.62790  0.76530  1.0000 0.1407917623
H   H35       1.0  0.27530  0.64800  0.53270  1.0000 0.133026201
H   H36       1.0  0.45080  0.74320  0.56400  1.0000 0.3480138068
C   C1        1.0  0.93940  0.43150  0.27760  1.0000 0.0717198269
C   C2        1.0  0.95400  0.35640  0.23370  1.0000 -0.1786888505
C   C3        1.0  0.08380  0.30870  0.27260  1.0000 0.0501238021
C   C4        1.0  0.18580  0.33550  0.35940  1.0000 -0.1786888505
C   C5        1.0  0.15820  0.41010  0.40060  1.0000 0.0849202161
C   C6        1.0  0.09420  0.22820  0.22110  1.0000 0.403603448
C   C7        1.0  0.35070  0.08180  0.23910  1.0000 0.0501238021
C   C8        1.0  0.38290  0.00290  0.19980  1.0000 -0.0920236747
C   C9        1.0  0.52330  0.96800  0.25360  1.0000 -0.1101324319
C   C10       1.0  0.57200  0.89310  0.22760  1.0000 -0.2493636126
C   C11       1.0  0.47720  0.84980  0.14400  1.0000 0.3048319553
C   C12       1.0  0.33770  0.88200  0.08890  1.0000 -0.4212587978
C   C13       1.0  0.28720  0.95760  0.11440  1.0000 0.3231628572
C   C14       1.0  0.06060  0.93150  0.22240  1.0000 0.0717198269
C   C15       1.0  0.04600  0.85640  0.26630  1.0000 -0.1786888505
C   C16       1.0  0.91620  0.80870  0.22740  1.0000 0.0501238021
C   C17       1.0  0.81420  0.83550  0.14060  1.0000 -0.1786888505
C   C18       1.0  0.84180  0.91010  0.09940  1.0000 0.0853719746
C   C19       1.0  0.90580  0.72820  0.27890  1.0000 0.403603448
C   C20       1.0  0.64930  0.58180  0.26090  1.0000 0.0501238021
C   C21       1.0  0.61710  0.50290  0.30020  1.0000 -0.0920236747
C   C22       1.0  0.47670  0.46800  0.24640  1.0000 -0.1101324319
C   C23       1.0  0.42800  0.39310  0.27240  1.0000 -0.2493636126
C   C24       1.0  0.52280  0.34980  0.35600  1.0000 0.3052845632
C   C25       1.0  0.66230  0.38200  0.41110  1.0000 -0.4212587978
C   C26       1.0  0.71280  0.45760  0.38560  1.0000 0.3231628572
C   C27       1.0  0.06060  0.56850  0.72240  1.0000 0.0717198269
C   C28       1.0  0.04600  0.64360  0.76630  1.0000 -0.1786888505
C   C29       1.0  0.91620  0.69130  0.72740  1.0000 0.0501238021
C   C30       1.0  0.81420  0.66450  0.64060  1.0000 -0.1740221321
C   C31       1.0  0.84180  0.58990  0.59940  1.0000 0.0849202161
C   C32       1.0  0.90580  0.77180  0.77890  1.0000 0.403603448
C   C33       1.0  0.64930  0.91820  0.76090  1.0000 0.0501238021
C   C34       1.0  0.61710  0.99710  0.80020  1.0000 -0.0920236747
C   C35       1.0  0.47670  0.03200  0.74640  1.0000 -0.1101324319
C   C36       1.0  0.42800  0.10690  0.77240  1.0000 -0.2493636126
C   C37       1.0  0.52280  0.15020  0.85600  1.0000 0.3048319553
C   C38       1.0  0.66230  0.11800  0.91110  1.0000 -0.4212587978
C   C39       1.0  0.71280  0.04240  0.88560  1.0000 0.3231628572
C   C40       1.0  0.93940  0.06850  0.77760  1.0000 0.0717198269
C   C41       1.0  0.95400  0.14360  0.73370  1.0000 -0.1786888505
C   C42       1.0  0.08380  0.19130  0.77260  1.0000 0.0501238021
C   C43       1.0  0.18580  0.16450  0.85940  1.0000 -0.1740221321
C   C44       1.0  0.15820  0.08990  0.90060  1.0000 0.0853719746
C   C45       1.0  0.09420  0.27180  0.72110  1.0000 0.4051922296
C   C46       1.0  0.35070  0.41820  0.73910  1.0000 0.0501238021
C   C47       1.0  0.38290  0.49710  0.69980  1.0000 -0.0920236747
C   C48       1.0  0.52330  0.53200  0.75360  1.0000 -0.1101324319
C   C49       1.0  0.57200  0.60690  0.72760  1.0000 -0.2493636126
C   C50       1.0  0.47720  0.65020  0.64400  1.0000 0.3048319553
C   C51       1.0  0.33770  0.61800  0.58890  1.0000 -0.4212587978
C   C52       1.0  0.28720  0.54240  0.61440  1.0000 0.3231628572
N   N1        1.0  0.03760  0.45870  0.35980  1.0000 -0.2284855584
N   N2        1.0  0.22520  0.19560  0.25800  1.0000 -0.3166466395
N   N3        1.0  0.22870  0.12250  0.20510  1.0000 -0.1740221321
N   N4        1.0  0.96240  0.95870  0.14020  1.0000 -0.2284855584
N   N5        1.0  0.77480  0.69560  0.24200  1.0000 -0.3166466395
N   N6        1.0  0.77130  0.62250  0.29490  1.0000 -0.1740221321
N   N7        1.0  0.96240  0.54130  0.64020  1.0000 -0.2284855584
N   N8        1.0  0.77480  0.80440  0.74200  1.0000 -0.3166466395
N   N9        1.0  0.77130  0.87750  0.79490  1.0000 -0.1740221321
N   N10       1.0  0.03760  0.04130  0.85980  1.0000 -0.2284855584
N   N11       1.0  0.22520  0.30440  0.75800  1.0000 -0.3166466395
N   N12       1.0  0.22870  0.37750  0.70510  1.0000 -0.1740221321
O   O1        1.0  0.98210  0.19990  0.14900  1.0000 -0.517695349
O   O2        1.0  0.15310  0.98440  0.05920  1.0000 -0.5642913843
O   O3        1.0  0.51870  0.77440  0.11460  1.0000 -0.4136891728
O   O4        1.0  0.01790  0.69990  0.35100  1.0000 -0.517695349
O   O5        1.0  0.84690  0.48440  0.44080  1.0000 -0.5642913843
O   O6        1.0  0.48130  0.27440  0.38540  1.0000 -0.4136891728
O   O7        1.0  0.01790  0.80010  0.85100  1.0000 -0.517695349
O   O8        1.0  0.84690  0.01560  0.94080  1.0000 -0.5642913843
O   O9        1.0  0.48130  0.22560  0.88540  1.0000 -0.4136891728
O   O10       1.0  0.98210  0.30010  0.64900  1.0000 -0.517695349
O   O11       1.0  0.15310  0.51560  0.55920  1.0000 -0.5642913843
O   O12       1.0  0.51870  0.72560  0.61460  1.0000 -0.4212587978
