# DDEC6 charges by PACMAN v1.1 (https://github.com/mtap-research/PACMAN-charge/)
data_2016[Ho][nan]3[ASR]2
_chemical_formula_sum              "Ho4 H36 C76 O24"
_cell_length_a       16.0581
_cell_length_b       16.0581
_cell_length_c       13.903
_cell_angle_alpha    82.5415
_cell_angle_beta     97.4585
_cell_angle_gamma    130.466

_symmetry_space_group_name_H-M    "P 1"
_symmetry_Int_Tables_number       1

loop_
  _symmetry_equiv_pos_as_xyz
  'x, y, z'

loop_
  _atom_site_type_symbol
  _atom_site_label
  _atom_site_symmetry_multiplicity
  _atom_site_fract_x
  _atom_site_fract_y
  _atom_site_fract_z
  _atom_site_occupancy
  _atom_site_charge
Ho  Ho1       1.0  0.38366  0.01448  0.45923  1.0000 2.0430248924
Ho  Ho2       1.0  0.01448  0.38366  0.04077  1.0000 2.0459110685
Ho  Ho3       1.0  0.61634  0.98552  0.54077  1.0000 2.0430248924
Ho  Ho4       1.0  0.98552  0.61634  0.95923  1.0000 2.0459110685
H   H1        1.0  0.18910  0.71630  0.70710  1.0000 0.1377166607
H   H2        1.0  0.71630  0.18910  0.79290  1.0000 0.1377166607
H   H3        1.0  0.81090  0.28370  0.29290  1.0000 0.1377166607
H   H4        1.0  0.28370  0.81090  0.20710  1.0000 0.1377166607
H   H5        1.0  0.38150  0.68830  0.58250  1.0000 0.1306269602
H   H6        1.0  0.68830  0.38150  0.91750  1.0000 0.1306269602
H   H7        1.0  0.61850  0.31170  0.41750  1.0000 0.1306269602
H   H8        1.0  0.31170  0.61850  0.08250  1.0000 0.1306269602
H   H9        1.0  0.17560  0.45820  0.78260  1.0000 0.1196040492
H   H10       1.0  0.45820  0.17560  0.71740  1.0000 0.1196040492
H   H11       1.0  0.82440  0.54180  0.21740  1.0000 0.1196040492
H   H12       1.0  0.54180  0.82440  0.28260  1.0000 0.1196040492
H   H13       1.0  0.47240  0.62160  0.63680  1.0000 0.1196040492
H   H14       1.0  0.62160  0.47240  0.86320  1.0000 0.1196040492
H   H15       1.0  0.52760  0.37840  0.36320  1.0000 0.1196040492
H   H16       1.0  0.37840  0.52760  0.13680  1.0000 0.1196040492
H   H17       1.0  0.52100  0.52320  0.60440  1.0000 0.1196040492
H   H18       1.0  0.52320  0.52100  0.89560  1.0000 0.1196040492
H   H19       1.0  0.47900  0.47680  0.39560  1.0000 0.1196040492
H   H20       1.0  0.47680  0.47900  0.10440  1.0000 0.1196040492
H   H21       1.0  0.46090  0.34270  0.55940  1.0000 0.1196040492
H   H22       1.0  0.34270  0.46090  0.94060  1.0000 0.1196040492
H   H23       1.0  0.53910  0.65730  0.44060  1.0000 0.1196040492
H   H24       1.0  0.65730  0.53910  0.05940  1.0000 0.1196040492
H   H25       1.0  0.15130  0.07070  0.58980  1.0000 0.1196040492
H   H26       1.0  0.07070  0.15130  0.91020  1.0000 0.1196040492
H   H27       1.0  0.84870  0.92930  0.41020  1.0000 0.1196040492
H   H28       1.0  0.92930  0.84870  0.08980  1.0000 0.1196040492
H   H29       1.0  0.10740  0.16640  0.64390  1.0000 0.1196040492
H   H30       1.0  0.16640  0.10740  0.85610  1.0000 0.1196040492
H   H31       1.0  0.89260  0.83360  0.35610  1.0000 0.1196040492
H   H32       1.0  0.83360  0.89260  0.14390  1.0000 0.1196040492
H   H33       1.0  0.16630  0.34930  0.67660  1.0000 0.1196040492
H   H34       1.0  0.34930  0.16630  0.82340  1.0000 0.1196040492
H   H35       1.0  0.83370  0.65070  0.32340  1.0000 0.1196040492
H   H36       1.0  0.65070  0.83370  0.17660  1.0000 0.1196040492
C   C1        1.0  0.17380  0.58260  0.75800  1.0000 -0.013656379
C   C2        1.0  0.58260  0.17380  0.74200  1.0000 -0.013656379
C   C3        1.0  0.82620  0.41740  0.24200  1.0000 -0.013656379
C   C4        1.0  0.41740  0.82620  0.25800  1.0000 -0.013656379
C   C5        1.0  0.21390  0.67870  0.70090  1.0000 -0.1028590142
C   C6        1.0  0.67870  0.21390  0.79910  1.0000 -0.1028590142
C   C7        1.0  0.78610  0.32130  0.29910  1.0000 -0.1028590142
C   C8        1.0  0.32130  0.78610  0.20090  1.0000 -0.1028590142
C   C9        1.0  0.29140  0.71720  0.63470  1.0000 -0.01619592
C   C10       1.0  0.71720  0.29140  0.86530  1.0000 -0.01619592
C   C11       1.0  0.70860  0.28280  0.36530  1.0000 -0.01619592
C   C12       1.0  0.28280  0.70860  0.13470  1.0000 -0.01619592
C   C13       1.0  0.32740  0.66000  0.62510  1.0000 -0.1583928816
C   C14       1.0  0.66000  0.32740  0.87490  1.0000 -0.1583928816
C   C15       1.0  0.67260  0.34000  0.37490  1.0000 -0.1583928816
C   C16       1.0  0.34000  0.67260  0.12510  1.0000 -0.1583928816
C   C17       1.0  0.28390  0.56210  0.67770  1.0000 0.0616640378
C   C18       1.0  0.56210  0.28390  0.82230  1.0000 0.0616640378
C   C19       1.0  0.71610  0.43790  0.32230  1.0000 0.0616640378
C   C20       1.0  0.43790  0.71610  0.17770  1.0000 0.0616640378
C   C21       1.0  0.20550  0.52370  0.74600  1.0000 -0.1475921176
C   C22       1.0  0.52370  0.20550  0.75400  1.0000 -0.1475921176
C   C23       1.0  0.79450  0.47630  0.25400  1.0000 -0.1475921176
C   C24       1.0  0.47630  0.79450  0.24600  1.0000 -0.1475921176
C   C25       1.0  0.09530  0.54530  0.83590  1.0000 0.6477018543
C   C26       1.0  0.54530  0.09530  0.66410  1.0000 0.6477018543
C   C27       1.0  0.90470  0.45470  0.16410  1.0000 0.6477018543
C   C28       1.0  0.45470  0.90470  0.33590  1.0000 0.6477018543
C   C29       1.0  0.33440  0.82020  0.57260  1.0000 0.6258726068
C   C30       1.0  0.82020  0.33440  0.92740  1.0000 0.6258726068
C   C31       1.0  0.66560  0.17980  0.42740  1.0000 0.6258726068
C   C32       1.0  0.17980  0.66560  0.07260  1.0000 0.6258726068
C   C33       1.0  0.31390  0.49550  0.65840  1.0000 0.0714389407
C   C34       1.0  0.49550  0.31390  0.84160  1.0000 0.0714389407
C   C35       1.0  0.68610  0.50450  0.34160  1.0000 0.0714389407
C   C36       1.0  0.50450  0.68610  0.15840  1.0000 0.0714389407
C   C37       1.0  0.41930  0.54570  0.63650  1.0000 -0.1407224513
C   C38       1.0  0.54570  0.41930  0.86350  1.0000 -0.1407224513
C   C39       1.0  0.58070  0.45430  0.36350  1.0000 -0.1407224513
C   C40       1.0  0.45430  0.58070  0.13650  1.0000 -0.1407224513
C   C41       1.0  0.44820  0.48720  0.61460  1.0000 -0.1475921176
C   C42       1.0  0.48720  0.44820  0.88540  1.0000 -0.1475921176
C   C43       1.0  0.55180  0.51280  0.38540  1.0000 -0.1475921176
C   C44       1.0  0.51280  0.55180  0.11460  1.0000 -0.1475921176
C   C45       1.0  0.36870  0.37250  0.60710  1.0000 0.0616640378
C   C46       1.0  0.37250  0.36870  0.89290  1.0000 0.0616640378
C   C47       1.0  0.63130  0.62750  0.39290  1.0000 0.0616640378
C   C48       1.0  0.62750  0.63130  0.10710  1.0000 0.0616640378
C   C49       1.0  0.39030  0.30870  0.57540  1.0000 -0.1583928816
C   C50       1.0  0.30870  0.39030  0.92460  1.0000 -0.1583928816
C   C51       1.0  0.60970  0.69130  0.42460  1.0000 -0.1583928816
C   C52       1.0  0.69130  0.60970  0.07540  1.0000 -0.1583928816
C   C53       1.0  0.31090  0.19910  0.56770  1.0000 -0.01619592
C   C54       1.0  0.19910  0.31090  0.93230  1.0000 -0.01619592
C   C55       1.0  0.68910  0.80090  0.43230  1.0000 -0.01619592
C   C56       1.0  0.80090  0.68910  0.06770  1.0000 -0.01619592
C   C57       1.0  0.20490  0.14610  0.59400  1.0000 -0.1052678726
C   C58       1.0  0.14610  0.20490  0.90600  1.0000 -0.1052678726
C   C59       1.0  0.79510  0.85390  0.40600  1.0000 -0.1052678726
C   C60       1.0  0.85390  0.79510  0.09400  1.0000 -0.1052678726
C   C61       1.0  0.17810  0.20310  0.62600  1.0000 -0.1650914601
C   C62       1.0  0.20310  0.17810  0.87400  1.0000 -0.1650914601
C   C63       1.0  0.82190  0.79690  0.37400  1.0000 -0.1583928816
C   C64       1.0  0.79690  0.82190  0.12600  1.0000 -0.1583928816
C   C65       1.0  0.25940  0.31900  0.63160  1.0000 0.0770293423
C   C66       1.0  0.31900  0.25940  0.86840  1.0000 0.0770293423
C   C67       1.0  0.74060  0.68100  0.36840  1.0000 0.0770293423
C   C68       1.0  0.68100  0.74060  0.13160  1.0000 0.0770293423
C   C69       1.0  0.23630  0.38370  0.65840  1.0000 -0.1926064021
C   C70       1.0  0.38370  0.23630  0.84160  1.0000 -0.1926064021
C   C71       1.0  0.76370  0.61630  0.34160  1.0000 -0.1926064021
C   C72       1.0  0.61630  0.76370  0.15840  1.0000 -0.1926064021
C   C73       1.0  0.33580  0.13540  0.52620  1.0000 0.5620087334
C   C74       1.0  0.13540  0.33580  0.97380  1.0000 0.5620087334
C   C75       1.0  0.66420  0.86460  0.47380  1.0000 0.5620087334
C   C76       1.0  0.86460  0.66420  0.02620  1.0000 0.5620087334
O   O1        1.0  0.05220  0.45220  0.87890  1.0000 -0.6485244087
O   O2        1.0  0.45220  0.05220  0.62110  1.0000 -0.6485244087
O   O3        1.0  0.94780  0.54780  0.12110  1.0000 -0.6485244087
O   O4        1.0  0.54780  0.94780  0.37890  1.0000 -0.6485244087
O   O5        1.0  0.07840  0.60880  0.84840  1.0000 -0.6700016609
O   O6        1.0  0.60880  0.07840  0.65160  1.0000 -0.6700016609
O   O7        1.0  0.92160  0.39120  0.15160  1.0000 -0.6700016609
O   O8        1.0  0.39120  0.92160  0.34840  1.0000 -0.6700016609
O   O9        1.0  0.27110  0.84110  0.54930  1.0000 -0.6010833881
O   O10       1.0  0.84110  0.27110  0.95070  1.0000 -0.6010833881
O   O11       1.0  0.72890  0.15890  0.45070  1.0000 -0.6010833881
O   O12       1.0  0.15890  0.72890  0.04930  1.0000 -0.6010833881
O   O13       1.0  0.42870  0.87950  0.54540  1.0000 -0.7012687973
O   O14       1.0  0.87950  0.42870  0.95460  1.0000 -0.7012687973
O   O15       1.0  0.57130  0.12050  0.45460  1.0000 -0.7012687973
O   O16       1.0  0.12050  0.57130  0.04540  1.0000 -0.7012687973
O   O17       1.0  0.26570  0.03170  0.53220  1.0000 -0.6376625575
O   O18       1.0  0.03170  0.26570  0.96780  1.0000 -0.6376625575
O   O19       1.0  0.73430  0.96830  0.46780  1.0000 -0.6376625575
O   O20       1.0  0.96830  0.73430  0.03220  1.0000 -0.6376625575
O   O21       1.0  0.42420  0.18540  0.48690  1.0000 -0.6376625575
O   O22       1.0  0.18540  0.42420  0.01310  1.0000 -0.6376625575
O   O23       1.0  0.57580  0.81460  0.51310  1.0000 -0.6376625575
O   O24       1.0  0.81460  0.57580  0.98690  1.0000 -0.6376625575
