# DDEC6 charges by PACMAN v1.1 (https://github.com/mtap-research/PACMAN-charge/)
data_2016[Cu][nan]3[ASR]12
_chemical_formula_sum              "Cu8 H64 C130 N24 O32"
_cell_length_a       25.298
_cell_length_b       25.298
_cell_length_c       14.1001
_cell_angle_alpha    90
_cell_angle_beta     90
_cell_angle_gamma    131.094

_symmetry_space_group_name_H-M    "P 1"
_symmetry_Int_Tables_number       1

loop_
  _symmetry_equiv_pos_as_xyz
  'x, y, z'

loop_
  _atom_site_type_symbol
  _atom_site_label
  _atom_site_symmetry_multiplicity
  _atom_site_fract_x
  _atom_site_fract_y
  _atom_site_fract_z
  _atom_site_occupancy
  _atom_site_charge
Cu  Cu1       1.0  0.80488  0.19512  0.00000  1.0000 0.8366832522
Cu  Cu2       1.0  0.19512  0.80488  0.00000  1.0000 0.8366832522
Cu  Cu3       1.0  0.86245  0.13755  0.00000  1.0000 0.8569226352
Cu  Cu4       1.0  0.13755  0.86245  0.00000  1.0000 0.8569226352
Cu  Cu5       1.0  0.93100  0.44792  0.50343  1.0000 0.8505993274
Cu  Cu6       1.0  0.06900  0.55208  0.50343  1.0000 0.8505993274
Cu  Cu7       1.0  0.55208  0.06900  0.49657  1.0000 0.8505993274
Cu  Cu8       1.0  0.44792  0.93100  0.49657  1.0000 0.8505993274
H   H1        1.0  0.92440  0.33460  0.75330  1.0000 0.1394320664
H   H2        1.0  0.07560  0.66540  0.75330  1.0000 0.1394320664
H   H3        1.0  0.66540  0.07560  0.24670  1.0000 0.1394320664
H   H4        1.0  0.33460  0.92440  0.24670  1.0000 0.1394320664
H   H5        1.0  0.04090  0.28770  0.83820  1.0000 0.1394320664
H   H6        1.0  0.95910  0.71230  0.83820  1.0000 0.1394320664
H   H7        1.0  0.71230  0.95910  0.16180  1.0000 0.1394320664
H   H8        1.0  0.28770  0.04090  0.16180  1.0000 0.1394320664
H   H9        1.0  0.92280  0.33240  0.25400  1.0000 0.1394320664
H   H10       1.0  0.07720  0.66760  0.25400  1.0000 0.1394320664
H   H11       1.0  0.66760  0.07720  0.74600  1.0000 0.148932355
H   H12       1.0  0.33240  0.92280  0.74600  1.0000 0.148932355
H   H13       1.0  0.04990  0.30310  0.15010  1.0000 0.1394320664
H   H14       1.0  0.95010  0.69690  0.15010  1.0000 0.1394320664
H   H15       1.0  0.69690  0.95010  0.84990  1.0000 0.1394320664
H   H16       1.0  0.30310  0.04990  0.84990  1.0000 0.1394320664
H   H17       1.0  0.11850  0.44170  0.64700  1.0000 0.1394320664
H   H18       1.0  0.88150  0.55830  0.64700  1.0000 0.1394320664
H   H19       1.0  0.55830  0.88150  0.35300  1.0000 0.1394320664
H   H20       1.0  0.44170  0.11850  0.35300  1.0000 0.1394320664
H   H21       1.0  0.12230  0.45370  0.34380  1.0000 0.1394320664
H   H22       1.0  0.87770  0.54630  0.34380  1.0000 0.1394320664
H   H23       1.0  0.54630  0.87770  0.65620  1.0000 0.1394320664
H   H24       1.0  0.45370  0.12230  0.65620  1.0000 0.1394320664
H   H25       1.0  0.19910  0.42410  0.61420  1.0000 0.1341011611
H   H26       1.0  0.80090  0.57590  0.61420  1.0000 0.1341011611
H   H27       1.0  0.57590  0.80090  0.38580  1.0000 0.1341011611
H   H28       1.0  0.42410  0.19910  0.38580  1.0000 0.1341011611
H   H29       1.0  0.17860  0.38220  0.11330  1.0000 0.1394320664
H   H30       1.0  0.82140  0.61780  0.11330  1.0000 0.1394320664
H   H31       1.0  0.61780  0.82140  0.88670  1.0000 0.1394320664
H   H32       1.0  0.38220  0.17860  0.88670  1.0000 0.1394320664
H   H33       1.0  0.34670  0.39590  0.75020  1.0000 0.1188966076
H   H34       1.0  0.65330  0.60410  0.75020  1.0000 0.1188966076
H   H35       1.0  0.60410  0.65330  0.24980  1.0000 0.1188966076
H   H36       1.0  0.39590  0.34670  0.24980  1.0000 0.1188966076
H   H37       1.0  0.29080  0.44700  0.52790  1.0000 0.1188966076
H   H38       1.0  0.70920  0.55300  0.52790  1.0000 0.1188966076
H   H39       1.0  0.55300  0.70920  0.47210  1.0000 0.1188966076
H   H40       1.0  0.44700  0.29080  0.47210  1.0000 0.1188966076
H   H41       1.0  0.27000  0.39160  0.04080  1.0000 0.1188966076
H   H42       1.0  0.73000  0.60840  0.04080  1.0000 0.1188966076
H   H43       1.0  0.60840  0.73000  0.95920  1.0000 0.1188966076
H   H44       1.0  0.39160  0.27000  0.95920  1.0000 0.1188966076
H   H45       1.0  0.39810  0.51750  0.25000  1.0000 0.1188966076
H   H46       1.0  0.60190  0.48250  0.25000  1.0000 0.1188966076
H   H47       1.0  0.48250  0.60190  0.75000  1.0000 0.1188966076
H   H48       1.0  0.51750  0.39810  0.75000  1.0000 0.1188966076
H   H49       1.0  0.44830  0.43930  0.67480  1.0000 0.1102225516
H   H50       1.0  0.55170  0.56070  0.67480  1.0000 0.1102225516
H   H51       1.0  0.56070  0.55170  0.32520  1.0000 0.1102225516
H   H52       1.0  0.43930  0.44830  0.32520  1.0000 0.1102225516
H   H53       1.0  0.39330  0.49130  0.45050  1.0000 0.1102225516
H   H54       1.0  0.60670  0.50870  0.45050  1.0000 0.1102225516
H   H55       1.0  0.50870  0.60670  0.54950  1.0000 0.1188966076
H   H56       1.0  0.49130  0.39330  0.54950  1.0000 0.1188966076
H   H57       1.0  0.36370  0.41730  0.95910  1.0000 0.1188966076
H   H58       1.0  0.63630  0.58270  0.95910  1.0000 0.1188966076
H   H59       1.0  0.58270  0.63630  0.04090  1.0000 0.1188966076
H   H60       1.0  0.41730  0.36370  0.04090  1.0000 0.1188966076
H   H61       1.0  0.49020  0.54140  0.17140  1.0000 0.1102225516
H   H62       1.0  0.50980  0.45860  0.17140  1.0000 0.1102225516
H   H63       1.0  0.45860  0.50980  0.82860  1.0000 0.1102225516
H   H64       1.0  0.54140  0.49020  0.82860  1.0000 0.1102225516
C   C1        1.0  0.91924  0.25278  0.87640  1.0000 0.5797110957
C   C2        1.0  0.08076  0.74722  0.87640  1.0000 0.5797110957
C   C3        1.0  0.74722  0.08076  0.12360  1.0000 0.5797110957
C   C4        1.0  0.25278  0.91924  0.12360  1.0000 0.5797110957
C   C5        1.0  0.92166  0.25306  0.12330  1.0000 0.5797110957
C   C6        1.0  0.07834  0.74694  0.12330  1.0000 0.5797110957
C   C7        1.0  0.74694  0.07834  0.87670  1.0000 0.5797110957
C   C8        1.0  0.25306  0.92166  0.87670  1.0000 0.5797110957
C   C9        1.0  0.97466  0.30576  0.80820  1.0000 -0.012000144
C   C10       1.0  0.02534  0.69424  0.80820  1.0000 -0.012000144
C   C11       1.0  0.69424  0.02534  0.19180  1.0000 -0.012000144
C   C12       1.0  0.30576  0.97466  0.19180  1.0000 -0.012000144
C   C13       1.0  0.97844  0.30992  0.18910  1.0000 0.0016627112
C   C14       1.0  0.02156  0.69008  0.18910  1.0000 0.0016627112
C   C15       1.0  0.69008  0.02156  0.81090  1.0000 0.0016627112
C   C16       1.0  0.30992  0.97844  0.81090  1.0000 0.0016627112
C   C17       1.0  0.96644  0.34346  0.75200  1.0000 -0.0901536203
C   C18       1.0  0.03356  0.65654  0.75200  1.0000 -0.0901536203
C   C19       1.0  0.65654  0.03356  0.24800  1.0000 -0.0901536203
C   C20       1.0  0.34346  0.96644  0.24800  1.0000 -0.0901536203
C   C21       1.0  0.03631  0.31559  0.80280  1.0000 -0.1613068136
C   C22       1.0  0.96369  0.68441  0.80280  1.0000 -0.1613068136
C   C23       1.0  0.68441  0.96369  0.19720  1.0000 -0.1673935767
C   C24       1.0  0.31559  0.03631  0.19720  1.0000 -0.1673935767
C   C25       1.0  0.96638  0.34456  0.25260  1.0000 -0.100476789
C   C26       1.0  0.03362  0.65544  0.25260  1.0000 -0.100476789
C   C27       1.0  0.65544  0.03362  0.74740  1.0000 -0.100476789
C   C28       1.0  0.34456  0.96638  0.74740  1.0000 -0.100476789
C   C29       1.0  0.04206  0.32704  0.18920  1.0000 -0.1673935767
C   C30       1.0  0.95794  0.67296  0.18920  1.0000 -0.1673935767
C   C31       1.0  0.67296  0.95794  0.81080  1.0000 -0.1673935767
C   C32       1.0  0.32704  0.04206  0.81080  1.0000 -0.1673935767
C   C33       1.0  0.02158  0.39638  0.69110  1.0000 -0.012000144
C   C34       1.0  0.97842  0.60362  0.69110  1.0000 -0.012000144
C   C35       1.0  0.60362  0.97842  0.30890  1.0000 -0.012000144
C   C36       1.0  0.39638  0.02158  0.30890  1.0000 -0.012000144
C   C37       1.0  0.08948  0.36716  0.74410  1.0000 0.1394320664
C   C38       1.0  0.91052  0.63284  0.74410  1.0000 0.1394320664
C   C39       1.0  0.63284  0.91052  0.25590  1.0000 0.1394320664
C   C40       1.0  0.36716  0.08948  0.25590  1.0000 0.1394320664
C   C41       1.0  0.01805  0.39525  0.31120  1.0000 -0.0010161603
C   C42       1.0  0.98195  0.60475  0.31120  1.0000 -0.0010161603
C   C43       1.0  0.60475  0.98195  0.68880  1.0000 -0.0010161603
C   C44       1.0  0.39525  0.01805  0.68880  1.0000 -0.0010161603
C   C45       1.0  0.09578  0.38106  0.24860  1.0000 0.1394320664
C   C46       1.0  0.90422  0.61894  0.24860  1.0000 0.1394320664
C   C47       1.0  0.61894  0.90422  0.75140  1.0000 0.1394320664
C   C48       1.0  0.38106  0.09578  0.75140  1.0000 0.1394320664
C   C49       1.0  0.01210  0.43594  0.62700  1.0000 0.5797110957
C   C50       1.0  0.98790  0.56406  0.62700  1.0000 0.5797110957
C   C51       1.0  0.56406  0.98790  0.37300  1.0000 0.5797110957
C   C52       1.0  0.43594  0.01210  0.37300  1.0000 0.5797110957
C   C53       1.0  0.08225  0.40757  0.68710  1.0000 -0.1673935767
C   C54       1.0  0.91775  0.59243  0.68710  1.0000 -0.1673935767
C   C55       1.0  0.59243  0.91775  0.31290  1.0000 -0.1673935767
C   C56       1.0  0.40757  0.08225  0.31290  1.0000 -0.1673935767
C   C57       1.0  0.00896  0.43484  0.38000  1.0000 0.5797110957
C   C58       1.0  0.99104  0.56516  0.38000  1.0000 0.5797110957
C   C59       1.0  0.56516  0.99104  0.62000  1.0000 0.5797110957
C   C60       1.0  0.43484  0.00896  0.62000  1.0000 0.5797110957
C   C61       1.0  0.08573  0.41645  0.30720  1.0000 -0.1673935767
C   C62       1.0  0.91427  0.58355  0.30720  1.0000 -0.1673935767
C   C63       1.0  0.58355  0.91427  0.69280  1.0000 -0.1673935767
C   C64       1.0  0.41645  0.08573  0.69280  1.0000 -0.1613068136
C   C65       1.0  0.19906  0.40484  0.67040  1.0000 -0.1613068136
C   C66       1.0  0.80094  0.59516  0.67040  1.0000 -0.1613068136
C   C67       1.0  0.59516  0.80094  0.32960  1.0000 -0.1613068136
C   C68       1.0  0.40484  0.19906  0.32960  1.0000 -0.1613068136
C   C69       1.0  0.19705  0.40169  0.17290  1.0000 -0.1613068136
C   C70       1.0  0.80295  0.59831  0.17290  1.0000 -0.1613068136
C   C71       1.0  0.59831  0.80295  0.82710  1.0000 -0.1673935767
C   C72       1.0  0.40169  0.19705  0.82710  1.0000 -0.1613068136
C   C73       1.0  0.24563  0.39757  0.69780  1.0000 0.1102225516
C   C74       1.0  0.75437  0.60243  0.69780  1.0000 0.1102225516
C   C75       1.0  0.60243  0.75437  0.30220  1.0000 0.1102225516
C   C76       1.0  0.39757  0.24563  0.30220  1.0000 0.1102225516
C   C77       1.0  0.26446  0.43582  0.20460  1.0000 0.1102225516
C   C78       1.0  0.73554  0.56418  0.20460  1.0000 0.1102225516
C   C79       1.0  0.56418  0.73554  0.79540  1.0000 0.1102225516
C   C80       1.0  0.43582  0.26446  0.79540  1.0000 0.1102225516
C   C81       1.0  0.30981  0.42209  0.64910  1.0000 0.062208528
C   C82       1.0  0.69019  0.57791  0.64910  1.0000 0.062208528
C   C83       1.0  0.57791  0.69019  0.35090  1.0000 0.062208528
C   C84       1.0  0.42209  0.30981  0.35090  1.0000 0.062208528
C   C85       1.0  0.32352  0.44946  0.15470  1.0000 0.062208528
C   C86       1.0  0.67648  0.55054  0.15470  1.0000 0.062208528
C   C87       1.0  0.55054  0.67648  0.84530  1.0000 0.062208528
C   C88       1.0  0.44946  0.32352  0.84530  1.0000 0.062208528
C   C89       1.0  0.35686  0.41692  0.69105  1.0000 -0.1293696879
C   C90       1.0  0.64314  0.58308  0.69105  1.0000 -0.1293696879
C   C91       1.0  0.58308  0.64314  0.30895  1.0000 -0.1293696879
C   C92       1.0  0.41692  0.35686  0.30895  1.0000 -0.1293696879
C   C93       1.0  0.32350  0.44730  0.55900  1.0000 -0.1293696879
C   C94       1.0  0.67650  0.55270  0.55900  1.0000 -0.1293696879
C   C95       1.0  0.55270  0.67650  0.44100  1.0000 -0.1293696879
C   C96       1.0  0.44730  0.32350  0.44100  1.0000 -0.1293696879
C   C97       1.0  0.31444  0.42130  0.06800  1.0000 -0.1293696879
C   C98       1.0  0.68556  0.57870  0.06800  1.0000 -0.1293696879
C   C99       1.0  0.57870  0.68556  0.93200  1.0000 -0.1293696879
C   C100      1.0  0.42130  0.31444  0.93200  1.0000 -0.1293696879
C   C101      1.0  0.39053  0.49585  0.19220  1.0000 -0.1293696879
C   C102      1.0  0.60947  0.50415  0.19220  1.0000 -0.1293696879
C   C103      1.0  0.50415  0.60947  0.80780  1.0000 -0.1293696879
C   C104      1.0  0.49585  0.39053  0.80780  1.0000 -0.1293696879
C   C105      1.0  0.41773  0.44273  0.64520  1.0000 -0.1415682702
C   C106      1.0  0.58227  0.55727  0.64520  1.0000 -0.1415682702
C   C107      1.0  0.55727  0.58227  0.35480  1.0000 -0.1415682702
C   C108      1.0  0.44273  0.41773  0.35480  1.0000 -0.1415682702
C   C109      1.0  0.38500  0.47358  0.51170  1.0000 -0.1461832064
C   C110      1.0  0.61500  0.52642  0.51170  1.0000 -0.1461832064
C   C111      1.0  0.52642  0.61500  0.48830  1.0000 -0.1461832064
C   C112      1.0  0.47358  0.38500  0.48830  1.0000 -0.1461832064
C   C113      1.0  0.37078  0.43634  0.01910  1.0000 -0.1415682702
C   C114      1.0  0.62922  0.56366  0.01910  1.0000 -0.1415682702
C   C115      1.0  0.56366  0.62922  0.98090  1.0000 -0.1415682702
C   C116      1.0  0.43634  0.37078  0.98090  1.0000 -0.1415682702
C   C117      1.0  0.44557  0.51001  0.14489  1.0000 -0.1461832064
C   C118      1.0  0.55443  0.48999  0.14489  1.0000 -0.1461832064
C   C119      1.0  0.48999  0.55443  0.85511  1.0000 -0.1461832064
C   C120      1.0  0.51001  0.44557  0.85511  1.0000 -0.1461832064
C   C121      1.0  0.43490  0.47328  0.55731  1.0000 0.062208528
C   C122      1.0  0.56510  0.52672  0.55731  1.0000 0.062208528
C   C123      1.0  0.52672  0.56510  0.44269  1.0000 0.062208528
C   C124      1.0  0.47328  0.43490  0.44269  1.0000 0.062208528
C   C125      1.0  0.43733  0.47925  0.05874  1.0000 0.062208528
C   C126      1.0  0.56267  0.52075  0.05874  1.0000 0.062208528
C   C127      1.0  0.52075  0.56267  0.94126  1.0000 0.062208528
C   C128      1.0  0.47925  0.43733  0.94126  1.0000 0.062208528
C   C129      1.0  0.50000  0.50000  0.50000  1.0000 -0.012000144
C   C130      1.0  0.50000  0.50000  0.00000  1.0000 -0.012000144
N   N1        1.0  0.15337  0.37817  0.74220  1.0000 0.148932355
N   N2        1.0  0.84663  0.62183  0.74220  1.0000 0.148932355
N   N3        1.0  0.62183  0.84663  0.25780  1.0000 0.148932355
N   N4        1.0  0.37817  0.15337  0.25780  1.0000 0.148932355
N   N5        1.0  0.16355  0.40257  0.24660  1.0000 0.1394320664
N   N6        1.0  0.83645  0.59743  0.24660  1.0000 0.1394320664
N   N7        1.0  0.59743  0.83645  0.75340  1.0000 0.1394320664
N   N8        1.0  0.40257  0.16355  0.75340  1.0000 0.148932355
N   N9        1.0  0.16999  0.35621  0.81130  1.0000 -0.100476789
N   N10       1.0  0.83001  0.64379  0.81130  1.0000 -0.100476789
N   N11       1.0  0.64379  0.83001  0.18870  1.0000 -0.100476789
N   N12       1.0  0.35621  0.16999  0.18870  1.0000 -0.100476789
N   N13       1.0  0.20898  0.43882  0.31950  1.0000 -0.1132356438
N   N14       1.0  0.79102  0.56118  0.31950  1.0000 -0.116142756
N   N15       1.0  0.56118  0.79102  0.68050  1.0000 -0.1132356438
N   N16       1.0  0.43882  0.20898  0.68050  1.0000 -0.116142756
N   N17       1.0  0.22694  0.36864  0.78570  1.0000 -0.2293883512
N   N18       1.0  0.77306  0.63136  0.78570  1.0000 -0.2293883512
N   N19       1.0  0.63136  0.77306  0.21430  1.0000 -0.2293883512
N   N20       1.0  0.36864  0.22694  0.21430  1.0000 -0.2293883512
N   N21       1.0  0.26852  0.45618  0.29600  1.0000 -0.2237251836
N   N22       1.0  0.73148  0.54382  0.29600  1.0000 -0.2237251836
N   N23       1.0  0.54382  0.73148  0.70400  1.0000 -0.2237251836
N   N24       1.0  0.45618  0.26852  0.70400  1.0000 -0.2237251836
O   O1        1.0  0.87642  0.25764  0.90363  1.0000 -0.4927462998
O   O2        1.0  0.12358  0.74236  0.90363  1.0000 -0.4927462998
O   O3        1.0  0.74236  0.12358  0.09637  1.0000 -0.4927462998
O   O4        1.0  0.25764  0.87642  0.09637  1.0000 -0.4927462998
O   O5        1.0  0.87527  0.25595  0.10114  1.0000 -0.5204204532
O   O6        1.0  0.12473  0.74405  0.10114  1.0000 -0.5204204532
O   O7        1.0  0.74405  0.12473  0.89886  1.0000 -0.5204204532
O   O8        1.0  0.25595  0.87527  0.89886  1.0000 -0.5204204532
O   O9        1.0  0.92105  0.20487  0.90018  1.0000 -0.5417112323
O   O10       1.0  0.07895  0.79513  0.90018  1.0000 -0.5417112323
O   O11       1.0  0.79513  0.07895  0.09982  1.0000 -0.5417112323
O   O12       1.0  0.20487  0.92105  0.09982  1.0000 -0.5417112323
O   O13       1.0  0.92764  0.21186  0.09233  1.0000 -0.5000758308
O   O14       1.0  0.07236  0.78814  0.09233  1.0000 -0.5000758308
O   O15       1.0  0.78814  0.07236  0.90767  1.0000 -0.5000758308
O   O16       1.0  0.21186  0.92764  0.90767  1.0000 -0.5000758308
O   O17       1.0  0.95084  0.40826  0.60438  1.0000 -0.5125575873
O   O18       1.0  0.04916  0.59174  0.60438  1.0000 -0.5125575873
O   O19       1.0  0.59174  0.04916  0.39562  1.0000 -0.5125575873
O   O20       1.0  0.40826  0.95084  0.39562  1.0000 -0.5125575873
O   O21       1.0  0.06683  0.49357  0.59745  1.0000 -0.5204204532
O   O22       1.0  0.93317  0.50643  0.59745  1.0000 -0.5204204532
O   O23       1.0  0.50643  0.93317  0.40255  1.0000 -0.5204204532
O   O24       1.0  0.49357  0.06683  0.40255  1.0000 -0.5204204532
O   O25       1.0  0.94770  0.40448  0.40694  1.0000 -0.5125575873
O   O26       1.0  0.05230  0.59552  0.40694  1.0000 -0.5125575873
O   O27       1.0  0.59552  0.05230  0.59306  1.0000 -0.5125575873
O   O28       1.0  0.40448  0.94770  0.59306  1.0000 -0.5125575873
O   O29       1.0  0.06398  0.49474  0.40447  1.0000 -0.5286135438
O   O30       1.0  0.93602  0.50526  0.40447  1.0000 -0.5286135438
O   O31       1.0  0.50526  0.93602  0.59553  1.0000 -0.5286135438
O   O32       1.0  0.49474  0.06398  0.59553  1.0000 -0.5286135438
