# DDEC6 charges by PACMAN v1.1 (https://github.com/mtap-research/PACMAN-charge/)
data_2016[Eu][nan]3[ASR]2
_chemical_formula_sum              "Eu4 H60 C108 O24"
_cell_length_a       22.2136
_cell_length_b       22.2136
_cell_length_c       13.87
_cell_angle_alpha    78.6295
_cell_angle_beta     101.371
_cell_angle_gamma    143.087

_symmetry_space_group_name_H-M    "P 1"
_symmetry_Int_Tables_number       1

loop_
  _symmetry_equiv_pos_as_xyz
  'x, y, z'

loop_
  _atom_site_type_symbol
  _atom_site_label
  _atom_site_symmetry_multiplicity
  _atom_site_fract_x
  _atom_site_fract_y
  _atom_site_fract_z
  _atom_site_occupancy
  _atom_site_charge
Eu  Eu1       1.0  0.50355  0.91177  0.54796  1.0000 2.0528418025
Eu  Eu2       1.0  0.91177  0.50355  0.95204  1.0000 2.0552089016
Eu  Eu3       1.0  0.49645  0.08823  0.45204  1.0000 2.0528418025
Eu  Eu4       1.0  0.08823  0.49645  0.04796  1.0000 2.0528418025
H   H1        1.0  0.22250  0.84950  0.41150  1.0000 0.1293011482
H   H2        1.0  0.84950  0.22250  0.08850  1.0000 0.1293011482
H   H3        1.0  0.77750  0.15050  0.58850  1.0000 0.1293011482
H   H4        1.0  0.15050  0.77750  0.91150  1.0000 0.1293011482
H   H5        1.0  0.00450  0.65290  0.21050  1.0000 0.1193943976
H   H6        1.0  0.65290  0.00450  0.28950  1.0000 0.1193943976
H   H7        1.0  0.99550  0.34710  0.78950  1.0000 0.1193943976
H   H8        1.0  0.34710  0.99550  0.71050  1.0000 0.1193943976
H   H9        1.0  0.21450  0.68970  0.29950  1.0000 0.1293011482
H   H10       1.0  0.68970  0.21450  0.20050  1.0000 0.1293011482
H   H11       1.0  0.78550  0.31030  0.70050  1.0000 0.1293011482
H   H12       1.0  0.31030  0.78550  0.79950  1.0000 0.1293011482
H   H13       1.0  0.17700  0.91700  0.34850  1.0000 0.1193943976
H   H14       1.0  0.91700  0.17700  0.15150  1.0000 0.1193943976
H   H15       1.0  0.82300  0.08300  0.65150  1.0000 0.1193943976
H   H16       1.0  0.08300  0.82300  0.84850  1.0000 0.1193943976
H   H17       1.0  0.10280  0.94620  0.37460  1.0000 0.1014239292
H   H18       1.0  0.94620  0.10280  0.12540  1.0000 0.1014239292
H   H19       1.0  0.89720  0.05380  0.62540  1.0000 0.1014239292
H   H20       1.0  0.05380  0.89720  0.87460  1.0000 0.1014239292
H   H21       1.0  0.82970  0.65390  0.32000  1.0000 0.1014239292
H   H22       1.0  0.65390  0.82970  0.18000  1.0000 0.1014239292
H   H23       1.0  0.17030  0.34610  0.68000  1.0000 0.1014239292
H   H24       1.0  0.34610  0.17030  0.82000  1.0000 0.1014239292
H   H25       1.0  0.90860  0.62580  0.30660  1.0000 0.108131837
H   H26       1.0  0.62580  0.90860  0.19340  1.0000 0.108131837
H   H27       1.0  0.09140  0.37420  0.69340  1.0000 0.108131837
H   H28       1.0  0.37420  0.09140  0.80660  1.0000 0.108131837
H   H29       1.0  0.03100  0.96720  0.38770  1.0000 0.108131837
H   H30       1.0  0.96720  0.03100  0.11230  1.0000 0.108131837
H   H31       1.0  0.96900  0.03280  0.61230  1.0000 0.108131837
H   H32       1.0  0.03280  0.96900  0.88770  1.0000 0.108131837
H   H33       1.0  0.95110  0.98930  0.41950  1.0000 0.108131837
H   H34       1.0  0.98930  0.95110  0.08050  1.0000 0.108131837
H   H35       1.0  0.04890  0.01070  0.58050  1.0000 0.108131837
H   H36       1.0  0.01070  0.04890  0.91950  1.0000 0.108131837
H   H37       1.0  0.68300  0.69760  0.38040  1.0000 0.108131837
H   H38       1.0  0.69760  0.68300  0.11960  1.0000 0.108131837
H   H39       1.0  0.31700  0.30240  0.61960  1.0000 0.108131837
H   H40       1.0  0.30240  0.31700  0.88040  1.0000 0.108131837
H   H41       1.0  0.76300  0.67540  0.34860  1.0000 0.108131837
H   H42       1.0  0.67540  0.76300  0.15140  1.0000 0.108131837
H   H43       1.0  0.23700  0.32460  0.65140  1.0000 0.108131837
H   H44       1.0  0.32460  0.23700  0.84860  1.0000 0.108131837
H   H45       1.0  0.87740  0.01200  0.42000  1.0000 0.108131837
H   H46       1.0  0.01200  0.87740  0.08000  1.0000 0.108131837
H   H47       1.0  0.12260  0.98800  0.58000  1.0000 0.108131837
H   H48       1.0  0.98800  0.12260  0.92000  1.0000 0.108131837
H   H49       1.0  0.79640  0.03100  0.45890  1.0000 0.1193943976
H   H50       1.0  0.03100  0.79640  0.04110  1.0000 0.1193943976
H   H51       1.0  0.20360  0.96900  0.54110  1.0000 0.1193943976
H   H52       1.0  0.96900  0.20360  0.95890  1.0000 0.1193943976
H   H53       1.0  0.53660  0.73140  0.46900  1.0000 0.1193943976
H   H54       1.0  0.73140  0.53660  0.03100  1.0000 0.1193943976
H   H55       1.0  0.46340  0.26860  0.53100  1.0000 0.1193943976
H   H56       1.0  0.26860  0.46340  0.96900  1.0000 0.1193943976
H   H57       1.0  0.61750  0.71250  0.43010  1.0000 0.108131837
H   H58       1.0  0.71250  0.61750  0.06990  1.0000 0.108131837
H   H59       1.0  0.38250  0.28750  0.56990  1.0000 0.108131837
H   H60       1.0  0.28750  0.38250  0.93010  1.0000 0.108131837
C   C1        1.0  0.32600  0.83160  0.42290  1.0000 0.621783043
C   C2        1.0  0.83160  0.32600  0.07710  1.0000 0.621783043
C   C3        1.0  0.67400  0.16840  0.57710  1.0000 0.621783043
C   C4        1.0  0.16840  0.67400  0.92290  1.0000 0.621783043
C   C5        1.0  0.23530  0.78010  0.36420  1.0000 -0.0657699083
C   C6        1.0  0.78010  0.23530  0.13580  1.0000 -0.0642386873
C   C7        1.0  0.76470  0.21990  0.63580  1.0000 -0.0642386873
C   C8        1.0  0.21990  0.76470  0.86420  1.0000 -0.0657699083
C   C9        1.0  0.19220  0.80160  0.36970  1.0000 -0.1313664813
C   C10       1.0  0.80160  0.19220  0.13030  1.0000 -0.1313664813
C   C11       1.0  0.80780  0.19840  0.63030  1.0000 -0.1313664813
C   C12       1.0  0.19840  0.80780  0.86970  1.0000 -0.1313664813
C   C13       1.0  0.10350  0.75210  0.31300  1.0000 0.0605354583
C   C14       1.0  0.75210  0.10350  0.18700  1.0000 0.0605354583
C   C15       1.0  0.89650  0.24790  0.68700  1.0000 0.0605354583
C   C16       1.0  0.24790  0.89650  0.81300  1.0000 0.0605354583
C   C17       1.0  0.06290  0.68550  0.24850  1.0000 -0.1313664813
C   C18       1.0  0.68550  0.06290  0.25150  1.0000 -0.1313664813
C   C19       1.0  0.93710  0.31450  0.75150  1.0000 -0.1313664813
C   C20       1.0  0.31450  0.93710  0.74850  1.0000 -0.1313664813
C   C21       1.0  0.10550  0.66510  0.23770  1.0000 -0.0072731204
C   C22       1.0  0.66510  0.10550  0.26230  1.0000 -0.0072731204
C   C23       1.0  0.89450  0.33490  0.76230  1.0000 -0.0072731204
C   C24       1.0  0.33490  0.89450  0.73770  1.0000 -0.0072731204
C   C25       1.0  0.18940  0.70860  0.30040  1.0000 -0.0772606221
C   C26       1.0  0.70860  0.18940  0.19960  1.0000 -0.0772606221
C   C27       1.0  0.81060  0.29140  0.69960  1.0000 -0.0772606221
C   C28       1.0  0.29140  0.81060  0.80040  1.0000 -0.0772606221
C   C29       1.0  0.05820  0.58920  0.16280  1.0000 0.634950618
C   C30       1.0  0.58920  0.05820  0.33720  1.0000 0.634950618
C   C31       1.0  0.94180  0.41080  0.83720  1.0000 0.634950618
C   C32       1.0  0.41080  0.94180  0.66280  1.0000 0.634950618
C   C33       1.0  0.05430  0.77190  0.32360  1.0000 0.0605354583
C   C34       1.0  0.77190  0.05430  0.17640  1.0000 0.0605354583
C   C35       1.0  0.94570  0.22810  0.67640  1.0000 0.0605354583
C   C36       1.0  0.22810  0.94570  0.82360  1.0000 0.0605354583
C   C37       1.0  0.10720  0.86380  0.34450  1.0000 -0.1436059077
C   C38       1.0  0.86380  0.10720  0.15550  1.0000 -0.1436059077
C   C39       1.0  0.89280  0.13620  0.65550  1.0000 -0.1436059077
C   C40       1.0  0.13620  0.89280  0.84450  1.0000 -0.1436059077
C   C41       1.0  0.06300  0.88260  0.36010  1.0000 -0.1638158283
C   C42       1.0  0.88260  0.06300  0.13990  1.0000 -0.1638158283
C   C43       1.0  0.93700  0.11740  0.63990  1.0000 -0.1638158283
C   C44       1.0  0.11740  0.93700  0.86010  1.0000 -0.1638158283
C   C45       1.0  0.95710  0.80330  0.35360  1.0000 0.0683907892
C   C46       1.0  0.80330  0.95710  0.14640  1.0000 0.0683907892
C   C47       1.0  0.04290  0.19670  0.64640  1.0000 0.0683907892
C   C48       1.0  0.19670  0.04290  0.85360  1.0000 0.0683907892
C   C49       1.0  0.89930  0.70610  0.32870  1.0000 -0.1638158283
C   C50       1.0  0.70610  0.89930  0.17130  1.0000 -0.1638158283
C   C51       1.0  0.10070  0.29390  0.67130  1.0000 -0.1638158283
C   C52       1.0  0.29390  0.10070  0.82870  1.0000 -0.1638158283
C   C53       1.0  0.94660  0.68960  0.31770  1.0000 -0.1509787147
C   C54       1.0  0.68960  0.94660  0.18230  1.0000 -0.1509787147
C   C55       1.0  0.05340  0.31040  0.68230  1.0000 -0.1509787147
C   C56       1.0  0.31040  0.05340  0.81770  1.0000 -0.1509787147
C   C57       1.0  0.90490  0.81910  0.36500  1.0000 0.0605354583
C   C58       1.0  0.81910  0.90490  0.13500  1.0000 0.0605354583
C   C59       1.0  0.09510  0.18090  0.63500  1.0000 0.0605354583
C   C60       1.0  0.18090  0.09510  0.86500  1.0000 0.0605354583
C   C61       1.0  0.96130  0.91310  0.38620  1.0000 -0.1509787147
C   C62       1.0  0.91310  0.96130  0.11380  1.0000 -0.1509787147
C   C63       1.0  0.03870  0.08690  0.61380  1.0000 -0.1509787147
C   C64       1.0  0.08690  0.03870  0.88620  1.0000 -0.1509787147
C   C65       1.0  0.91340  0.92640  0.40530  1.0000 -0.1509787147
C   C66       1.0  0.92640  0.91340  0.09470  1.0000 -0.1509787147
C   C67       1.0  0.08660  0.07360  0.59470  1.0000 -0.1509787147
C   C68       1.0  0.07360  0.08660  0.90530  1.0000 -0.1509787147
C   C69       1.0  0.80910  0.84570  0.40310  1.0000 0.0683907892
C   C70       1.0  0.84570  0.80910  0.09690  1.0000 0.0683907892
C   C71       1.0  0.19090  0.15430  0.59690  1.0000 0.0683907892
C   C72       1.0  0.15430  0.19090  0.90310  1.0000 0.0683907892
C   C73       1.0  0.75280  0.75160  0.38190  1.0000 -0.1509787147
C   C74       1.0  0.75160  0.75280  0.11810  1.0000 -0.1509787147
C   C75       1.0  0.24720  0.24840  0.61810  1.0000 -0.1509787147
C   C76       1.0  0.24840  0.24720  0.88190  1.0000 -0.1509787147
C   C77       1.0  0.80060  0.73840  0.36280  1.0000 -0.1509787147
C   C78       1.0  0.73840  0.80060  0.13720  1.0000 -0.1509787147
C   C79       1.0  0.19940  0.26160  0.63720  1.0000 -0.1509787147
C   C80       1.0  0.26160  0.19940  0.86280  1.0000 -0.1509787147
C   C81       1.0  0.60690  0.89510  0.50050  1.0000 0.5459043633
C   C82       1.0  0.89510  0.60690  0.99950  1.0000 0.5459043633
C   C83       1.0  0.39310  0.10490  0.49950  1.0000 0.5459043633
C   C84       1.0  0.10490  0.39310  0.00050  1.0000 0.5459043633
C   C85       1.0  0.75544  0.86036  0.42120  1.0000 0.0683907892
C   C86       1.0  0.86036  0.75544  0.07880  1.0000 0.0683907892
C   C87       1.0  0.24456  0.13964  0.57880  1.0000 0.0683907892
C   C88       1.0  0.13964  0.24456  0.92120  1.0000 0.0683907892
C   C89       1.0  0.80900  0.95580  0.42980  1.0000 -0.1638158283
C   C90       1.0  0.95580  0.80900  0.07020  1.0000 -0.1638158283
C   C91       1.0  0.19100  0.04420  0.57020  1.0000 -0.1638158283
C   C92       1.0  0.04420  0.19100  0.92980  1.0000 -0.1638158283
C   C93       1.0  0.76051  0.96709  0.45310  1.0000 -0.0957182211
C   C94       1.0  0.96709  0.76051  0.04690  1.0000 -0.0957182211
C   C95       1.0  0.23949  0.03291  0.54690  1.0000 -0.0957182211
C   C96       1.0  0.03291  0.23949  0.95310  1.0000 -0.0957182211
C   C97       1.0  0.65839  0.88301  0.46780  1.0000 -0.0179852843
C   C98       1.0  0.88301  0.65839  0.03220  1.0000 -0.0179852843
C   C99       1.0  0.34161  0.11699  0.53220  1.0000 -0.0179852843
C   C100      1.0  0.11699  0.34161  0.96780  1.0000 -0.0179852843
C   C101      1.0  0.60480  0.78760  0.45920  1.0000 -0.093161722
C   C102      1.0  0.78760  0.60480  0.04080  1.0000 -0.093161722
C   C103      1.0  0.39520  0.21240  0.54080  1.0000 -0.093161722
C   C104      1.0  0.21240  0.39520  0.95920  1.0000 -0.093161722
C   C105      1.0  0.65330  0.77630  0.43590  1.0000 -0.1638158283
C   C106      1.0  0.77630  0.65330  0.06410  1.0000 -0.1638158283
C   C107      1.0  0.34670  0.22370  0.56410  1.0000 -0.1638158283
C   C108      1.0  0.22370  0.34670  0.93590  1.0000 -0.1638158283
O   O1        1.0  0.34455  0.79005  0.44920  1.0000 -0.5845295985
O   O2        1.0  0.79005  0.34455  0.05080  1.0000 -0.5869353214
O   O3        1.0  0.65545  0.20995  0.55080  1.0000 -0.5869353214
O   O4        1.0  0.20995  0.65545  0.94920  1.0000 -0.5845295985
O   O5        1.0  0.38951  0.91849  0.45140  1.0000 -0.7404671509
O   O6        1.0  0.91849  0.38951  0.04860  1.0000 -0.7404671509
O   O7        1.0  0.61049  0.08151  0.54860  1.0000 -0.7404671509
O   O8        1.0  0.08151  0.61049  0.95140  1.0000 -0.7404671509
O   O9        1.0  0.09974  0.57546  0.15990  1.0000 -0.6072638829
O   O10       1.0  0.57546  0.09974  0.34010  1.0000 -0.6072638829
O   O11       1.0  0.90026  0.42454  0.84010  1.0000 -0.6072638829
O   O12       1.0  0.42454  0.90026  0.65990  1.0000 -0.6072638829
O   O13       1.0  0.97620  0.54400  0.11900  1.0000 -0.6443005551
O   O14       1.0  0.54400  0.97620  0.38100  1.0000 -0.6443005551
O   O15       1.0  0.02380  0.45600  0.88100  1.0000 -0.6443005551
O   O16       1.0  0.45600  0.02380  0.61900  1.0000 -0.6443005551
O   O17       1.0  0.51400  0.82120  0.49420  1.0000 -0.6012025525
O   O18       1.0  0.82120  0.51400  0.00580  1.0000 -0.6012025525
O   O19       1.0  0.48600  0.17880  0.50580  1.0000 -0.6012025525
O   O20       1.0  0.17880  0.48600  0.99420  1.0000 -0.6012025525
O   O21       1.0  0.65650  0.97550  0.52530  1.0000 -0.5869353214
O   O22       1.0  0.97550  0.65650  0.97470  1.0000 -0.5869353214
O   O23       1.0  0.34350  0.02450  0.47470  1.0000 -0.5869353214
O   O24       1.0  0.02450  0.34350  0.02530  1.0000 -0.5869353214
