# DDEC6 charges by PACMAN v1.1 (https://github.com/mtap-research/PACMAN-charge/)
data_2016[ZnCoNa][nan]3[ASR]1
_chemical_formula_sum              "Na2 Zn8 Co2 H36 C92 N12 O43"
_cell_length_a       17.2412
_cell_length_b       17.2412
_cell_length_c       13.646
_cell_angle_alpha    84.7074
_cell_angle_beta     95.2926
_cell_angle_gamma    67.3027

_symmetry_space_group_name_H-M    "P 1"
_symmetry_Int_Tables_number       1

loop_
  _symmetry_equiv_pos_as_xyz
  'x, y, z'

loop_
  _atom_site_type_symbol
  _atom_site_label
  _atom_site_symmetry_multiplicity
  _atom_site_fract_x
  _atom_site_fract_y
  _atom_site_fract_z
  _atom_site_occupancy
  _atom_site_charge
Na  Na1       1.0  0.90340  0.09660  0.01480  1.0000 1.0480960437
Na  Na2       1.0  0.09660  0.90340  0.98520  1.0000 1.0480960437
Zn  Zn1       1.0  0.48882  0.88296  0.39312  1.0000 0.9736671277
Zn  Zn2       1.0  0.88296  0.48882  0.60688  1.0000 0.9736671277
Zn  Zn3       1.0  0.51118  0.11704  0.60688  1.0000 0.9736671277
Zn  Zn4       1.0  0.11704  0.51118  0.39312  1.0000 0.9736671277
Zn  Zn5       1.0  0.18388  0.81612  0.80128  1.0000 0.9903193542
Zn  Zn6       1.0  0.81612  0.18388  0.19872  1.0000 0.9903193542
Zn  Zn7       1.0  0.30786  0.69214  0.03083  1.0000 1.0895470806
Zn  Zn8       1.0  0.69214  0.30786  0.96917  1.0000 1.0895470806
Co  Co1       1.0  0.72133  0.72133  0.00000  1.0000 0.5904980429
Co  Co2       1.0  0.27867  0.27867  0.00000  1.0000 0.5904980429
H   H1        1.0  0.98560  0.51880  0.17170  1.0000 0.1473183462
H   H2        1.0  0.51880  0.98560  0.82830  1.0000 0.1473183462
H   H3        1.0  0.01440  0.48120  0.82830  1.0000 0.1473183462
H   H4        1.0  0.48120  0.01440  0.17170  1.0000 0.1473183462
H   H5        1.0  0.98640  0.40900  0.08070  1.0000 0.1135148056
H   H6        1.0  0.40900  0.98640  0.91930  1.0000 0.1135148056
H   H7        1.0  0.01360  0.59100  0.91930  1.0000 0.1135148056
H   H8        1.0  0.59100  0.01360  0.08070  1.0000 0.1135148056
H   H9        1.0  0.88060  0.43600  0.94780  1.0000 0.1599937805
H   H10       1.0  0.43600  0.88060  0.05220  1.0000 0.1599937805
H   H11       1.0  0.11940  0.56400  0.05220  1.0000 0.1599937805
H   H12       1.0  0.56400  0.11940  0.94780  1.0000 0.1599937805
H   H13       1.0  0.53360  0.68160  0.93520  1.0000 0.1386451303
H   H14       1.0  0.68160  0.53360  0.06480  1.0000 0.1386451303
H   H15       1.0  0.46640  0.31840  0.06480  1.0000 0.1386451303
H   H16       1.0  0.31840  0.46640  0.93520  1.0000 0.1386451303
H   H17       1.0  0.39680  0.81220  0.67890  1.0000 0.1386451303
H   H18       1.0  0.81220  0.39680  0.32110  1.0000 0.1386451303
H   H19       1.0  0.60320  0.18780  0.32110  1.0000 0.1386451303
H   H20       1.0  0.18780  0.60320  0.67890  1.0000 0.1386451303
H   H21       1.0  0.64980  0.73680  0.71510  1.0000 0.1473183462
H   H22       1.0  0.73680  0.64980  0.28490  1.0000 0.1473183462
H   H23       1.0  0.35020  0.26320  0.28490  1.0000 0.1473183462
H   H24       1.0  0.26320  0.35020  0.71510  1.0000 0.1473183462
H   H25       1.0  0.68410  0.80630  0.22800  1.0000 0.1339737416
H   H26       1.0  0.80630  0.68410  0.77200  1.0000 0.1339737416
H   H27       1.0  0.31590  0.19370  0.77200  1.0000 0.1339737416
H   H28       1.0  0.19370  0.31590  0.22800  1.0000 0.1339737416
H   H29       1.0  0.71560  0.01920  0.26770  1.0000 0.122593505
H   H30       1.0  0.01920  0.71560  0.73230  1.0000 0.122593505
H   H31       1.0  0.28440  0.98080  0.73230  1.0000 0.122593505
H   H32       1.0  0.98080  0.28440  0.26770  1.0000 0.122593505
H   H33       1.0  0.83640  0.87360  0.06960  1.0000 0.1386451303
H   H34       1.0  0.87360  0.83640  0.93040  1.0000 0.1386451303
H   H35       1.0  0.16360  0.12640  0.93040  1.0000 0.1386451303
H   H36       1.0  0.12640  0.16360  0.06960  1.0000 0.1386451303
C   C1        1.0  0.86230  0.68550  0.14050  1.0000 0.4213745424
C   C2        1.0  0.68550  0.86230  0.85950  1.0000 0.4213745424
C   C3        1.0  0.13770  0.31450  0.85950  1.0000 0.4213745424
C   C4        1.0  0.31450  0.13770  0.14050  1.0000 0.4213745424
C   C5        1.0  0.87880  0.60800  0.09110  1.0000 0.1135148056
C   C6        1.0  0.60800  0.87880  0.90890  1.0000 0.1135148056
C   C7        1.0  0.12120  0.39200  0.90890  1.0000 0.1135148056
C   C8        1.0  0.39200  0.12120  0.09110  1.0000 0.1135148056
C   C9        1.0  0.94340  0.52860  0.11870  1.0000 -0.1110209993
C   C10       1.0  0.52860  0.94340  0.88130  1.0000 -0.1110209993
C   C11       1.0  0.05660  0.47140  0.88130  1.0000 -0.1110209993
C   C12       1.0  0.47140  0.05660  0.11870  1.0000 -0.1110209993
C   C13       1.0  0.94340  0.46300  0.06400  1.0000 -0.0353234153
C   C14       1.0  0.46300  0.94340  0.93600  1.0000 -0.0353234153
C   C15       1.0  0.05660  0.53700  0.93600  1.0000 -0.0353234153
C   C16       1.0  0.53700  0.05660  0.06400  1.0000 -0.0353234153
C   C17       1.0  0.88000  0.47820  0.98580  1.0000 -0.1203696489
C   C18       1.0  0.47820  0.88000  0.01420  1.0000 -0.1203696489
C   C19       1.0  0.12000  0.52180  0.01420  1.0000 -0.1203696489
C   C20       1.0  0.52180  0.12000  0.98580  1.0000 -0.1203696489
C   C21       1.0  0.81602  0.55822  0.96630  1.0000 0.1135148056
C   C22       1.0  0.55822  0.81602  0.03370  1.0000 0.1135148056
C   C23       1.0  0.18398  0.44178  0.03370  1.0000 0.1135148056
C   C24       1.0  0.44178  0.18398  0.96630  1.0000 0.1135148056
C   C25       1.0  0.73820  0.58580  0.89280  1.0000 0.4109799319
C   C26       1.0  0.58580  0.73820  0.10720  1.0000 0.4109799319
C   C27       1.0  0.26180  0.41420  0.10720  1.0000 0.4109799319
C   C28       1.0  0.41420  0.26180  0.89280  1.0000 0.4109799319
C   C29       1.0  0.60410  0.70250  0.83590  1.0000 0.2199157008
C   C30       1.0  0.70250  0.60410  0.16410  1.0000 0.2199157008
C   C31       1.0  0.39590  0.29750  0.16410  1.0000 0.2199157008
C   C32       1.0  0.29750  0.39590  0.83590  1.0000 0.2199157008
C   C33       1.0  0.53090  0.70750  0.87140  1.0000 -0.1597912556
C   C34       1.0  0.70750  0.53090  0.12860  1.0000 -0.1597912556
C   C35       1.0  0.46910  0.29250  0.12860  1.0000 -0.1597912556
C   C36       1.0  0.29250  0.46910  0.87140  1.0000 -0.1597912556
C   C37       1.0  0.45370  0.74990  0.81420  1.0000 -0.0019571954
C   C38       1.0  0.74990  0.45370  0.18580  1.0000 -0.0019571954
C   C39       1.0  0.54630  0.25010  0.18580  1.0000 -0.0019571954
C   C40       1.0  0.25010  0.54630  0.81420  1.0000 -0.0019571954
C   C41       1.0  0.44920  0.78500  0.71860  1.0000 -0.1110209993
C   C42       1.0  0.78500  0.44920  0.28140  1.0000 -0.1110209993
C   C43       1.0  0.55080  0.21500  0.28140  1.0000 -0.1110209993
C   C44       1.0  0.21500  0.55080  0.71860  1.0000 -0.1110209993
C   C45       1.0  0.52260  0.78020  0.68080  1.0000 0.0087587914
C   C46       1.0  0.78020  0.52260  0.31920  1.0000 0.0087587914
C   C47       1.0  0.47740  0.21980  0.31920  1.0000 0.0087587914
C   C48       1.0  0.21980  0.47740  0.68080  1.0000 0.0087587914
C   C49       1.0  0.60050  0.73950  0.73960  1.0000 -0.1597912556
C   C50       1.0  0.73950  0.60050  0.26040  1.0000 -0.1597912556
C   C51       1.0  0.39950  0.26050  0.26040  1.0000 -0.1597912556
C   C52       1.0  0.26050  0.39950  0.73960  1.0000 -0.1597912556
C   C53       1.0  0.36990  0.76110  0.85490  1.0000 0.580800707
C   C54       1.0  0.76110  0.36990  0.14510  1.0000 0.580800707
C   C55       1.0  0.63010  0.23890  0.14510  1.0000 0.580800707
C   C56       1.0  0.23890  0.63010  0.85490  1.0000 0.580800707
C   C57       1.0  0.51650  0.81870  0.57560  1.0000 0.5595463195
C   C58       1.0  0.81870  0.51650  0.42440  1.0000 0.5595463195
C   C59       1.0  0.48350  0.18130  0.42440  1.0000 0.5595463195
C   C60       1.0  0.18130  0.48350  0.57560  1.0000 0.5595463195
C   C61       1.0  0.76589  0.82569  0.14530  1.0000 0.2199157008
C   C62       1.0  0.82569  0.76589  0.85470  1.0000 0.2199157008
C   C63       1.0  0.23411  0.17431  0.85470  1.0000 0.2199157008
C   C64       1.0  0.17431  0.23411  0.14530  1.0000 0.2199157008
C   C65       1.0  0.70930  0.84410  0.21270  1.0000 -0.174755188
C   C66       1.0  0.84410  0.70930  0.78730  1.0000 -0.174755188
C   C67       1.0  0.29070  0.15590  0.78730  1.0000 -0.174755188
C   C68       1.0  0.15590  0.29070  0.21270  1.0000 -0.174755188
C   C69       1.0  0.68830  0.91530  0.25850  1.0000 -0.02329517
C   C70       1.0  0.91530  0.68830  0.74150  1.0000 -0.02329517
C   C71       1.0  0.31170  0.08470  0.74150  1.0000 -0.02329517
C   C72       1.0  0.08470  0.31170  0.25850  1.0000 -0.02329517
C   C73       1.0  0.72670  0.97170  0.23530  1.0000 -0.1203696489
C   C74       1.0  0.97170  0.72670  0.76470  1.0000 -0.1203696489
C   C75       1.0  0.27330  0.02830  0.76470  1.0000 -0.1203696489
C   C76       1.0  0.02830  0.27330  0.23530  1.0000 -0.1203696489
C   C77       1.0  0.78130  0.95670  0.16430  1.0000 -0.0099569832
C   C78       1.0  0.95670  0.78130  0.83570  1.0000 -0.0099569832
C   C79       1.0  0.21870  0.04330  0.83570  1.0000 -0.0099569832
C   C80       1.0  0.04330  0.21870  0.16430  1.0000 -0.0099569832
C   C81       1.0  0.80060  0.88340  0.11810  1.0000 -0.1471239276
C   C82       1.0  0.88340  0.80060  0.88190  1.0000 -0.1471239276
C   C83       1.0  0.19940  0.11660  0.88190  1.0000 -0.1471239276
C   C84       1.0  0.11660  0.19940  0.11810  1.0000 -0.1471239276
C   C85       1.0  0.62440  0.93420  0.32910  1.0000 0.5745694467
C   C86       1.0  0.93420  0.62440  0.67090  1.0000 0.5745694467
C   C87       1.0  0.37560  0.06580  0.67090  1.0000 0.580800707
C   C88       1.0  0.06580  0.37560  0.32910  1.0000 0.580800707
C   C89       1.0  0.81710  0.01990  0.13390  1.0000 0.580800707
C   C90       1.0  0.01990  0.81710  0.86610  1.0000 0.580800707
C   C91       1.0  0.18290  0.98010  0.86610  1.0000 0.580800707
C   C92       1.0  0.98010  0.18290  0.13390  1.0000 0.580800707
N   N1        1.0  0.78940  0.74840  0.10410  1.0000 -0.4280230201
N   N2        1.0  0.74840  0.78940  0.89590  1.0000 -0.4280230201
N   N3        1.0  0.21060  0.25160  0.89590  1.0000 -0.4280230201
N   N4        1.0  0.25160  0.21060  0.10410  1.0000 -0.4280230201
N   N5        1.0  0.81690  0.61990  0.01760  1.0000 -0.199926982
N   N6        1.0  0.61990  0.81690  0.98240  1.0000 -0.199926982
N   N7        1.0  0.18310  0.38010  0.98240  1.0000 -0.199926982
N   N8        1.0  0.38010  0.18310  0.01760  1.0000 -0.199926982
N   N9        1.0  0.68348  0.66508  0.89900  1.0000 -0.4280230201
N   N10       1.0  0.66508  0.68348  0.10100  1.0000 -0.4280230201
N   N11       1.0  0.31652  0.33492  0.10100  1.0000 -0.4280230201
N   N12       1.0  0.33492  0.31652  0.89900  1.0000 -0.4280230201
O   O1        1.0  0.91390  0.68410  0.20680  1.0000 -0.3874477542
O   O2        1.0  0.68410  0.91390  0.79320  1.0000 -0.3874477542
O   O3        1.0  0.08610  0.31590  0.79320  1.0000 -0.3874477542
O   O4        1.0  0.31590  0.08610  0.20680  1.0000 -0.3874477542
O   O5        1.0  0.72548  0.53728  0.83470  1.0000 -0.4497402779
O   O6        1.0  0.53728  0.72548  0.16530  1.0000 -0.4497402779
O   O7        1.0  0.27452  0.46272  0.16530  1.0000 -0.4497402779
O   O8        1.0  0.46272  0.27452  0.83470  1.0000 -0.4497402779
O   O9        1.0  0.57470  0.83350  0.54940  1.0000 -0.461423049
O   O10       1.0  0.83350  0.57470  0.45060  1.0000 -0.461423049
O   O11       1.0  0.42530  0.16650  0.45060  1.0000 -0.461423049
O   O12       1.0  0.16650  0.42530  0.54940  1.0000 -0.461423049
O   O13       1.0  0.45090  0.83430  0.51630  1.0000 -0.4927492908
O   O14       1.0  0.83430  0.45090  0.48370  1.0000 -0.4927492908
O   O15       1.0  0.54910  0.16570  0.48370  1.0000 -0.4927492908
O   O16       1.0  0.16570  0.54910  0.51630  1.0000 -0.4927492908
O   O17       1.0  0.30730  0.79030  0.79910  1.0000 -0.4429757318
O   O18       1.0  0.79030  0.30730  0.20090  1.0000 -0.4429757318
O   O19       1.0  0.69270  0.20970  0.20090  1.0000 -0.4429757318
O   O20       1.0  0.20970  0.69270  0.79910  1.0000 -0.4429757318
O   O21       1.0  0.38060  0.72640  0.94380  1.0000 -0.5503440968
O   O22       1.0  0.72640  0.38060  0.05620  1.0000 -0.5503440968
O   O23       1.0  0.61940  0.27360  0.05620  1.0000 -0.5503440968
O   O24       1.0  0.27360  0.61940  0.94380  1.0000 -0.5503440968
O   O25       1.0  0.57400  0.89780  0.31780  1.0000 -0.5813820086
O   O26       1.0  0.89780  0.57400  0.68220  1.0000 -0.5813820086
O   O27       1.0  0.42600  0.10220  0.68220  1.0000 -0.5813820086
O   O28       1.0  0.10220  0.42600  0.31780  1.0000 -0.5813820086
O   O29       1.0  0.62420  0.98340  0.39230  1.0000 -0.5029579571
O   O30       1.0  0.98340  0.62420  0.60770  1.0000 -0.5029579571
O   O31       1.0  0.37580  0.01660  0.60770  1.0000 -0.5050351194
O   O32       1.0  0.01660  0.37580  0.39230  1.0000 -0.5029579571
O   O33       1.0  0.83627  0.05807  0.20090  1.0000 -0.5185303262
O   O34       1.0  0.05807  0.83627  0.79910  1.0000 -0.5185303262
O   O35       1.0  0.16373  0.94193  0.79910  1.0000 -0.5185303262
O   O36       1.0  0.94193  0.16373  0.20090  1.0000 -0.5185303262
O   O37       1.0  0.82780  0.03120  0.04730  1.0000 -0.5306179694
O   O38       1.0  0.03120  0.82780  0.95270  1.0000 -0.5306179694
O   O39       1.0  0.17220  0.96880  0.95270  1.0000 -0.5306179694
O   O40       1.0  0.96880  0.17220  0.04730  1.0000 -0.5306179694
O   O41       1.0  0.19850  0.80150  0.97130  1.0000 -0.9448175005
O   O42       1.0  0.80150  0.19850  0.02870  1.0000 -0.9469676188
O   O43       1.0  0.00000  0.00000  0.00000  1.0000 -1.0318786076
