# DDEC6 charges by PACMAN v1.1 (https://github.com/mtap-research/PACMAN-charge/)
data_2016[Zr][bct]3[ASR]1
_chemical_formula_sum              "Zr12 H80 C140 O56"
_cell_length_a       23.0725
_cell_length_b       23.0725
_cell_length_c       19.16
_cell_angle_alpha    90
_cell_angle_beta     90
_cell_angle_gamma    90

_symmetry_space_group_name_H-M    "P 1"
_symmetry_Int_Tables_number       1

loop_
  _symmetry_equiv_pos_as_xyz
  'x, y, z'

loop_
  _atom_site_type_symbol
  _atom_site_label
  _atom_site_symmetry_multiplicity
  _atom_site_fract_x
  _atom_site_fract_y
  _atom_site_fract_z
  _atom_site_occupancy
  _atom_site_charge
Zr  Zr1       1.0  0.92371  0.50000  0.59281  1.0000 2.436558112
Zr  Zr2       1.0  0.50000  0.07629  0.09281  1.0000 2.436558112
Zr  Zr3       1.0  0.07629  0.50000  0.59281  1.0000 2.436558112
Zr  Zr4       1.0  0.50000  0.92371  0.09281  1.0000 2.436558112
Zr  Zr5       1.0  0.07629  0.50000  0.40719  1.0000 2.436558112
Zr  Zr6       1.0  0.92371  0.50000  0.40719  1.0000 2.436558112
Zr  Zr7       1.0  0.50000  0.92371  0.90719  1.0000 2.436558112
Zr  Zr8       1.0  0.50000  0.07629  0.90719  1.0000 2.436558112
Zr  Zr9       1.0  0.00000  0.60867  0.50000  1.0000 2.4649068857
Zr  Zr10      1.0  0.60867  0.00000  0.00000  1.0000 2.4649068857
Zr  Zr11      1.0  0.00000  0.39133  0.50000  1.0000 2.465629294
Zr  Zr12      1.0  0.39133  0.00000  0.00000  1.0000 2.465629294
H   H1        1.0  0.90700  0.75570  0.62380  1.0000 0.1365625119
H   H2        1.0  0.75570  0.09300  0.12380  1.0000 0.1365625119
H   H3        1.0  0.09300  0.24430  0.62380  1.0000 0.1365625119
H   H4        1.0  0.24430  0.90700  0.12380  1.0000 0.1365625119
H   H5        1.0  0.09300  0.75570  0.37620  1.0000 0.1365625119
H   H6        1.0  0.90700  0.24430  0.37620  1.0000 0.1365625119
H   H7        1.0  0.75570  0.90700  0.87620  1.0000 0.1365625119
H   H8        1.0  0.24430  0.09300  0.87620  1.0000 0.1365625119
H   H9        1.0  0.09300  0.24430  0.37620  1.0000 0.1365625119
H   H10       1.0  0.24430  0.90700  0.87620  1.0000 0.1365625119
H   H11       1.0  0.90700  0.75570  0.37620  1.0000 0.1365625119
H   H12       1.0  0.75570  0.09300  0.87620  1.0000 0.1365625119
H   H13       1.0  0.90700  0.24430  0.62380  1.0000 0.1365625119
H   H14       1.0  0.09300  0.75570  0.62380  1.0000 0.1365625119
H   H15       1.0  0.24430  0.09300  0.12380  1.0000 0.1365625119
H   H16       1.0  0.75570  0.90700  0.12380  1.0000 0.1365625119
H   H17       1.0  0.84540  0.81920  0.68340  1.0000 0.1182073645
H   H18       1.0  0.81920  0.15460  0.18340  1.0000 0.1182073645
H   H19       1.0  0.15460  0.18080  0.68340  1.0000 0.1182073645
H   H20       1.0  0.18080  0.84540  0.18340  1.0000 0.1182073645
H   H21       1.0  0.15460  0.81920  0.31660  1.0000 0.1182073645
H   H22       1.0  0.84540  0.18080  0.31660  1.0000 0.1182073645
H   H23       1.0  0.81920  0.84540  0.81660  1.0000 0.1182073645
H   H24       1.0  0.18080  0.15460  0.81660  1.0000 0.1182073645
H   H25       1.0  0.15460  0.18080  0.31660  1.0000 0.1182073645
H   H26       1.0  0.18080  0.84540  0.81660  1.0000 0.1182073645
H   H27       1.0  0.84540  0.81920  0.31660  1.0000 0.1182073645
H   H28       1.0  0.81920  0.15460  0.81660  1.0000 0.1182073645
H   H29       1.0  0.84540  0.18080  0.68340  1.0000 0.1182073645
H   H30       1.0  0.15460  0.81920  0.68340  1.0000 0.1182073645
H   H31       1.0  0.18080  0.15460  0.18340  1.0000 0.1182073645
H   H32       1.0  0.81920  0.84540  0.18340  1.0000 0.1182073645
H   H33       1.0  0.76100  0.68230  0.76850  1.0000 0.1182073645
H   H34       1.0  0.68230  0.23900  0.26850  1.0000 0.1182073645
H   H35       1.0  0.23900  0.31770  0.76850  1.0000 0.1182073645
H   H36       1.0  0.31770  0.76100  0.26850  1.0000 0.1182073645
H   H37       1.0  0.23900  0.68230  0.23150  1.0000 0.1182073645
H   H38       1.0  0.76100  0.31770  0.23150  1.0000 0.1182073645
H   H39       1.0  0.68230  0.76100  0.73150  1.0000 0.1182073645
H   H40       1.0  0.31770  0.23900  0.73150  1.0000 0.1182073645
H   H41       1.0  0.23900  0.31770  0.23150  1.0000 0.1182073645
H   H42       1.0  0.31770  0.76100  0.73150  1.0000 0.1182073645
H   H43       1.0  0.76100  0.68230  0.23150  1.0000 0.1182073645
H   H44       1.0  0.68230  0.23900  0.73150  1.0000 0.1182073645
H   H45       1.0  0.76100  0.31770  0.76850  1.0000 0.1182073645
H   H46       1.0  0.23900  0.68230  0.76850  1.0000 0.1182073645
H   H47       1.0  0.31770  0.23900  0.26850  1.0000 0.1182073645
H   H48       1.0  0.68230  0.76100  0.26850  1.0000 0.1182073645
H   H49       1.0  0.82250  0.61870  0.70890  1.0000 0.1346725816
H   H50       1.0  0.61870  0.17750  0.20890  1.0000 0.1365625119
H   H51       1.0  0.17750  0.38130  0.70890  1.0000 0.1365625119
H   H52       1.0  0.38130  0.82250  0.20890  1.0000 0.1346725816
H   H53       1.0  0.17750  0.61870  0.29110  1.0000 0.1365625119
H   H54       1.0  0.82250  0.38130  0.29110  1.0000 0.1365625119
H   H55       1.0  0.61870  0.82250  0.79110  1.0000 0.1346725816
H   H56       1.0  0.38130  0.17750  0.79110  1.0000 0.1365625119
H   H57       1.0  0.17750  0.38130  0.29110  1.0000 0.1365625119
H   H58       1.0  0.38130  0.82250  0.79110  1.0000 0.1346725816
H   H59       1.0  0.82250  0.61870  0.29110  1.0000 0.1365625119
H   H60       1.0  0.61870  0.17750  0.79110  1.0000 0.1365625119
H   H61       1.0  0.82250  0.38130  0.70890  1.0000 0.1365625119
H   H62       1.0  0.17750  0.61870  0.70890  1.0000 0.1365625119
H   H63       1.0  0.38130  0.17750  0.20890  1.0000 0.1365625119
H   H64       1.0  0.61870  0.82250  0.20890  1.0000 0.1346725816
H   H65       1.0  0.08780  0.50000  0.82710  1.0000 0.1346725816
H   H66       1.0  0.50000  0.91220  0.32710  1.0000 0.1346725816
H   H67       1.0  0.91220  0.50000  0.82710  1.0000 0.1346725816
H   H68       1.0  0.50000  0.08780  0.32710  1.0000 0.1346725816
H   H69       1.0  0.91220  0.50000  0.17290  1.0000 0.1346725816
H   H70       1.0  0.08780  0.50000  0.17290  1.0000 0.1346725816
H   H71       1.0  0.50000  0.08780  0.67290  1.0000 0.1346725816
H   H72       1.0  0.50000  0.91220  0.67290  1.0000 0.1346725816
H   H73       1.0  0.08780  0.50000  0.94920  1.0000 0.1137883956
H   H74       1.0  0.50000  0.91220  0.44920  1.0000 0.1137883956
H   H75       1.0  0.91220  0.50000  0.94920  1.0000 0.1137883956
H   H76       1.0  0.50000  0.08780  0.44920  1.0000 0.1137883956
H   H77       1.0  0.91220  0.50000  0.05080  1.0000 0.1137883956
H   H78       1.0  0.08780  0.50000  0.05080  1.0000 0.1137883956
H   H79       1.0  0.50000  0.08780  0.55080  1.0000 0.1137883956
H   H80       1.0  0.50000  0.91220  0.55080  1.0000 0.1137883956
C   C1        1.0  0.00000  0.50000  0.73680  1.0000 0.6592254782
C   C2        1.0  0.50000  0.00000  0.23680  1.0000 0.6592254782
C   C3        1.0  0.00000  0.50000  0.26320  1.0000 0.6592254782
C   C4        1.0  0.50000  0.00000  0.76320  1.0000 0.6592254782
C   C5        1.0  0.90600  0.63210  0.62900  1.0000 0.6520886564
C   C6        1.0  0.63210  0.09400  0.12900  1.0000 0.6520886564
C   C7        1.0  0.09400  0.36790  0.62900  1.0000 0.6520886564
C   C8        1.0  0.36790  0.90600  0.12900  1.0000 0.6520886564
C   C9        1.0  0.09400  0.63210  0.37100  1.0000 0.6520886564
C   C10       1.0  0.90600  0.36790  0.37100  1.0000 0.6520886564
C   C11       1.0  0.63210  0.90600  0.87100  1.0000 0.6520886564
C   C12       1.0  0.36790  0.09400  0.87100  1.0000 0.6520886564
C   C13       1.0  0.09400  0.36790  0.37100  1.0000 0.6520886564
C   C14       1.0  0.36790  0.90600  0.87100  1.0000 0.6520886564
C   C15       1.0  0.90600  0.63210  0.37100  1.0000 0.6520886564
C   C16       1.0  0.63210  0.09400  0.87100  1.0000 0.6520886564
C   C17       1.0  0.90600  0.36790  0.62900  1.0000 0.6520886564
C   C18       1.0  0.09400  0.63210  0.62900  1.0000 0.6520886564
C   C19       1.0  0.36790  0.09400  0.12900  1.0000 0.6520886564
C   C20       1.0  0.63210  0.90600  0.12900  1.0000 0.6520886564
C   C21       1.0  0.87070  0.68120  0.66060  1.0000 -0.0189683623
C   C22       1.0  0.68120  0.12930  0.16060  1.0000 -0.0189683623
C   C23       1.0  0.12930  0.31880  0.66060  1.0000 -0.0189683623
C   C24       1.0  0.31880  0.87070  0.16060  1.0000 -0.0189683623
C   C25       1.0  0.12930  0.68120  0.33940  1.0000 -0.0189683623
C   C26       1.0  0.87070  0.31880  0.33940  1.0000 -0.0189683623
C   C27       1.0  0.68120  0.87070  0.83940  1.0000 -0.0189683623
C   C28       1.0  0.31880  0.12930  0.83940  1.0000 -0.0189683623
C   C29       1.0  0.12930  0.31880  0.33940  1.0000 -0.0189683623
C   C30       1.0  0.31880  0.87070  0.83940  1.0000 -0.0189683623
C   C31       1.0  0.87070  0.68120  0.33940  1.0000 -0.0189683623
C   C32       1.0  0.68120  0.12930  0.83940  1.0000 -0.0189683623
C   C33       1.0  0.87070  0.31880  0.66060  1.0000 -0.0189683623
C   C34       1.0  0.12930  0.68120  0.66060  1.0000 -0.0189683623
C   C35       1.0  0.31880  0.12930  0.16060  1.0000 -0.0189683623
C   C36       1.0  0.68120  0.87070  0.16060  1.0000 -0.0189683623
C   C37       1.0  0.00000  0.50000  0.81550  1.0000 -0.0351706115
C   C38       1.0  0.50000  0.00000  0.31550  1.0000 -0.0348187392
C   C39       1.0  0.00000  0.50000  0.18450  1.0000 -0.0351706115
C   C40       1.0  0.50000  0.00000  0.68450  1.0000 -0.0351706115
C   C41       1.0  0.87740  0.74080  0.65310  1.0000 -0.0919982896
C   C42       1.0  0.74080  0.12260  0.15310  1.0000 -0.0919982896
C   C43       1.0  0.12260  0.25920  0.65310  1.0000 -0.0919982896
C   C44       1.0  0.25920  0.87740  0.15310  1.0000 -0.0919982896
C   C45       1.0  0.12260  0.74080  0.34690  1.0000 -0.0919982896
C   C46       1.0  0.87740  0.25920  0.34690  1.0000 -0.0919982896
C   C47       1.0  0.74080  0.87740  0.84690  1.0000 -0.0919982896
C   C48       1.0  0.25920  0.12260  0.84690  1.0000 -0.0919982896
C   C49       1.0  0.12260  0.25920  0.34690  1.0000 -0.0919982896
C   C50       1.0  0.25920  0.87740  0.84690  1.0000 -0.0919982896
C   C51       1.0  0.87740  0.74080  0.34690  1.0000 -0.0919982896
C   C52       1.0  0.74080  0.12260  0.84690  1.0000 -0.0919982896
C   C53       1.0  0.87740  0.25920  0.65310  1.0000 -0.0919982896
C   C54       1.0  0.12260  0.74080  0.65310  1.0000 -0.0919982896
C   C55       1.0  0.25920  0.12260  0.15310  1.0000 -0.0919982896
C   C56       1.0  0.74080  0.87740  0.15310  1.0000 -0.0919982896
C   C57       1.0  0.84080  0.77850  0.68860  1.0000 -0.1515577372
C   C58       1.0  0.77850  0.15920  0.18860  1.0000 -0.1515577372
C   C59       1.0  0.15920  0.22150  0.68860  1.0000 -0.1515577372
C   C60       1.0  0.22150  0.84080  0.18860  1.0000 -0.1515577372
C   C61       1.0  0.15920  0.77850  0.31140  1.0000 -0.1515577372
C   C62       1.0  0.84080  0.22150  0.31140  1.0000 -0.1515577372
C   C63       1.0  0.77850  0.84080  0.81140  1.0000 -0.1515577372
C   C64       1.0  0.22150  0.15920  0.81140  1.0000 -0.1515577372
C   C65       1.0  0.15920  0.22150  0.31140  1.0000 -0.1515577372
C   C66       1.0  0.22150  0.84080  0.81140  1.0000 -0.1515577372
C   C67       1.0  0.84080  0.77850  0.31140  1.0000 -0.1515577372
C   C68       1.0  0.77850  0.15920  0.81140  1.0000 -0.1515577372
C   C69       1.0  0.84080  0.22150  0.68860  1.0000 -0.1515577372
C   C70       1.0  0.15920  0.77850  0.68860  1.0000 -0.1515577372
C   C71       1.0  0.22150  0.15920  0.18860  1.0000 -0.1515577372
C   C72       1.0  0.77850  0.84080  0.18860  1.0000 -0.1515577372
C   C73       1.0  0.79740  0.75670  0.73160  1.0000 0.0812617441
C   C74       1.0  0.75670  0.20260  0.23160  1.0000 0.0812617441
C   C75       1.0  0.20260  0.24330  0.73160  1.0000 0.0812617441
C   C76       1.0  0.24330  0.79740  0.23160  1.0000 0.0812617441
C   C77       1.0  0.20260  0.75670  0.26840  1.0000 0.0812617441
C   C78       1.0  0.79740  0.24330  0.26840  1.0000 0.0812617441
C   C79       1.0  0.75670  0.79740  0.76840  1.0000 0.0812617441
C   C80       1.0  0.24330  0.20260  0.76840  1.0000 0.0812617441
C   C81       1.0  0.20260  0.24330  0.26840  1.0000 0.0812617441
C   C82       1.0  0.24330  0.79740  0.76840  1.0000 0.0812617441
C   C83       1.0  0.79740  0.75670  0.26840  1.0000 0.0812617441
C   C84       1.0  0.75670  0.20260  0.76840  1.0000 0.0812617441
C   C85       1.0  0.79740  0.24330  0.73160  1.0000 0.0812617441
C   C86       1.0  0.20260  0.75670  0.73160  1.0000 0.0812617441
C   C87       1.0  0.24330  0.20260  0.23160  1.0000 0.0812617441
C   C88       1.0  0.75670  0.79740  0.23160  1.0000 0.0812617441
C   C89       1.0  0.79060  0.69720  0.73910  1.0000 -0.1515577372
C   C90       1.0  0.69720  0.20940  0.23910  1.0000 -0.1515577372
C   C91       1.0  0.20940  0.30280  0.73910  1.0000 -0.1515577372
C   C92       1.0  0.30280  0.79060  0.23910  1.0000 -0.1515577372
C   C93       1.0  0.20940  0.69720  0.26090  1.0000 -0.1515577372
C   C94       1.0  0.79060  0.30280  0.26090  1.0000 -0.1515577372
C   C95       1.0  0.69720  0.79060  0.76090  1.0000 -0.1515577372
C   C96       1.0  0.30280  0.20940  0.76090  1.0000 -0.1515577372
C   C97       1.0  0.20940  0.30280  0.26090  1.0000 -0.1515577372
C   C98       1.0  0.30280  0.79060  0.76090  1.0000 -0.1515577372
C   C99       1.0  0.79060  0.69720  0.26090  1.0000 -0.1515577372
C   C100      1.0  0.69720  0.20940  0.76090  1.0000 -0.1515577372
C   C101      1.0  0.79060  0.30280  0.73910  1.0000 -0.1515577372
C   C102      1.0  0.20940  0.69720  0.73910  1.0000 -0.1515577372
C   C103      1.0  0.30280  0.20940  0.23910  1.0000 -0.1515577372
C   C104      1.0  0.69720  0.79060  0.23910  1.0000 -0.1515577372
C   C105      1.0  0.82720  0.65940  0.70370  1.0000 -0.0958219623
C   C106      1.0  0.65940  0.17280  0.20370  1.0000 -0.0958219623
C   C107      1.0  0.17280  0.34060  0.70370  1.0000 -0.0958219623
C   C108      1.0  0.34060  0.82720  0.20370  1.0000 -0.0958219623
C   C109      1.0  0.17280  0.65940  0.29630  1.0000 -0.0958219623
C   C110      1.0  0.82720  0.34060  0.29630  1.0000 -0.0958219623
C   C111      1.0  0.65940  0.82720  0.79630  1.0000 -0.0958219623
C   C112      1.0  0.34060  0.17280  0.79630  1.0000 -0.0958219623
C   C113      1.0  0.17280  0.34060  0.29630  1.0000 -0.0958219623
C   C114      1.0  0.34060  0.82720  0.79630  1.0000 -0.0958219623
C   C115      1.0  0.82720  0.65940  0.29630  1.0000 -0.0958219623
C   C116      1.0  0.65940  0.17280  0.79630  1.0000 -0.0958219623
C   C117      1.0  0.82720  0.34060  0.70370  1.0000 -0.0958219623
C   C118      1.0  0.17280  0.65940  0.70370  1.0000 -0.0958219623
C   C119      1.0  0.34060  0.17280  0.20370  1.0000 -0.0958219623
C   C120      1.0  0.65940  0.82720  0.20370  1.0000 -0.0958219623
C   C121      1.0  0.00000  0.50000  0.96080  1.0000 0.087141802
C   C122      1.0  0.50000  0.00000  0.46080  1.0000 0.087141802
C   C123      1.0  0.00000  0.50000  0.03920  1.0000 0.087141802
C   C124      1.0  0.50000  0.00000  0.53920  1.0000 0.087141802
C   C125      1.0  0.05211  0.50000  0.85190  1.0000 -0.0919982896
C   C126      1.0  0.50000  0.94789  0.35190  1.0000 -0.0919982896
C   C127      1.0  0.94789  0.50000  0.85190  1.0000 -0.0919982896
C   C128      1.0  0.50000  0.05211  0.35190  1.0000 -0.0919982896
C   C129      1.0  0.94789  0.50000  0.14810  1.0000 -0.0919982896
C   C130      1.0  0.05211  0.50000  0.14810  1.0000 -0.0919982896
C   C131      1.0  0.50000  0.05211  0.64810  1.0000 -0.0919982896
C   C132      1.0  0.50000  0.94789  0.64810  1.0000 -0.0919982896
C   C133      1.0  0.05213  0.50000  0.92440  1.0000 -0.1515577372
C   C134      1.0  0.50000  0.94787  0.42440  1.0000 -0.1515577372
C   C135      1.0  0.94787  0.50000  0.92440  1.0000 -0.1515577372
C   C136      1.0  0.50000  0.05213  0.42440  1.0000 -0.1515577372
C   C137      1.0  0.94787  0.50000  0.07560  1.0000 -0.1515577372
C   C138      1.0  0.05213  0.50000  0.07560  1.0000 -0.1554185902
C   C139      1.0  0.50000  0.05213  0.57560  1.0000 -0.1515577372
C   C140      1.0  0.50000  0.94787  0.57560  1.0000 -0.1515577372
O   O1        1.0  0.89090  0.58270  0.63260  1.0000 -0.5812108671
O   O2        1.0  0.58270  0.10910  0.13260  1.0000 -0.5812108671
O   O3        1.0  0.10910  0.41730  0.63260  1.0000 -0.5812108671
O   O4        1.0  0.41730  0.89090  0.13260  1.0000 -0.5812108671
O   O5        1.0  0.10910  0.58270  0.36740  1.0000 -0.5812108671
O   O6        1.0  0.89090  0.41730  0.36740  1.0000 -0.5812108671
O   O7        1.0  0.58270  0.89090  0.86740  1.0000 -0.5812108671
O   O8        1.0  0.41730  0.10910  0.86740  1.0000 -0.5812108671
O   O9        1.0  0.10910  0.41730  0.36740  1.0000 -0.5812108671
O   O10       1.0  0.41730  0.89090  0.86740  1.0000 -0.5812108671
O   O11       1.0  0.89090  0.58270  0.36740  1.0000 -0.5812108671
O   O12       1.0  0.58270  0.10910  0.86740  1.0000 -0.5812108671
O   O13       1.0  0.89090  0.41730  0.63260  1.0000 -0.5812108671
O   O14       1.0  0.10910  0.58270  0.63260  1.0000 -0.5812108671
O   O15       1.0  0.41730  0.10910  0.13260  1.0000 -0.5812108671
O   O16       1.0  0.58270  0.89090  0.13260  1.0000 -0.5812108671
O   O17       1.0  0.95020  0.50000  0.70370  1.0000 -0.6276367536
O   O18       1.0  0.50000  0.04980  0.20370  1.0000 -0.6276367536
O   O19       1.0  0.04980  0.50000  0.70370  1.0000 -0.6276367536
O   O20       1.0  0.50000  0.95020  0.20370  1.0000 -0.6276367536
O   O21       1.0  0.04980  0.50000  0.29630  1.0000 -0.6276367536
O   O22       1.0  0.95020  0.50000  0.29630  1.0000 -0.6276367536
O   O23       1.0  0.50000  0.95020  0.79630  1.0000 -0.6276367536
O   O24       1.0  0.50000  0.04980  0.79630  1.0000 -0.6276367536
O   O25       1.0  0.94130  0.65880  0.57340  1.0000 -0.6880376866
O   O26       1.0  0.65880  0.05870  0.07340  1.0000 -0.6880376866
O   O27       1.0  0.05870  0.34120  0.57340  1.0000 -0.6880376866
O   O28       1.0  0.34120  0.94130  0.07340  1.0000 -0.6880376866
O   O29       1.0  0.05870  0.65880  0.42660  1.0000 -0.6880376866
O   O30       1.0  0.94130  0.34120  0.42660  1.0000 -0.6880376866
O   O31       1.0  0.65880  0.94130  0.92660  1.0000 -0.6880376866
O   O32       1.0  0.34120  0.05870  0.92660  1.0000 -0.6880376866
O   O33       1.0  0.05870  0.34120  0.42660  1.0000 -0.6880376866
O   O34       1.0  0.34120  0.94130  0.92660  1.0000 -0.6880376866
O   O35       1.0  0.94130  0.65880  0.42660  1.0000 -0.6880376866
O   O36       1.0  0.65880  0.05870  0.92660  1.0000 -0.6880376866
O   O37       1.0  0.94130  0.34120  0.57340  1.0000 -0.6880376866
O   O38       1.0  0.05870  0.65880  0.57340  1.0000 -0.6880376866
O   O39       1.0  0.34120  0.05870  0.07340  1.0000 -0.6880376866
O   O40       1.0  0.65880  0.94130  0.07340  1.0000 -0.6880376866
O   O41       1.0  0.00000  0.55620  0.59310  1.0000 -1.1711881315
O   O42       1.0  0.55620  0.00000  0.09310  1.0000 -1.1711881315
O   O43       1.0  0.00000  0.44380  0.59310  1.0000 -1.1711881315
O   O44       1.0  0.44380  0.00000  0.09310  1.0000 -1.1711881315
O   O45       1.0  0.00000  0.55620  0.40690  1.0000 -1.1711881315
O   O46       1.0  0.00000  0.44380  0.40690  1.0000 -1.1711881315
O   O47       1.0  0.55620  0.00000  0.90690  1.0000 -1.1711881315
O   O48       1.0  0.44380  0.00000  0.90690  1.0000 -1.1711881315
O   O49       1.0  0.91830  0.55140  0.50000  1.0000 -1.1567257499
O   O50       1.0  0.55140  0.08170  0.00000  1.0000 -1.1567257499
O   O51       1.0  0.08170  0.44860  0.50000  1.0000 -1.1567257499
O   O52       1.0  0.44860  0.91830  0.00000  1.0000 -1.1567257499
O   O53       1.0  0.08170  0.55140  0.50000  1.0000 -1.1567257499
O   O54       1.0  0.91830  0.44860  0.50000  1.0000 -1.1567257499
O   O55       1.0  0.55140  0.91830  0.00000  1.0000 -1.1567257499
O   O56       1.0  0.44860  0.08170  0.00000  1.0000 -1.1567257499
