# DDEC6 charges by PACMAN v1.1 (https://github.com/mtap-research/PACMAN-charge/)
data_2016[ZnCo][sab]3[ASR]1
_chemical_formula_sum              "Zn8 Co4 H24 C72 O52"
_cell_length_a       17.0126
_cell_length_b       17.0126
_cell_length_c       17.0126
_cell_angle_alpha    105.869
_cell_angle_beta     105.869
_cell_angle_gamma    116.945

_symmetry_space_group_name_H-M    "P 1"
_symmetry_Int_Tables_number       1

loop_
  _symmetry_equiv_pos_as_xyz
  'x, y, z'

loop_
  _atom_site_type_symbol
  _atom_site_label
  _atom_site_symmetry_multiplicity
  _atom_site_fract_x
  _atom_site_fract_y
  _atom_site_fract_z
  _atom_site_occupancy
  _atom_site_charge
Zn  Zn1       1.0  0.53268  0.67055  0.62369  1.0000 1.0007603259
Zn  Zn2       1.0  0.90899  0.53268  0.86213  1.0000 1.0007603259
Zn  Zn3       1.0  0.04686  0.90899  0.37631  1.0000 1.0007603259
Zn  Zn4       1.0  0.67055  0.04686  0.13787  1.0000 1.0007603259
Zn  Zn5       1.0  0.54686  0.17055  0.13787  1.0000 1.0007603259
Zn  Zn6       1.0  0.03268  0.40899  0.86213  1.0000 1.0007603259
Zn  Zn7       1.0  0.40899  0.54686  0.37631  1.0000 1.0007603259
Zn  Zn8       1.0  0.17055  0.03268  0.62369  1.0000 1.0007603259
Co  Co1       1.0  0.59674  0.78038  0.50000  1.0000 1.1060328947
Co  Co2       1.0  0.09674  0.59674  0.81636  1.0000 1.1060328947
Co  Co3       1.0  0.28038  0.09674  0.50000  1.0000 1.1060328947
Co  Co4       1.0  0.78038  0.28038  0.18364  1.0000 1.1060328947
H   H1        1.0  0.22800  0.53280  0.67460  1.0000 0.1342605071
H   H2        1.0  0.55340  0.22800  0.69520  1.0000 0.1342605071
H   H3        1.0  0.85820  0.55340  0.32540  1.0000 0.1342605071
H   H4        1.0  0.53280  0.85820  0.30480  1.0000 0.1342605071
H   H5        1.0  0.35820  0.03280  0.30480  1.0000 0.1342605071
H   H6        1.0  0.72800  0.05340  0.69520  1.0000 0.1342605071
H   H7        1.0  0.05340  0.35820  0.32540  1.0000 0.1342605071
H   H8        1.0  0.03280  0.72800  0.67460  1.0000 0.1342605071
H   H9        1.0  0.34490  0.37630  0.61280  1.0000 0.1401010554
H   H10       1.0  0.73210  0.34490  0.96860  1.0000 0.1401010554
H   H11       1.0  0.76350  0.73210  0.38720  1.0000 0.1401010554
H   H12       1.0  0.37630  0.76350  0.03140  1.0000 0.1401010554
H   H13       1.0  0.26350  0.87630  0.03140  1.0000 0.1401010554
H   H14       1.0  0.84490  0.23210  0.96860  1.0000 0.1401010554
H   H15       1.0  0.23210  0.26350  0.38720  1.0000 0.1401010554
H   H16       1.0  0.87630  0.84490  0.61280  1.0000 0.1401010554
H   H17       1.0  0.12480  0.27020  0.68040  1.0000 0.1401010554
H   H18       1.0  0.44440  0.12480  0.85460  1.0000 0.1401010554
H   H19       1.0  0.58980  0.44440  0.31960  1.0000 0.1401010554
H   H20       1.0  0.27020  0.58980  0.14540  1.0000 0.1401010554
H   H21       1.0  0.08980  0.77020  0.14540  1.0000 0.1401010554
H   H22       1.0  0.62480  0.94440  0.85460  1.0000 0.1401010554
H   H23       1.0  0.94440  0.08980  0.31960  1.0000 0.1401010554
H   H24       1.0  0.77020  0.62480  0.68040  1.0000 0.1401010554
C   C1        1.0  0.16960  0.40530  0.68690  1.0000 -0.0021332519
C   C2        1.0  0.48270  0.16960  0.76430  1.0000 -0.0021332519
C   C3        1.0  0.71840  0.48270  0.31310  1.0000 -0.0021332519
C   C4        1.0  0.40530  0.71840  0.23570  1.0000 -0.0021332519
C   C5        1.0  0.21840  0.90530  0.23570  1.0000 -0.0021332519
C   C6        1.0  0.66960  0.98270  0.76430  1.0000 -0.0021332519
C   C7        1.0  0.98270  0.21840  0.31310  1.0000 -0.0021332519
C   C8        1.0  0.90530  0.66960  0.68690  1.0000 -0.0021332519
C   C9        1.0  0.37270  0.55010  0.63180  1.0000 0.5511033551
C   C10       1.0  0.74090  0.37270  0.82260  1.0000 0.5511033551
C   C11       1.0  0.91830  0.74090  0.36820  1.0000 0.5511033551
C   C12       1.0  0.55010  0.91830  0.17740  1.0000 0.5511033551
C   C13       1.0  0.41830  0.05010  0.17740  1.0000 0.5511033551
C   C14       1.0  0.87270  0.24090  0.82260  1.0000 0.5511033551
C   C15       1.0  0.24090  0.41830  0.36820  1.0000 0.5511033551
C   C16       1.0  0.05010  0.87270  0.63180  1.0000 0.5511033551
C   C17       1.0  0.23120  0.47730  0.66890  1.0000 -0.0889441693
C   C18       1.0  0.56230  0.23120  0.75390  1.0000 -0.0889441693
C   C19       1.0  0.80840  0.56230  0.33110  1.0000 -0.0889441693
C   C20       1.0  0.47730  0.80840  0.24610  1.0000 -0.0889441693
C   C21       1.0  0.30840  0.97730  0.24610  1.0000 -0.0889441693
C   C22       1.0  0.73120  0.06230  0.75390  1.0000 -0.0889441693
C   C23       1.0  0.06230  0.30840  0.33110  1.0000 -0.0889441693
C   C24       1.0  0.97730  0.73120  0.66890  1.0000 -0.0889441693
C   C25       1.0  0.29920  0.46730  0.64210  1.0000 0.0071608004
C   C26       1.0  0.65710  0.29920  0.83190  1.0000 0.0071608004
C   C27       1.0  0.82520  0.65710  0.35790  1.0000 0.0071608004
C   C28       1.0  0.46730  0.82520  0.16810  1.0000 0.0071608004
C   C29       1.0  0.32520  0.96730  0.16810  1.0000 0.0071608004
C   C30       1.0  0.79920  0.15710  0.83190  1.0000 0.0071608004
C   C31       1.0  0.15710  0.32520  0.35790  1.0000 0.0071608004
C   C32       1.0  0.96730  0.79920  0.64210  1.0000 0.0071608004
C   C33       1.0  0.23120  0.30610  0.63990  1.0000 -0.0236208023
C   C34       1.0  0.59130  0.23120  0.92510  1.0000 -0.0236208023
C   C35       1.0  0.66620  0.59130  0.36010  1.0000 -0.0236208023
C   C36       1.0  0.30610  0.66620  0.07490  1.0000 -0.0236208023
C   C37       1.0  0.16620  0.80610  0.07490  1.0000 -0.0236208023
C   C38       1.0  0.73120  0.09130  0.92510  1.0000 -0.0236208023
C   C39       1.0  0.09130  0.16620  0.36010  1.0000 -0.0236208023
C   C40       1.0  0.80610  0.73120  0.63990  1.0000 -0.0236208023
C   C41       1.0  0.29810  0.38220  0.62930  1.0000 -0.0889441693
C   C42       1.0  0.66880  0.29810  0.91590  1.0000 -0.0889441693
C   C43       1.0  0.75290  0.66880  0.37070  1.0000 -0.0889441693
C   C44       1.0  0.38220  0.75290  0.08410  1.0000 -0.0889441693
C   C45       1.0  0.25290  0.88220  0.08410  1.0000 -0.0889441693
C   C46       1.0  0.79810  0.16880  0.91590  1.0000 -0.0889441693
C   C47       1.0  0.16880  0.25290  0.37070  1.0000 -0.0889441693
C   C48       1.0  0.88220  0.79810  0.62930  1.0000 -0.0889441693
C   C49       1.0  0.22990  0.21540  0.62290  1.0000 0.6000111417
C   C50       1.0  0.60700  0.22990  0.01450  1.0000 0.6000111417
C   C51       1.0  0.59250  0.60700  0.37710  1.0000 0.6000111417
C   C52       1.0  0.21540  0.59250  0.98550  1.0000 0.6000111417
C   C53       1.0  0.09250  0.71540  0.98550  1.0000 0.6000111417
C   C54       1.0  0.72990  0.10700  0.01450  1.0000 0.6000111417
C   C55       1.0  0.10700  0.09250  0.37710  1.0000 0.6000111417
C   C56       1.0  0.71540  0.72990  0.62290  1.0000 0.6000111417
C   C57       1.0  0.16950  0.32040  0.67030  1.0000 -0.0889441693
C   C58       1.0  0.49920  0.16950  0.84910  1.0000 -0.0889441693
C   C59       1.0  0.65010  0.49920  0.32970  1.0000 -0.0889441693
C   C60       1.0  0.32040  0.65010  0.15090  1.0000 -0.0889441693
C   C61       1.0  0.15010  0.82040  0.15090  1.0000 -0.0889441693
C   C62       1.0  0.66950  0.99920  0.84910  1.0000 -0.0889441693
C   C63       1.0  0.99920  0.15010  0.32970  1.0000 -0.0889441693
C   C64       1.0  0.82040  0.66950  0.67030  1.0000 -0.0889441693
C   C65       1.0  0.10960  0.42490  0.72910  1.0000 0.6063000353
C   C66       1.0  0.38050  0.10960  0.68470  1.0000 0.6063000353
C   C67       1.0  0.69580  0.38050  0.27090  1.0000 0.6063000353
C   C68       1.0  0.42490  0.69580  0.31530  1.0000 0.6063000353
C   C69       1.0  0.19580  0.92490  0.31530  1.0000 0.6063000353
C   C70       1.0  0.60960  0.88050  0.68470  1.0000 0.6063000353
C   C71       1.0  0.88050  0.19580  0.27090  1.0000 0.6063000353
C   C72       1.0  0.92490  0.60960  0.72910  1.0000 0.6063000353
O   O1        1.0  0.48187  0.65713  0.50000  1.0000 -0.8620958163
O   O2        1.0  0.98187  0.48187  0.82474  1.0000 -0.8620958163
O   O3        1.0  0.15713  0.98187  0.50000  1.0000 -0.8620958163
O   O4        1.0  0.65713  0.15713  0.17526  1.0000 -0.8620958163
O   O5        1.0  0.09439  0.48783  0.72042  1.0000 -0.5083205555
O   O6        1.0  0.37397  0.09439  0.60656  1.0000 -0.5083205555
O   O7        1.0  0.76741  0.37397  0.27958  1.0000 -0.5083205555
O   O8        1.0  0.48783  0.76741  0.39344  1.0000 -0.5083205555
O   O9        1.0  0.26741  0.98783  0.39344  1.0000 -0.5083205555
O   O10       1.0  0.59439  0.87397  0.60656  1.0000 -0.5083205555
O   O11       1.0  0.87397  0.26741  0.27958  1.0000 -0.5043986109
O   O12       1.0  0.98783  0.59439  0.72042  1.0000 -0.5083205555
O   O13       1.0  0.29100  0.21080  0.60000  1.0000 -0.5279125928
O   O14       1.0  0.69100  0.29100  0.08020  1.0000 -0.5279125928
O   O15       1.0  0.61080  0.69100  0.40000  1.0000 -0.5279125928
O   O16       1.0  0.21080  0.61080  0.91980  1.0000 -0.5279125928
O   O17       1.0  0.11080  0.71080  0.91980  1.0000 -0.5279125928
O   O18       1.0  0.79100  0.19100  0.08020  1.0000 -0.5279125928
O   O19       1.0  0.19100  0.11080  0.40000  1.0000 -0.5279125928
O   O20       1.0  0.71080  0.79100  0.60000  1.0000 -0.5279125928
O   O21       1.0  0.44960  0.55220  0.63280  1.0000 -0.5083205555
O   O22       1.0  0.81680  0.44960  0.89740  1.0000 -0.5083205555
O   O23       1.0  0.91940  0.81680  0.36720  1.0000 -0.5083205555
O   O24       1.0  0.55220  0.91940  0.10260  1.0000 -0.5083205555
O   O25       1.0  0.41940  0.05220  0.10260  1.0000 -0.5083205555
O   O26       1.0  0.94960  0.31680  0.89740  1.0000 -0.5083205555
O   O27       1.0  0.31680  0.41940  0.36720  1.0000 -0.5083205555
O   O28       1.0  0.05220  0.94960  0.63280  1.0000 -0.5083205555
O   O29       1.0  0.16780  0.15090  0.63930  1.0000 -0.5043986109
O   O30       1.0  0.52850  0.16780  0.01690  1.0000 -0.5043986109
O   O31       1.0  0.51160  0.52850  0.36070  1.0000 -0.5043986109
O   O32       1.0  0.15090  0.51160  0.98310  1.0000 -0.5043986109
O   O33       1.0  0.01160  0.65090  0.98310  1.0000 -0.5043986109
O   O34       1.0  0.66780  0.02850  0.01690  1.0000 -0.5043986109
O   O35       1.0  0.02850  0.01160  0.36070  1.0000 -0.5043986109
O   O36       1.0  0.65090  0.66780  0.63930  1.0000 -0.5043986109
O   O37       1.0  0.35830  0.61460  0.62570  1.0000 -0.4413604795
O   O38       1.0  0.73260  0.35830  0.74370  1.0000 -0.4413604795
O   O39       1.0  0.98890  0.73260  0.37430  1.0000 -0.4413604795
O   O40       1.0  0.61460  0.98890  0.25630  1.0000 -0.4413604795
O   O41       1.0  0.48890  0.11460  0.25630  1.0000 -0.4413604795
O   O42       1.0  0.85830  0.23260  0.74370  1.0000 -0.4413604795
O   O43       1.0  0.23260  0.48890  0.37430  1.0000 -0.4413604795
O   O44       1.0  0.11460  0.85830  0.62570  1.0000 -0.4413604795
O   O45       1.0  0.08210  0.37750  0.77400  1.0000 -0.519357702
O   O46       1.0  0.30810  0.08210  0.70460  1.0000 -0.519357702
O   O47       1.0  0.60350  0.30810  0.22600  1.0000 -0.519357702
O   O48       1.0  0.37750  0.60350  0.29540  1.0000 -0.519357702
O   O49       1.0  0.10350  0.87750  0.29540  1.0000 -0.519357702
O   O50       1.0  0.58210  0.80810  0.70460  1.0000 -0.519357702
O   O51       1.0  0.80810  0.10350  0.22600  1.0000 -0.519357702
O   O52       1.0  0.87750  0.58210  0.77400  1.0000 -0.519357702
