# DDEC6 charges by PACMAN v1.1 (https://github.com/mtap-research/PACMAN-charge/)
data_2016[Zn][nan]3[ASR]6
_chemical_formula_sum              "Zn4 H72 C82 N16 O24"
_cell_length_a       13.751
_cell_length_b       13.751
_cell_length_c       20.301
_cell_angle_alpha    86.0728
_cell_angle_beta     93.9272
_cell_angle_gamma    38.8314

_symmetry_space_group_name_H-M    "P 1"
_symmetry_Int_Tables_number       1

loop_
  _symmetry_equiv_pos_as_xyz
  'x, y, z'

loop_
  _atom_site_type_symbol
  _atom_site_label
  _atom_site_symmetry_multiplicity
  _atom_site_fract_x
  _atom_site_fract_y
  _atom_site_fract_z
  _atom_site_occupancy
  _atom_site_charge
Zn  Zn1       1.0  0.10633  0.64937  0.48513  1.0000 0.7566757593
Zn  Zn2       1.0  0.64937  0.10633  0.01487  1.0000 0.7566757593
Zn  Zn3       1.0  0.89367  0.35063  0.51487  1.0000 0.7566757593
Zn  Zn4       1.0  0.35063  0.89367  0.98513  1.0000 0.7566757593
H   H1        1.0  0.27960  0.03140  0.17690  1.0000 0.1124105312
H   H2        1.0  0.03140  0.27960  0.32310  1.0000 0.1124105312
H   H3        1.0  0.72040  0.96860  0.82310  1.0000 0.1124105312
H   H4        1.0  0.96860  0.72040  0.67690  1.0000 0.1124105312
H   H5        1.0  0.36940  0.00960  0.24150  1.0000 0.1007418059
H   H6        1.0  0.00960  0.36940  0.25850  1.0000 0.1007418059
H   H7        1.0  0.63060  0.99040  0.75850  1.0000 0.1007418059
H   H8        1.0  0.99040  0.63060  0.74150  1.0000 0.1007418059
H   H9        1.0  0.70340  0.80020  0.44780  1.0000 0.1124105312
H   H10       1.0  0.80020  0.70340  0.05220  1.0000 0.1124105312
H   H11       1.0  0.29660  0.19980  0.55220  1.0000 0.1124105312
H   H12       1.0  0.19980  0.29660  0.94780  1.0000 0.1124105312
H   H13       1.0  0.29090  0.38150  0.69280  1.0000 0.1124105312
H   H14       1.0  0.38150  0.29090  0.80720  1.0000 0.1124105312
H   H15       1.0  0.70910  0.61850  0.30720  1.0000 0.1124105312
H   H16       1.0  0.61850  0.70910  0.19280  1.0000 0.1124105312
H   H17       1.0  0.43830  0.98150  0.12230  1.0000 0.1472886335
H   H18       1.0  0.98150  0.43830  0.37770  1.0000 0.1472886335
H   H19       1.0  0.56170  0.01850  0.87770  1.0000 0.1472886335
H   H20       1.0  0.01850  0.56170  0.62230  1.0000 0.1472886335
H   H21       1.0  0.37430  0.36370  0.09100  1.0000 0.1124105312
H   H22       1.0  0.36370  0.37430  0.40900  1.0000 0.1124105312
H   H23       1.0  0.62570  0.63630  0.90900  1.0000 0.1124105312
H   H24       1.0  0.63630  0.62570  0.59100  1.0000 0.1124105312
H   H25       1.0  0.21900  0.39840  0.15300  1.0000 0.1551558207
H   H26       1.0  0.39840  0.21900  0.34700  1.0000 0.1551558207
H   H27       1.0  0.78100  0.60160  0.84700  1.0000 0.1551558207
H   H28       1.0  0.60160  0.78100  0.65300  1.0000 0.1551558207
H   H29       1.0  0.87570  0.13590  0.37000  1.0000 0.1472886335
H   H30       1.0  0.13590  0.87570  0.13000  1.0000 0.1472886335
H   H31       1.0  0.12430  0.86410  0.63000  1.0000 0.1472886335
H   H32       1.0  0.86410  0.12430  0.87000  1.0000 0.1472886335
H   H33       1.0  0.88860  0.97780  0.42940  1.0000 0.1124105312
H   H34       1.0  0.97780  0.88860  0.07060  1.0000 0.1124105312
H   H35       1.0  0.11140  0.02220  0.57060  1.0000 0.1124105312
H   H36       1.0  0.02220  0.11140  0.92940  1.0000 0.1124105312
H   H37       1.0  0.33920  0.74640  0.36760  1.0000 0.1401209253
H   H38       1.0  0.74640  0.33920  0.13240  1.0000 0.1401209253
H   H39       1.0  0.66080  0.25360  0.63240  1.0000 0.1401209253
H   H40       1.0  0.25360  0.66080  0.86760  1.0000 0.1401209253
H   H41       1.0  0.33830  0.59990  0.42820  1.0000 0.1124105312
H   H42       1.0  0.59990  0.33830  0.07180  1.0000 0.1124105312
H   H43       1.0  0.66170  0.40010  0.57180  1.0000 0.1124105312
H   H44       1.0  0.40010  0.66170  0.92820  1.0000 0.1124105312
H   H45       1.0  0.29628  0.96292  0.33540  1.0000 0.1007418059
H   H46       1.0  0.96292  0.29628  0.16460  1.0000 0.1007418059
H   H47       1.0  0.70372  0.03708  0.66460  1.0000 0.1007418059
H   H48       1.0  0.03708  0.70372  0.83540  1.0000 0.1007418059
H   H49       1.0  0.26690  0.91510  0.27620  1.0000 0.1007418059
H   H50       1.0  0.91510  0.26690  0.22380  1.0000 0.1007418059
H   H51       1.0  0.73310  0.08490  0.72380  1.0000 0.1007418059
H   H52       1.0  0.08490  0.73310  0.77620  1.0000 0.1007418059
H   H53       1.0  0.58540  0.95980  0.06000  1.0000 0.1124105312
H   H54       1.0  0.95980  0.58540  0.44000  1.0000 0.1124105312
H   H55       1.0  0.41460  0.04020  0.94000  1.0000 0.1124105312
H   H56       1.0  0.04020  0.41460  0.56000  1.0000 0.1124105312
H   H57       1.0  0.58990  0.13130  0.56970  1.0000 0.2604338842
H   H58       1.0  0.13130  0.58990  0.93030  1.0000 0.2604338842
H   H59       1.0  0.41010  0.86870  0.43030  1.0000 0.2604338842
H   H60       1.0  0.86870  0.41010  0.06970  1.0000 0.2604338842
H   H61       1.0  0.46790  0.18770  0.60000  1.0000 0.2545174304
H   H62       1.0  0.18770  0.46790  0.90000  1.0000 0.2545174304
H   H63       1.0  0.53210  0.81230  0.40000  1.0000 0.2545174304
H   H64       1.0  0.81230  0.53210  0.10000  1.0000 0.2545174304
H   H65       1.0  0.38010  0.63930  0.65840  1.0000 0.2884117346
H   H66       1.0  0.63930  0.38010  0.84160  1.0000 0.2884117346
H   H67       1.0  0.61990  0.36070  0.34160  1.0000 0.2884117346
H   H68       1.0  0.36070  0.61990  0.15840  1.0000 0.2884117346
H   H69       1.0  0.54460  0.49680  0.67690  1.0000 0.2669009361
H   H70       1.0  0.49680  0.54460  0.82310  1.0000 0.2669009361
H   H71       1.0  0.45540  0.50320  0.32310  1.0000 0.2669009361
H   H72       1.0  0.50320  0.45540  0.17690  1.0000 0.2669009361
C   C1        1.0  0.31226  0.19286  0.14441  1.0000 0.2884117346
C   C2        1.0  0.19286  0.31226  0.35559  1.0000 0.2884117346
C   C3        1.0  0.68774  0.80714  0.85559  1.0000 0.2884117346
C   C4        1.0  0.80714  0.68774  0.64441  1.0000 0.2884117346
C   C5        1.0  0.26798  0.08418  0.21127  1.0000 -0.093193899
C   C6        1.0  0.08418  0.26798  0.28873  1.0000 -0.093193899
C   C7        1.0  0.73202  0.91582  0.78873  1.0000 -0.093193899
C   C8        1.0  0.91582  0.73202  0.71127  1.0000 -0.093193899
C   C9        1.0  0.62167  0.88027  0.46900  1.0000 -0.2243276966
C   C10       1.0  0.88027  0.62167  0.03100  1.0000 -0.2243276966
C   C11       1.0  0.37833  0.11973  0.53100  1.0000 -0.2243276966
C   C12       1.0  0.11973  0.37833  0.96900  1.0000 -0.2243276966
C   C13       1.0  0.77239  0.91279  0.50256  1.0000 0.5675247702
C   C14       1.0  0.91279  0.77239  0.99744  1.0000 0.5675247702
C   C15       1.0  0.22761  0.08721  0.49744  1.0000 0.5675247702
C   C16       1.0  0.08721  0.22761  0.00256  1.0000 0.5675247702
C   C17       1.0  0.34027  0.39447  0.71580  1.0000 -0.1592425146
C   C18       1.0  0.39447  0.34027  0.78420  1.0000 -0.1592425146
C   C19       1.0  0.65973  0.60553  0.28420  1.0000 -0.1592425146
C   C20       1.0  0.60553  0.65973  0.21580  1.0000 -0.1592425146
C   C21       1.0  0.42351  0.06031  0.11650  1.0000 -0.2629152444
C   C22       1.0  0.06031  0.42351  0.38350  1.0000 -0.2629152444
C   C23       1.0  0.57649  0.93969  0.88350  1.0000 -0.2629152444
C   C24       1.0  0.93969  0.57649  0.61650  1.0000 -0.2629152444
C   C25       1.0  0.38782  0.28582  0.09760  1.0000 0.0821792911
C   C26       1.0  0.28582  0.38782  0.40240  1.0000 0.0821792911
C   C27       1.0  0.61218  0.71418  0.90240  1.0000 0.0821792911
C   C28       1.0  0.71418  0.61218  0.59760  1.0000 0.0821792911
C   C29       1.0  0.14350  0.14350  0.25000  1.0000 0.1007418059
C   C30       1.0  0.85650  0.85650  0.75000  1.0000 0.1007418059
C   C31       1.0  0.29820  0.53040  0.60550  1.0000 0.550225595
C   C32       1.0  0.53040  0.29820  0.89450  1.0000 0.550225595
C   C33       1.0  0.70180  0.46960  0.39450  1.0000 0.550225595
C   C34       1.0  0.46960  0.70180  0.10550  1.0000 0.550225595
C   C35       1.0  0.10631  0.95851  0.36102  1.0000 0.3199025783
C   C36       1.0  0.95851  0.10631  0.13898  1.0000 0.3199025783
C   C37       1.0  0.89369  0.04149  0.63898  1.0000 0.3199025783
C   C38       1.0  0.04149  0.89369  0.86102  1.0000 0.3199025783
C   C39       1.0  0.63015  0.96055  0.50102  1.0000 -0.1308453288
C   C40       1.0  0.96055  0.63015  0.99898  1.0000 -0.1308453288
C   C41       1.0  0.36985  0.03945  0.49898  1.0000 -0.1308453288
C   C42       1.0  0.03945  0.36985  0.00102  1.0000 -0.1308453288
C   C43       1.0  0.50561  0.08381  0.53220  1.0000 0.229795942
C   C44       1.0  0.08381  0.50561  0.96780  1.0000 0.229795942
C   C45       1.0  0.49439  0.91619  0.46780  1.0000 0.229795942
C   C46       1.0  0.91619  0.49439  0.03220  1.0000 0.229795942
C   C47       1.0  0.35882  0.46962  0.68012  1.0000 -0.1442915705
C   C48       1.0  0.46962  0.35882  0.81988  1.0000 -0.1442915705
C   C49       1.0  0.64118  0.53038  0.31988  1.0000 -0.1442915705
C   C50       1.0  0.53038  0.64118  0.18012  1.0000 -0.1442915705
C   C51       1.0  0.29381  0.30801  0.13470  1.0000 -0.2522478135
C   C52       1.0  0.30801  0.29381  0.36530  1.0000 -0.2522478135
C   C53       1.0  0.70619  0.69199  0.86530  1.0000 -0.2522478135
C   C54       1.0  0.69199  0.70619  0.63470  1.0000 -0.2522478135
C   C55       1.0  0.97065  0.02705  0.38080  1.0000 -0.2522478135
C   C56       1.0  0.02705  0.97065  0.11920  1.0000 -0.2522478135
C   C57       1.0  0.02935  0.97295  0.61920  1.0000 -0.2522478135
C   C58       1.0  0.97295  0.02935  0.88080  1.0000 -0.2522478135
C   C59       1.0  0.97967  0.93127  0.41650  1.0000 0.0918821394
C   C60       1.0  0.93127  0.97967  0.08350  1.0000 0.0918821394
C   C61       1.0  0.02033  0.06873  0.58350  1.0000 0.0918821394
C   C62       1.0  0.06873  0.02033  0.91650  1.0000 0.0918821394
C   C63       1.0  0.24631  0.79571  0.37940  1.0000 -0.2818479147
C   C64       1.0  0.79571  0.24631  0.12060  1.0000 -0.2818479147
C   C65       1.0  0.75369  0.20429  0.62060  1.0000 -0.2818479147
C   C66       1.0  0.20429  0.75369  0.87940  1.0000 -0.2818479147
C   C67       1.0  0.24416  0.70876  0.41570  1.0000 0.1007418059
C   C68       1.0  0.70876  0.24416  0.08430  1.0000 0.1007418059
C   C69       1.0  0.75584  0.29124  0.58430  1.0000 0.1007418059
C   C70       1.0  0.29124  0.75584  0.91570  1.0000 0.1007418059
C   C71       1.0  0.21742  0.00082  0.29932  1.0000 -0.093193899
C   C72       1.0  0.00082  0.21742  0.20068  1.0000 -0.093193899
C   C73       1.0  0.78258  0.99918  0.70068  1.0000 -0.093193899
C   C74       1.0  0.99918  0.78258  0.79932  1.0000 -0.093193899
C   C75       1.0  0.51202  0.04822  0.07970  1.0000 0.0918821394
C   C76       1.0  0.04822  0.51202  0.42030  1.0000 0.0918821394
C   C77       1.0  0.48798  0.95178  0.92030  1.0000 0.0918821394
C   C78       1.0  0.95178  0.48798  0.57970  1.0000 0.0918821394
C   C79       1.0  0.43346  0.48886  0.71500  1.0000 0.1401209253
C   C80       1.0  0.48886  0.43346  0.78500  1.0000 0.1401209253
C   C81       1.0  0.56654  0.51114  0.28500  1.0000 0.1401209253
C   C82       1.0  0.51114  0.56654  0.21500  1.0000 0.1401209253
N   N1        1.0  0.49930  0.15650  0.07005  1.0000 -0.2629152444
N   N2        1.0  0.15650  0.49930  0.42995  1.0000 -0.2629152444
N   N3        1.0  0.50070  0.84350  0.92995  1.0000 -0.2629152444
N   N4        1.0  0.84350  0.50070  0.57005  1.0000 -0.2629152444
N   N5        1.0  0.11457  0.77217  0.43383  1.0000 -0.2522478135
N   N6        1.0  0.77217  0.11457  0.06617  1.0000 -0.2522478135
N   N7        1.0  0.88543  0.22783  0.56617  1.0000 -0.2522478135
N   N8        1.0  0.22783  0.88543  0.93383  1.0000 -0.2522478135
N   N9        1.0  0.49800  0.17620  0.56210  1.0000 -0.5701333043
N   N10       1.0  0.17620  0.49800  0.93790  1.0000 -0.5701333043
N   N11       1.0  0.50200  0.82380  0.43790  1.0000 -0.5701333043
N   N12       1.0  0.82380  0.50200  0.06210  1.0000 -0.5701333043
N   N13       1.0  0.45680  0.56240  0.69130  1.0000 -0.5165511277
N   N14       1.0  0.56240  0.45680  0.80870  1.0000 -0.5165511277
N   N15       1.0  0.54320  0.43760  0.30870  1.0000 -0.5165511277
N   N16       1.0  0.43760  0.54320  0.19130  1.0000 -0.5165511277
O   O1        1.0  0.88313  0.79093  0.47793  1.0000 -0.5701333043
O   O2        1.0  0.79093  0.88313  0.02207  1.0000 -0.5701333043
O   O3        1.0  0.11687  0.20907  0.52207  1.0000 -0.5701333043
O   O4        1.0  0.20907  0.11687  0.97793  1.0000 -0.5701333043
O   O5        1.0  0.77720  0.99040  0.52612  1.0000 -0.5363305268
O   O6        1.0  0.99040  0.77720  0.97388  1.0000 -0.5363305268
O   O7        1.0  0.22280  0.00960  0.47388  1.0000 -0.5363305268
O   O8        1.0  0.00960  0.22280  0.02612  1.0000 -0.5363305268
O   O9        1.0  0.21555  0.22015  0.18070  1.0000 -0.1701233443
O   O10       1.0  0.22015  0.21555  0.31930  1.0000 -0.1701233443
O   O11       1.0  0.78445  0.77985  0.81930  1.0000 -0.1701233443
O   O12       1.0  0.77985  0.78445  0.68070  1.0000 -0.1701233443
O   O13       1.0  0.20369  0.53909  0.57920  1.0000 -0.5363305268
O   O14       1.0  0.53909  0.20369  0.92080  1.0000 -0.5363305268
O   O15       1.0  0.79631  0.46091  0.42080  1.0000 -0.5363305268
O   O16       1.0  0.46091  0.79631  0.07920  1.0000 -0.5363305268
O   O17       1.0  0.08736  0.05956  0.32517  1.0000 -0.1592425146
O   O18       1.0  0.05956  0.08736  0.17483  1.0000 -0.1592425146
O   O19       1.0  0.91264  0.94044  0.67483  1.0000 -0.1592425146
O   O20       1.0  0.94044  0.91264  0.82517  1.0000 -0.1592425146
O   O21       1.0  0.33923  0.56903  0.57249  1.0000 -0.5505693165
O   O22       1.0  0.56903  0.33923  0.92751  1.0000 -0.5505693165
O   O23       1.0  0.66077  0.43097  0.42751  1.0000 -0.5505693165
O   O24       1.0  0.43097  0.66077  0.07249  1.0000 -0.5505693165
