# DDEC6 charges by PACMAN v1.1 (https://github.com/mtap-research/PACMAN-charge/)
data_2016[Zn][bcg]3[ASR]1
_chemical_formula_sum              "Zn12 H64 C128 O64"
_cell_length_a       9.8531
_cell_length_b       18.218
_cell_length_c       33.2737
_cell_angle_alpha    90
_cell_angle_beta     90
_cell_angle_gamma    90

_symmetry_space_group_name_H-M    "P 1"
_symmetry_Int_Tables_number       1

loop_
  _symmetry_equiv_pos_as_xyz
  'x, y, z'

loop_
  _atom_site_type_symbol
  _atom_site_label
  _atom_site_symmetry_multiplicity
  _atom_site_fract_x
  _atom_site_fract_y
  _atom_site_fract_z
  _atom_site_occupancy
  _atom_site_charge
Zn  Zn1       1.0  0.44929  0.50487  0.59650  1.0000 0.9116859201
Zn  Zn2       1.0  0.05071  0.50487  0.90350  1.0000 0.9116859201
Zn  Zn3       1.0  0.94929  0.99513  0.40350  1.0000 0.9116859201
Zn  Zn4       1.0  0.55071  0.99513  0.09650  1.0000 0.9116859201
Zn  Zn5       1.0  0.55071  0.49513  0.40350  1.0000 0.9116859201
Zn  Zn6       1.0  0.94929  0.49513  0.09650  1.0000 0.9116859201
Zn  Zn7       1.0  0.05071  0.00487  0.59650  1.0000 0.9116859201
Zn  Zn8       1.0  0.44929  0.00487  0.90350  1.0000 0.9116859201
Zn  Zn9       1.0  0.50000  0.50000  0.50000  1.0000 1.0006647471
Zn  Zn10      1.0  0.00000  0.50000  0.00000  1.0000 1.0006647471
Zn  Zn11      1.0  0.00000  0.00000  0.50000  1.0000 1.0006647471
Zn  Zn12      1.0  0.50000  0.00000  0.00000  1.0000 1.0006647471
H   H1        1.0  0.48120  0.50360  0.74860  1.0000 0.132059719
H   H2        1.0  0.01880  0.50360  0.75140  1.0000 0.132059719
H   H3        1.0  0.98120  0.99640  0.25140  1.0000 0.132059719
H   H4        1.0  0.51880  0.99640  0.24860  1.0000 0.132059719
H   H5        1.0  0.51880  0.49640  0.25140  1.0000 0.132059719
H   H6        1.0  0.98120  0.49640  0.24860  1.0000 0.132059719
H   H7        1.0  0.01880  0.00360  0.74860  1.0000 0.132059719
H   H8        1.0  0.48120  0.00360  0.75140  1.0000 0.132059719
H   H9        1.0  0.12930  0.50410  0.69090  1.0000 0.132059719
H   H10       1.0  0.37070  0.50410  0.80910  1.0000 0.132059719
H   H11       1.0  0.62930  0.99590  0.30910  1.0000 0.132059719
H   H12       1.0  0.87070  0.99590  0.19090  1.0000 0.132059719
H   H13       1.0  0.87070  0.49590  0.30910  1.0000 0.132059719
H   H14       1.0  0.62930  0.49590  0.19090  1.0000 0.132059719
H   H15       1.0  0.37070  0.00410  0.69090  1.0000 0.132059719
H   H16       1.0  0.12930  0.00410  0.80910  1.0000 0.132059719
H   H17       1.0  0.01070  0.61170  0.53270  1.0000 0.1247477696
H   H18       1.0  0.48930  0.61170  0.96730  1.0000 0.1247477696
H   H19       1.0  0.51070  0.88830  0.46730  1.0000 0.1247477696
H   H20       1.0  0.98930  0.88830  0.03270  1.0000 0.1247477696
H   H21       1.0  0.98930  0.38830  0.46730  1.0000 0.1247477696
H   H22       1.0  0.51070  0.38830  0.03270  1.0000 0.1247477696
H   H23       1.0  0.48930  0.11170  0.53270  1.0000 0.1247477696
H   H24       1.0  0.01070  0.11170  0.96730  1.0000 0.1247477696
H   H25       1.0  0.81770  0.58010  0.49740  1.0000 0.132059719
H   H26       1.0  0.68230  0.58010  0.00260  1.0000 0.132059719
H   H27       1.0  0.31770  0.91990  0.50260  1.0000 0.132059719
H   H28       1.0  0.18230  0.91990  0.99740  1.0000 0.132059719
H   H29       1.0  0.18230  0.41990  0.50260  1.0000 0.132059719
H   H30       1.0  0.31770  0.41990  0.99740  1.0000 0.132059719
H   H31       1.0  0.68230  0.08010  0.49740  1.0000 0.132059719
H   H32       1.0  0.81770  0.08010  0.00260  1.0000 0.132059719
H   H33       1.0  0.69720  0.69410  0.61950  1.0000 0.1386016102
H   H34       1.0  0.80280  0.69410  0.88050  1.0000 0.1386016102
H   H35       1.0  0.19720  0.80590  0.38050  1.0000 0.1386016102
H   H36       1.0  0.30280  0.80590  0.11950  1.0000 0.1386016102
H   H37       1.0  0.30280  0.30590  0.38050  1.0000 0.1386016102
H   H38       1.0  0.19720  0.30590  0.11950  1.0000 0.1386016102
H   H39       1.0  0.80280  0.19410  0.61950  1.0000 0.1386016102
H   H40       1.0  0.69720  0.19410  0.88050  1.0000 0.1386016102
H   H41       1.0  0.66020  0.71560  0.50000  1.0000 0.1386016102
H   H42       1.0  0.83980  0.71560  0.00000  1.0000 0.1386016102
H   H43       1.0  0.16020  0.78440  0.50000  1.0000 0.1386016102
H   H44       1.0  0.33980  0.78440  0.00000  1.0000 0.1386016102
H   H45       1.0  0.33980  0.28440  0.50000  1.0000 0.1386016102
H   H46       1.0  0.16020  0.28440  0.00000  1.0000 0.1386016102
H   H47       1.0  0.83980  0.21560  0.50000  1.0000 0.1386016102
H   H48       1.0  0.66020  0.21560  0.00000  1.0000 0.1386016102
H   H49       1.0  0.81370  0.80340  0.62210  1.0000 0.132059719
H   H50       1.0  0.68630  0.80340  0.87790  1.0000 0.132059719
H   H51       1.0  0.31370  0.69660  0.37790  1.0000 0.132059719
H   H52       1.0  0.18630  0.69660  0.12210  1.0000 0.132059719
H   H53       1.0  0.18630  0.19660  0.37790  1.0000 0.132059719
H   H54       1.0  0.31370  0.19660  0.12210  1.0000 0.132059719
H   H55       1.0  0.68630  0.30340  0.62210  1.0000 0.132059719
H   H56       1.0  0.81370  0.30340  0.87790  1.0000 0.132059719
H   H57       1.0  0.77360  0.82570  0.50280  1.0000 0.132059719
H   H58       1.0  0.72640  0.82570  0.99720  1.0000 0.132059719
H   H59       1.0  0.27360  0.67430  0.49720  1.0000 0.132059719
H   H60       1.0  0.22640  0.67430  0.00280  1.0000 0.132059719
H   H61       1.0  0.22640  0.17430  0.49720  1.0000 0.132059719
H   H62       1.0  0.27360  0.17430  0.00280  1.0000 0.132059719
H   H63       1.0  0.72640  0.32570  0.50280  1.0000 0.132059719
H   H64       1.0  0.77360  0.32570  0.99720  1.0000 0.132059719
C   C1        1.0  0.39140  0.50750  0.67388  1.0000 0.5462961061
C   C2        1.0  0.10860  0.50750  0.82612  1.0000 0.5462961061
C   C3        1.0  0.89140  0.99250  0.32612  1.0000 0.5462961061
C   C4        1.0  0.60860  0.99250  0.17388  1.0000 0.5437642994
C   C5        1.0  0.60860  0.49250  0.32612  1.0000 0.5462961061
C   C6        1.0  0.89140  0.49250  0.17388  1.0000 0.5437642994
C   C7        1.0  0.10860  0.00750  0.67388  1.0000 0.5462961061
C   C8        1.0  0.39140  0.00750  0.82612  1.0000 0.5462961061
C   C9        1.0  0.31730  0.50380  0.71329  1.0000 -0.0171709225
C   C10       1.0  0.18270  0.50380  0.78671  1.0000 -0.0171709225
C   C11       1.0  0.81730  0.99620  0.28671  1.0000 -0.0171709225
C   C12       1.0  0.68270  0.99620  0.21329  1.0000 -0.0113582249
C   C13       1.0  0.68270  0.49620  0.28671  1.0000 -0.0171709225
C   C14       1.0  0.81730  0.49620  0.21329  1.0000 -0.0113582249
C   C15       1.0  0.18270  0.00380  0.71329  1.0000 -0.0171709225
C   C16       1.0  0.31730  0.00380  0.78671  1.0000 -0.0171709225
C   C17       1.0  0.38680  0.50370  0.74900  1.0000 -0.0907246022
C   C18       1.0  0.11320  0.50370  0.75100  1.0000 -0.0814648704
C   C19       1.0  0.88680  0.99630  0.25100  1.0000 -0.0814648704
C   C20       1.0  0.61320  0.99630  0.24900  1.0000 -0.0907246022
C   C21       1.0  0.61320  0.49630  0.25100  1.0000 -0.0814648704
C   C22       1.0  0.88680  0.49630  0.24900  1.0000 -0.0907246022
C   C23       1.0  0.11320  0.00370  0.74900  1.0000 -0.0907246022
C   C24       1.0  0.38680  0.00370  0.75100  1.0000 -0.0814648704
C   C25       1.0  0.17910  0.50390  0.71467  1.0000 -0.0814648704
C   C26       1.0  0.32090  0.50390  0.78533  1.0000 -0.0814648704
C   C27       1.0  0.67910  0.99610  0.28533  1.0000 -0.0814648704
C   C28       1.0  0.82090  0.99610  0.21467  1.0000 -0.0814648704
C   C29       1.0  0.82090  0.49610  0.28533  1.0000 -0.0814648704
C   C30       1.0  0.67910  0.49610  0.21467  1.0000 -0.0814648704
C   C31       1.0  0.32090  0.00390  0.71467  1.0000 -0.0814648704
C   C32       1.0  0.17910  0.00390  0.78533  1.0000 -0.0814648704
C   C33       1.0  0.23660  0.53890  0.54670  1.0000 0.5728587273
C   C34       1.0  0.26340  0.53890  0.95330  1.0000 0.5728587273
C   C35       1.0  0.73660  0.96110  0.45330  1.0000 0.5728587273
C   C36       1.0  0.76340  0.96110  0.04670  1.0000 0.5728587273
C   C37       1.0  0.76340  0.46110  0.45330  1.0000 0.5728587273
C   C38       1.0  0.73660  0.46110  0.04670  1.0000 0.5728587273
C   C39       1.0  0.26340  0.03890  0.54670  1.0000 0.5728587273
C   C40       1.0  0.23660  0.03890  0.95330  1.0000 0.5728587273
C   C41       1.0  0.11610  0.51910  0.52136  1.0000 -0.0016044725
C   C42       1.0  0.38390  0.51910  0.97864  1.0000 -0.0016044725
C   C43       1.0  0.61610  0.98090  0.47864  1.0000 -0.0016044725
C   C44       1.0  0.88390  0.98090  0.02136  1.0000 -0.0016044725
C   C45       1.0  0.88390  0.48090  0.47864  1.0000 -0.0016044725
C   C46       1.0  0.61610  0.48090  0.02136  1.0000 -0.0016044725
C   C47       1.0  0.38390  0.01910  0.52136  1.0000 -0.0016044725
C   C48       1.0  0.11610  0.01910  0.97864  1.0000 -0.0016044725
C   C49       1.0  0.00650  0.56670  0.51956  1.0000 -0.0967714906
C   C50       1.0  0.49350  0.56670  0.98044  1.0000 -0.0967714906
C   C51       1.0  0.50650  0.93330  0.48044  1.0000 -0.0907246022
C   C52       1.0  0.99350  0.93330  0.01956  1.0000 -0.0967714906
C   C53       1.0  0.99350  0.43330  0.48044  1.0000 -0.0907246022
C   C54       1.0  0.50650  0.43330  0.01956  1.0000 -0.0967714906
C   C55       1.0  0.49350  0.06670  0.51956  1.0000 -0.0967714906
C   C56       1.0  0.00650  0.06670  0.98044  1.0000 -0.0967714906
C   C57       1.0  0.89080  0.54790  0.49839  1.0000 -0.0907246022
C   C58       1.0  0.60920  0.54790  0.00161  1.0000 -0.0907246022
C   C59       1.0  0.39080  0.95210  0.50161  1.0000 -0.0907246022
C   C60       1.0  0.10920  0.95210  0.99839  1.0000 -0.0907246022
C   C61       1.0  0.10920  0.45210  0.50161  1.0000 -0.0907246022
C   C62       1.0  0.39080  0.45210  0.99839  1.0000 -0.0907246022
C   C63       1.0  0.60920  0.04790  0.49839  1.0000 -0.0907246022
C   C64       1.0  0.89080  0.04790  0.00161  1.0000 -0.0907246022
C   C65       1.0  0.59130  0.62187  0.55704  1.0000 0.5977598789
C   C66       1.0  0.90870  0.62187  0.94296  1.0000 0.5977598789
C   C67       1.0  0.09130  0.87813  0.44296  1.0000 0.5977598789
C   C68       1.0  0.40870  0.87813  0.05704  1.0000 0.5977598789
C   C69       1.0  0.40870  0.37813  0.44296  1.0000 0.5977598789
C   C70       1.0  0.09130  0.37813  0.05704  1.0000 0.5977598789
C   C71       1.0  0.90870  0.12187  0.55704  1.0000 0.5977598789
C   C72       1.0  0.59130  0.12187  0.94296  1.0000 0.5977598789
C   C73       1.0  0.66590  0.69380  0.55955  1.0000 -0.0113582249
C   C74       1.0  0.83410  0.69380  0.94045  1.0000 -0.0113582249
C   C75       1.0  0.16590  0.80620  0.44045  1.0000 -0.0113582249
C   C76       1.0  0.33410  0.80620  0.05955  1.0000 -0.0113582249
C   C77       1.0  0.33410  0.30620  0.44045  1.0000 -0.0113582249
C   C78       1.0  0.16590  0.30620  0.05955  1.0000 -0.0113582249
C   C79       1.0  0.83410  0.19380  0.55955  1.0000 -0.0113582249
C   C80       1.0  0.66590  0.19380  0.94045  1.0000 -0.0113582249
C   C81       1.0  0.71290  0.72040  0.59604  1.0000 -0.0907246022
C   C82       1.0  0.78710  0.72040  0.90396  1.0000 -0.0967714906
C   C83       1.0  0.21290  0.77960  0.40396  1.0000 -0.0967714906
C   C84       1.0  0.28710  0.77960  0.09604  1.0000 -0.0907246022
C   C85       1.0  0.28710  0.27960  0.40396  1.0000 -0.0967714906
C   C86       1.0  0.21290  0.27960  0.09604  1.0000 -0.0907246022
C   C87       1.0  0.78710  0.22040  0.59604  1.0000 -0.0907246022
C   C88       1.0  0.71290  0.22040  0.90396  1.0000 -0.0967714906
C   C89       1.0  0.69040  0.73350  0.52461  1.0000 -0.0967714906
C   C90       1.0  0.80960  0.73350  0.97539  1.0000 -0.0967714906
C   C91       1.0  0.19040  0.76650  0.47539  1.0000 -0.0967714906
C   C92       1.0  0.30960  0.76650  0.02461  1.0000 -0.0967714906
C   C93       1.0  0.30960  0.26650  0.47539  1.0000 -0.0967714906
C   C94       1.0  0.19040  0.26650  0.02461  1.0000 -0.0967714906
C   C95       1.0  0.80960  0.23350  0.52461  1.0000 -0.0967714906
C   C96       1.0  0.69040  0.23350  0.97539  1.0000 -0.0967714906
C   C97       1.0  0.78260  0.78590  0.59751  1.0000 -0.0907246022
C   C98       1.0  0.71740  0.78590  0.90249  1.0000 -0.0907246022
C   C99       1.0  0.28260  0.71410  0.40249  1.0000 -0.0907246022
C   C100      1.0  0.21740  0.71410  0.09751  1.0000 -0.0907246022
C   C101      1.0  0.21740  0.21410  0.40249  1.0000 -0.0907246022
C   C102      1.0  0.28260  0.21410  0.09751  1.0000 -0.0907246022
C   C103      1.0  0.71740  0.28590  0.59751  1.0000 -0.0907246022
C   C104      1.0  0.78260  0.28590  0.90249  1.0000 -0.0907246022
C   C105      1.0  0.75910  0.79910  0.52628  1.0000 -0.0907246022
C   C106      1.0  0.74090  0.79910  0.97372  1.0000 -0.0907246022
C   C107      1.0  0.25910  0.70090  0.47372  1.0000 -0.0907246022
C   C108      1.0  0.24090  0.70090  0.02628  1.0000 -0.0907246022
C   C109      1.0  0.24090  0.20090  0.47372  1.0000 -0.0907246022
C   C110      1.0  0.25910  0.20090  0.02628  1.0000 -0.0907246022
C   C111      1.0  0.74090  0.29910  0.52628  1.0000 -0.0907246022
C   C112      1.0  0.75910  0.29910  0.97372  1.0000 -0.0907246022
C   C113      1.0  0.80730  0.82609  0.56275  1.0000 -0.0171709225
C   C114      1.0  0.69270  0.82609  0.93725  1.0000 -0.0171709225
C   C115      1.0  0.30730  0.67391  0.43725  1.0000 -0.0171709225
C   C116      1.0  0.19270  0.67391  0.06275  1.0000 -0.0171709225
C   C117      1.0  0.19270  0.17391  0.43725  1.0000 -0.0171709225
C   C118      1.0  0.30730  0.17391  0.06275  1.0000 -0.0171709225
C   C119      1.0  0.69270  0.32609  0.56275  1.0000 -0.0171709225
C   C120      1.0  0.80730  0.32609  0.93725  1.0000 -0.0171709225
C   C121      1.0  0.88140  0.89724  0.56399  1.0000 0.5977598789
C   C122      1.0  0.61860  0.89724  0.93601  1.0000 0.5977598789
C   C123      1.0  0.38140  0.60276  0.43601  1.0000 0.5977598789
C   C124      1.0  0.11860  0.60276  0.06399  1.0000 0.5977598789
C   C125      1.0  0.11860  0.10276  0.43601  1.0000 0.5977598789
C   C126      1.0  0.38140  0.10276  0.06399  1.0000 0.5977598789
C   C127      1.0  0.61860  0.39724  0.56399  1.0000 0.5977598789
C   C128      1.0  0.88140  0.39724  0.93601  1.0000 0.5977598789
O   O1        1.0  0.32640  0.49709  0.64277  1.0000 -0.4519080954
O   O2        1.0  0.17360  0.49709  0.85723  1.0000 -0.4553576347
O   O3        1.0  0.82640  0.00291  0.35723  1.0000 -0.4519080954
O   O4        1.0  0.67360  0.00291  0.14277  1.0000 -0.4519080954
O   O5        1.0  0.67360  0.50291  0.35723  1.0000 -0.4519080954
O   O6        1.0  0.82640  0.50291  0.14277  1.0000 -0.4519080954
O   O7        1.0  0.17360  0.99709  0.64277  1.0000 -0.4519080954
O   O8        1.0  0.32640  0.99709  0.85723  1.0000 -0.4553576347
O   O9        1.0  0.51310  0.52120  0.67347  1.0000 -0.4077314076
O   O10       1.0  0.98690  0.52120  0.82653  1.0000 -0.4047128198
O   O11       1.0  0.01310  0.97880  0.32653  1.0000 -0.4077314076
O   O12       1.0  0.48690  0.97880  0.17347  1.0000 -0.4077314076
O   O13       1.0  0.48690  0.47880  0.32653  1.0000 -0.4077314076
O   O14       1.0  0.01310  0.47880  0.17347  1.0000 -0.4077314076
O   O15       1.0  0.98690  0.02120  0.67347  1.0000 -0.4047128198
O   O16       1.0  0.51310  0.02120  0.82653  1.0000 -0.4047128198
O   O17       1.0  0.33780  0.49259  0.54650  1.0000 -0.5802906093
O   O18       1.0  0.16220  0.49259  0.95350  1.0000 -0.5802906093
O   O19       1.0  0.83780  0.00741  0.45350  1.0000 -0.5802906093
O   O20       1.0  0.66220  0.00741  0.04650  1.0000 -0.5802906093
O   O21       1.0  0.66220  0.50741  0.45350  1.0000 -0.5802906093
O   O22       1.0  0.83780  0.50741  0.04650  1.0000 -0.5802906093
O   O23       1.0  0.16220  0.99259  0.54650  1.0000 -0.5802906093
O   O24       1.0  0.33780  0.99259  0.95350  1.0000 -0.5802906093
O   O25       1.0  0.23650  0.59416  0.56736  1.0000 -0.4679128353
O   O26       1.0  0.26350  0.59416  0.93264  1.0000 -0.4679128353
O   O27       1.0  0.73650  0.90584  0.43264  1.0000 -0.4679128353
O   O28       1.0  0.76350  0.90584  0.06736  1.0000 -0.4679128353
O   O29       1.0  0.76350  0.40584  0.43264  1.0000 -0.4679128353
O   O30       1.0  0.73650  0.40584  0.06736  1.0000 -0.4679128353
O   O31       1.0  0.26350  0.09416  0.56736  1.0000 -0.4679128353
O   O32       1.0  0.23650  0.09416  0.93264  1.0000 -0.4679128353
O   O33       1.0  0.56190  0.59219  0.59030  1.0000 -0.5174799797
O   O34       1.0  0.93810  0.59219  0.90970  1.0000 -0.5174799797
O   O35       1.0  0.06190  0.90781  0.40970  1.0000 -0.5174799797
O   O36       1.0  0.43810  0.90781  0.09030  1.0000 -0.5174799797
O   O37       1.0  0.43810  0.40781  0.40970  1.0000 -0.5174799797
O   O38       1.0  0.06190  0.40781  0.09030  1.0000 -0.5174799797
O   O39       1.0  0.93810  0.09219  0.59030  1.0000 -0.5174799797
O   O40       1.0  0.56190  0.09219  0.90970  1.0000 -0.5174799797
O   O41       1.0  0.56520  0.59780  0.52308  1.0000 -0.5391769496
O   O42       1.0  0.93480  0.59780  0.97692  1.0000 -0.5391769496
O   O43       1.0  0.06520  0.90220  0.47692  1.0000 -0.5391769496
O   O44       1.0  0.43480  0.90220  0.02308  1.0000 -0.5391769496
O   O45       1.0  0.43480  0.40220  0.47692  1.0000 -0.5391769496
O   O46       1.0  0.06520  0.40220  0.02308  1.0000 -0.5391769496
O   O47       1.0  0.93480  0.09780  0.52308  1.0000 -0.5391769496
O   O48       1.0  0.56520  0.09780  0.97692  1.0000 -0.5391769496
O   O49       1.0  0.95020  0.91035  0.59542  1.0000 -0.5135381905
O   O50       1.0  0.54980  0.91035  0.90458  1.0000 -0.5135381905
O   O51       1.0  0.45020  0.58965  0.40458  1.0000 -0.5135381905
O   O52       1.0  0.04980  0.58965  0.09542  1.0000 -0.5135381905
O   O53       1.0  0.04980  0.08965  0.40458  1.0000 -0.5135381905
O   O54       1.0  0.45020  0.08965  0.09542  1.0000 -0.5135381905
O   O55       1.0  0.54980  0.41035  0.59542  1.0000 -0.5135381905
O   O56       1.0  0.95020  0.41035  0.90458  1.0000 -0.5135381905
O   O57       1.0  0.87060  0.93921  0.53485  1.0000 -0.5391769496
O   O58       1.0  0.62940  0.93921  0.96515  1.0000 -0.5391769496
O   O59       1.0  0.37060  0.56079  0.46515  1.0000 -0.5391769496
O   O60       1.0  0.12940  0.56079  0.03485  1.0000 -0.5391769496
O   O61       1.0  0.12940  0.06079  0.46515  1.0000 -0.5391769496
O   O62       1.0  0.37060  0.06079  0.03485  1.0000 -0.5391769496
O   O63       1.0  0.62940  0.43921  0.53485  1.0000 -0.5391769496
O   O64       1.0  0.87060  0.43921  0.96515  1.0000 -0.5391769496
