# DDEC6 charges by PACMAN v1.1 (https://github.com/mtap-research/PACMAN-charge/)
data_2016[Cd][lvt]3[ASR]1
_chemical_formula_sum              "Cd8 H76 C96 N16 O44"
_cell_length_a       17.0875
_cell_length_b       17.0875
_cell_length_c       20.994
_cell_angle_alpha    55.1439
_cell_angle_beta     124.856
_cell_angle_gamma    127.662

_symmetry_space_group_name_H-M    "P 1"
_symmetry_Int_Tables_number       1

loop_
  _symmetry_equiv_pos_as_xyz
  'x, y, z'

loop_
  _atom_site_type_symbol
  _atom_site_label
  _atom_site_symmetry_multiplicity
  _atom_site_fract_x
  _atom_site_fract_y
  _atom_site_fract_z
  _atom_site_occupancy
  _atom_site_charge
Cd  Cd1       1.0  0.52597  0.37965  0.06787  1.0000 0.8996955888
Cd  Cd2       1.0  0.37965  0.52597  0.43213  1.0000 0.8996955888
Cd  Cd3       1.0  0.47403  0.62035  0.93213  1.0000 0.8996955888
Cd  Cd4       1.0  0.62035  0.47403  0.56787  1.0000 0.8996955888
Cd  Cd5       1.0  0.44364  0.96648  0.40571  1.0000 0.8218163387
Cd  Cd6       1.0  0.96648  0.44364  0.09429  1.0000 0.8218163387
Cd  Cd7       1.0  0.55636  0.03352  0.59429  1.0000 0.8218163387
Cd  Cd8       1.0  0.03352  0.55636  0.90571  1.0000 0.8218163387
H   H1        1.0  0.62240  0.38540  0.33320  1.0000 0.3428273559
H   H2        1.0  0.38540  0.62240  0.16680  1.0000 0.3428273559
H   H3        1.0  0.37760  0.61460  0.66680  1.0000 0.3428273559
H   H4        1.0  0.61460  0.37760  0.83320  1.0000 0.3428273559
H   H5        1.0  0.75340  0.23260  0.10100  1.0000 0.1186657095
H   H6        1.0  0.23260  0.75340  0.39900  1.0000 0.1186657095
H   H7        1.0  0.24660  0.76740  0.89900  1.0000 0.1186657095
H   H8        1.0  0.76740  0.24660  0.60100  1.0000 0.1186657095
H   H9        1.0  0.69740  0.26760  0.24320  1.0000 0.109421371
H   H10       1.0  0.26760  0.69740  0.25680  1.0000 0.109421371
H   H11       1.0  0.30260  0.73240  0.75680  1.0000 0.109421371
H   H12       1.0  0.73240  0.30260  0.74320  1.0000 0.109421371
H   H13       1.0  0.38280  0.88200  0.17190  1.0000 0.1300217197
H   H14       1.0  0.88200  0.38280  0.32810  1.0000 0.1300217197
H   H15       1.0  0.61720  0.11800  0.82810  1.0000 0.1300217197
H   H16       1.0  0.11800  0.61720  0.67190  1.0000 0.1300217197
H   H17       1.0  0.46050  0.98050  0.25270  1.0000 0.1186657095
H   H18       1.0  0.98050  0.46050  0.24730  1.0000 0.1186657095
H   H19       1.0  0.53950  0.01950  0.74730  1.0000 0.1186657095
H   H20       1.0  0.01950  0.53950  0.75270  1.0000 0.1186657095
H   H21       1.0  0.31440  0.16760  0.06570  1.0000 0.1300217197
H   H22       1.0  0.16760  0.31440  0.43430  1.0000 0.1300217197
H   H23       1.0  0.68560  0.83240  0.93430  1.0000 0.1300217197
H   H24       1.0  0.83240  0.68560  0.56570  1.0000 0.1300217197
H   H25       1.0  0.66060  0.09140  0.32690  1.0000 0.1300217197
H   H26       1.0  0.09140  0.66060  0.17310  1.0000 0.1300217197
H   H27       1.0  0.33940  0.90860  0.67310  1.0000 0.1300217197
H   H28       1.0  0.90860  0.33940  0.82690  1.0000 0.1300217197
H   H29       1.0  0.22490  0.06370  0.98600  1.0000 0.1383240768
H   H30       1.0  0.06370  0.22490  0.51400  1.0000 0.1383240768
H   H31       1.0  0.77510  0.93630  0.01400  1.0000 0.1383240768
H   H32       1.0  0.93630  0.77510  0.48600  1.0000 0.1383240768
H   H33       1.0  0.25610  0.77670  0.09700  1.0000 0.1383240768
H   H34       1.0  0.77670  0.25610  0.40300  1.0000 0.1383240768
H   H35       1.0  0.74390  0.22330  0.90300  1.0000 0.1383240768
H   H36       1.0  0.22330  0.74390  0.59700  1.0000 0.1383240768
H   H37       1.0  0.22600  0.79360  0.00550  1.0000 0.1480633305
H   H38       1.0  0.79360  0.22600  0.49450  1.0000 0.1480633305
H   H39       1.0  0.77400  0.20640  0.99450  1.0000 0.1480633305
H   H40       1.0  0.20640  0.77400  0.50550  1.0000 0.1480633305
H   H41       1.0  0.34240  0.85380  0.05530  1.0000 0.1383240768
H   H42       1.0  0.85380  0.34240  0.44470  1.0000 0.1383240768
H   H43       1.0  0.65760  0.14620  0.94470  1.0000 0.1383240768
H   H44       1.0  0.14620  0.65760  0.55530  1.0000 0.1383240768
H   H45       1.0  0.71990  0.05830  0.18610  1.0000 0.1186657095
H   H46       1.0  0.05830  0.71990  0.31390  1.0000 0.1186657095
H   H47       1.0  0.28010  0.94170  0.81390  1.0000 0.1186657095
H   H48       1.0  0.94170  0.28010  0.68610  1.0000 0.1186657095
H   H49       1.0  0.73110  0.89930  0.31380  1.0000 0.1186657095
H   H50       1.0  0.89930  0.73110  0.18620  1.0000 0.1186657095
H   H51       1.0  0.26890  0.10070  0.68620  1.0000 0.1186657095
H   H52       1.0  0.10070  0.26890  0.81380  1.0000 0.1186657095
H   H53       1.0  0.62410  0.81390  0.32920  1.0000 0.1383240768
H   H54       1.0  0.81390  0.62410  0.17080  1.0000 0.1383240768
H   H55       1.0  0.37590  0.18610  0.67080  1.0000 0.1383240768
H   H56       1.0  0.18610  0.37590  0.82920  1.0000 0.1383240768
H   H57       1.0  0.62460  0.89580  0.24040  1.0000 0.1186657095
H   H58       1.0  0.89580  0.62460  0.25960  1.0000 0.1186657095
H   H59       1.0  0.37540  0.10420  0.75960  1.0000 0.1186657095
H   H60       1.0  0.10420  0.37540  0.74040  1.0000 0.1186657095
H   H61       1.0  0.84420  0.71320  0.95030  1.0000 0.3428273559
H   H62       1.0  0.71320  0.84420  0.54970  1.0000 0.3428273559
H   H63       1.0  0.15580  0.28680  0.04970  1.0000 0.3428273559
H   H64       1.0  0.28680  0.15580  0.45030  1.0000 0.3428273559
H   H65       1.0  0.35730  0.95530  0.42330  1.0000 0.1930057802
H   H66       1.0  0.95530  0.35730  0.07670  1.0000 0.1930057802
H   H67       1.0  0.64270  0.04470  0.57670  1.0000 0.1930057802
H   H68       1.0  0.04470  0.64270  0.92330  1.0000 0.1930057802
H   H69       1.0  0.29570  0.97830  0.41610  1.0000 0.2909146087
H   H70       1.0  0.97830  0.29570  0.08390  1.0000 0.2909146087
H   H71       1.0  0.70430  0.02170  0.58390  1.0000 0.2909146087
H   H72       1.0  0.02170  0.70430  0.91610  1.0000 0.2909146087
H   H73       1.0  0.22900  0.92900  0.97500  1.0000 0.3124492527
H   H74       1.0  0.92900  0.22900  0.52500  1.0000 0.3124492527
H   H75       1.0  0.77100  0.07100  0.02500  1.0000 0.3124492527
H   H76       1.0  0.07100  0.77100  0.47500  1.0000 0.3124492527
C   C1        1.0  0.45270  0.15210  0.21610  1.0000 0.3048710958
C   C2        1.0  0.15210  0.45270  0.28390  1.0000 0.3048710958
C   C3        1.0  0.54730  0.84790  0.78390  1.0000 0.3048710958
C   C4        1.0  0.84790  0.54730  0.71610  1.0000 0.3048710958
C   C5        1.0  0.39570  0.08510  0.16690  1.0000 0.0019415045
C   C6        1.0  0.08510  0.39570  0.33310  1.0000 0.0019415045
C   C7        1.0  0.60430  0.91490  0.83310  1.0000 0.0019415045
C   C8        1.0  0.91490  0.60430  0.66690  1.0000 0.0019415045
C   C9        1.0  0.74980  0.37940  0.11080  1.0000 0.3048710958
C   C10       1.0  0.37940  0.74980  0.38920  1.0000 0.3048710958
C   C11       1.0  0.25020  0.62060  0.88920  1.0000 0.3048710958
C   C12       1.0  0.62060  0.25020  0.61080  1.0000 0.3048710958
C   C13       1.0  0.72780  0.26780  0.16330  1.0000 0.0019415045
C   C14       1.0  0.26780  0.72780  0.33670  1.0000 0.0019415045
C   C15       1.0  0.27220  0.73220  0.83670  1.0000 0.0019415045
C   C16       1.0  0.73220  0.27220  0.66330  1.0000 0.0019415045
C   C17       1.0  0.59610  0.40650  0.23220  1.0000 0.5403212594
C   C18       1.0  0.40650  0.59610  0.26780  1.0000 0.5403212594
C   C19       1.0  0.40390  0.59350  0.76780  1.0000 0.5403212594
C   C20       1.0  0.59350  0.40390  0.73220  1.0000 0.5403212594
C   C21       1.0  0.73700  0.52840  0.03620  1.0000 -0.0086839101
C   C22       1.0  0.52840  0.73700  0.46380  1.0000 -0.0086839101
C   C23       1.0  0.26300  0.47160  0.96380  1.0000 -0.0086839101
C   C24       1.0  0.47160  0.26300  0.53620  1.0000 -0.0086839101
C   C25       1.0  0.73500  0.20480  0.14610  1.0000 -0.1084448075
C   C26       1.0  0.20480  0.73500  0.35390  1.0000 -0.1084448075
C   C27       1.0  0.26500  0.79520  0.85390  1.0000 -0.1084448075
C   C28       1.0  0.79520  0.26500  0.64610  1.0000 -0.1084448075
C   C29       1.0  0.56040  0.19740  0.40120  1.0000 0.5556641356
C   C30       1.0  0.19740  0.56040  0.09880  1.0000 0.5556641356
C   C31       1.0  0.43960  0.80260  0.59880  1.0000 0.5556641356
C   C32       1.0  0.80260  0.43960  0.90120  1.0000 0.5556641356
C   C33       1.0  0.52660  0.20520  0.31700  1.0000 -0.0239656798
C   C34       1.0  0.20520  0.52660  0.18300  1.0000 -0.0239656798
C   C35       1.0  0.47340  0.79480  0.68300  1.0000 -0.0239656798
C   C36       1.0  0.79480  0.47340  0.81700  1.0000 -0.0239656798
C   C37       1.0  0.54160  0.29240  0.24700  1.0000 -0.0239656798
C   C38       1.0  0.29240  0.54160  0.25300  1.0000 -0.0239656798
C   C39       1.0  0.45840  0.70760  0.75300  1.0000 -0.0239656798
C   C40       1.0  0.70760  0.45840  0.74700  1.0000 -0.0239656798
C   C41       1.0  0.70110  0.22550  0.23130  1.0000 -0.1254347185
C   C42       1.0  0.22550  0.70110  0.26870  1.0000 -0.1254347185
C   C43       1.0  0.29890  0.77450  0.76870  1.0000 -0.1254347185
C   C44       1.0  0.77450  0.29890  0.73130  1.0000 -0.1254347185
C   C45       1.0  0.68880  0.60200  0.99100  1.0000 0.5752044455
C   C46       1.0  0.60200  0.68880  0.50900  1.0000 0.5752044455
C   C47       1.0  0.31120  0.39800  0.00900  1.0000 0.5752044455
C   C48       1.0  0.39800  0.31120  0.49100  1.0000 0.5752044455
C   C49       1.0  0.36800  0.93820  0.15100  1.0000 -0.2318938462
C   C50       1.0  0.93820  0.36800  0.34900  1.0000 -0.2318938462
C   C51       1.0  0.63200  0.06180  0.84900  1.0000 -0.2318938462
C   C52       1.0  0.06180  0.63200  0.65100  1.0000 -0.2318938462
C   C53       1.0  0.41530  0.99830  0.19880  1.0000 -0.097222106
C   C54       1.0  0.99830  0.41530  0.30120  1.0000 -0.097222106
C   C55       1.0  0.58470  0.00170  0.80120  1.0000 -0.097222106
C   C56       1.0  0.00170  0.58470  0.69880  1.0000 -0.097222106
C   C57       1.0  0.32650  0.10950  0.08740  1.0000 -0.1084448075
C   C58       1.0  0.10950  0.32650  0.41260  1.0000 -0.1084448075
C   C59       1.0  0.67350  0.89050  0.91260  1.0000 -0.1084448075
C   C60       1.0  0.89050  0.67350  0.58740  1.0000 -0.1084448075
C   C61       1.0  0.67950  0.11990  0.28190  1.0000 -0.212233759
C   C62       1.0  0.11990  0.67950  0.21810  1.0000 -0.212233759
C   C63       1.0  0.32050  0.88010  0.71810  1.0000 -0.212233759
C   C64       1.0  0.88010  0.32050  0.78190  1.0000 -0.212233759
C   C65       1.0  0.29730  0.96490  0.07010  1.0000 0.2633190439
C   C66       1.0  0.96490  0.29730  0.42990  1.0000 0.2633190439
C   C67       1.0  0.70270  0.03510  0.92990  1.0000 0.2633190439
C   C68       1.0  0.03510  0.70270  0.57010  1.0000 0.2633190439
C   C69       1.0  0.68670  0.05810  0.26380  1.0000 0.2415808873
C   C70       1.0  0.05810  0.68670  0.23620  1.0000 0.2415808873
C   C71       1.0  0.31330  0.94190  0.73620  1.0000 0.2415808873
C   C72       1.0  0.94190  0.31330  0.76380  1.0000 0.2415808873
C   C73       1.0  0.27400  0.04860  0.03840  1.0000 -0.2391042425
C   C74       1.0  0.04860  0.27400  0.46160  1.0000 -0.2391042425
C   C75       1.0  0.72600  0.95140  0.96160  1.0000 -0.2391042425
C   C76       1.0  0.95140  0.72600  0.53840  1.0000 -0.2391042425
C   C77       1.0  0.26970  0.82710  0.04620  1.0000 -0.212233759
C   C78       1.0  0.82710  0.26970  0.45380  1.0000 -0.212233759
C   C79       1.0  0.73030  0.17290  0.95380  1.0000 -0.212233759
C   C80       1.0  0.17290  0.73030  0.54620  1.0000 -0.212233759
C   C81       1.0  0.71470  0.10010  0.19710  1.0000 -0.2318938462
C   C82       1.0  0.10010  0.71470  0.30290  1.0000 -0.2318938462
C   C83       1.0  0.28530  0.89990  0.80290  1.0000 -0.2318938462
C   C84       1.0  0.89990  0.28530  0.69710  1.0000 -0.2318938462
C   C85       1.0  0.66010  0.88530  0.29840  1.0000 -0.2191322907
C   C86       1.0  0.88530  0.66010  0.20160  1.0000 -0.2191322907
C   C87       1.0  0.33990  0.11470  0.70160  1.0000 -0.2191322907
C   C88       1.0  0.11470  0.33990  0.79840  1.0000 -0.2191322907
C   C89       1.0  0.83090  0.54390  0.04280  1.0000 -0.0239656798
C   C90       1.0  0.54390  0.83090  0.45720  1.0000 -0.0239656798
C   C91       1.0  0.16910  0.45610  0.95720  1.0000 -0.0239656798
C   C92       1.0  0.45610  0.16910  0.54280  1.0000 -0.0239656798
C   C93       1.0  0.91450  0.63690  0.01020  1.0000 0.5403212594
C   C94       1.0  0.63690  0.91450  0.48980  1.0000 0.5403212594
C   C95       1.0  0.08550  0.36310  0.98980  1.0000 0.5403212594
C   C96       1.0  0.36310  0.08550  0.51020  1.0000 0.5403212594
N   N1        1.0  0.47175  0.11665  0.29770  1.0000 -0.3620503111
N   N2        1.0  0.11665  0.47175  0.20230  1.0000 -0.3620503111
N   N3        1.0  0.52825  0.88335  0.70230  1.0000 -0.3620503111
N   N4        1.0  0.88335  0.52825  0.79770  1.0000 -0.3620503111
N   N5        1.0  0.68748  0.42452  0.07980  1.0000 -0.3803235902
N   N6        1.0  0.42452  0.68748  0.42020  1.0000 -0.3803235902
N   N7        1.0  0.31252  0.57548  0.92020  1.0000 -0.3803235902
N   N8        1.0  0.57548  0.31252  0.57980  1.0000 -0.3803235902
N   N9        1.0  0.49313  0.25747  0.18310  1.0000 -0.3803235902
N   N10       1.0  0.25747  0.49313  0.31690  1.0000 -0.3803235902
N   N11       1.0  0.50687  0.74253  0.81690  1.0000 -0.3803235902
N   N12       1.0  0.74253  0.50687  0.68310  1.0000 -0.3803235902
N   N13       1.0  0.83815  0.44865  0.08980  1.0000 -0.3714150875
N   N14       1.0  0.44865  0.83815  0.41020  1.0000 -0.3714150875
N   N15       1.0  0.16185  0.55135  0.91020  1.0000 -0.3714150875
N   N16       1.0  0.55135  0.16185  0.58980  1.0000 -0.3714150875
O   O1        1.0  0.73728  0.69712  0.95420  1.0000 -0.5256958767
O   O2        1.0  0.69712  0.73728  0.54580  1.0000 -0.5256958767
O   O3        1.0  0.26272  0.30288  0.04580  1.0000 -0.5256958767
O   O4        1.0  0.30288  0.26272  0.45420  1.0000 -0.5256958767
O   O5        1.0  0.59896  0.46924  0.16230  1.0000 -0.4833487435
O   O6        1.0  0.46924  0.59896  0.33770  1.0000 -0.4833487435
O   O7        1.0  0.40104  0.53076  0.83770  1.0000 -0.4833487435
O   O8        1.0  0.53076  0.40104  0.66230  1.0000 -0.4833487435
O   O9        1.0  0.61324  0.28036  0.41890  1.0000 -0.5045430524
O   O10       1.0  0.28036  0.61324  0.08110  1.0000 -0.5045430524
O   O11       1.0  0.38676  0.71964  0.58110  1.0000 -0.5045430524
O   O12       1.0  0.71964  0.38676  0.91890  1.0000 -0.5045430524
O   O13       1.0  0.53316  0.10544  0.45440  1.0000 -0.5428573354
O   O14       1.0  0.10544  0.53316  0.04560  1.0000 -0.5428573354
O   O15       1.0  0.46684  0.89456  0.54560  1.0000 -0.5428573354
O   O16       1.0  0.89456  0.46684  0.95440  1.0000 -0.5428573354
O   O17       1.0  0.63838  0.43662  0.29340  1.0000 -0.4357525571
O   O18       1.0  0.43662  0.63838  0.20660  1.0000 -0.4334663911
O   O19       1.0  0.36162  0.56338  0.70660  1.0000 -0.4334663911
O   O20       1.0  0.56338  0.36162  0.79340  1.0000 -0.4334663911
O   O21       1.0  0.24700  0.91140  0.01790  1.0000 -0.1599697279
O   O22       1.0  0.91140  0.24700  0.48210  1.0000 -0.1599697279
O   O23       1.0  0.75300  0.08860  0.98210  1.0000 -0.1599697279
O   O24       1.0  0.08860  0.75300  0.51790  1.0000 -0.1599697279
O   O25       1.0  0.59869  0.56231  0.99300  1.0000 -0.5457534059
O   O26       1.0  0.56231  0.59869  0.50700  1.0000 -0.5457534059
O   O27       1.0  0.40131  0.43769  0.00700  1.0000 -0.5457534059
O   O28       1.0  0.43769  0.40131  0.49300  1.0000 -0.5457534059
O   O29       1.0  0.66080  0.95540  0.31600  1.0000 -0.1599697279
O   O30       1.0  0.95540  0.66080  0.18400  1.0000 -0.1599697279
O   O31       1.0  0.33920  0.04460  0.68400  1.0000 -0.1599697279
O   O32       1.0  0.04460  0.33920  0.81600  1.0000 -0.1599697279
O   O33       1.0  0.90568  0.72472  0.96690  1.0000 -0.4334663911
O   O34       1.0  0.72472  0.90568  0.53310  1.0000 -0.4334663911
O   O35       1.0  0.09432  0.27528  0.03310  1.0000 -0.4334663911
O   O36       1.0  0.27528  0.09432  0.46690  1.0000 -0.4334663911
O   O37       1.0  0.99221  0.62899  0.02620  1.0000 -0.5101144775
O   O38       1.0  0.62899  0.99221  0.47380  1.0000 -0.5101144775
O   O39       1.0  0.00779  0.37101  0.97380  1.0000 -0.5101144775
O   O40       1.0  0.37101  0.00779  0.52620  1.0000 -0.5101144775
O   O41       1.0  0.29150  0.94130  0.39790  1.0000 -0.6672588451
O   O42       1.0  0.94130  0.29150  0.10210  1.0000 -0.6672588451
O   O43       1.0  0.70850  0.05870  0.60210  1.0000 -0.6672588451
O   O44       1.0  0.05870  0.70850  0.89790  1.0000 -0.6672588451
