# DDEC6 charges by PACMAN v1.1 (https://github.com/mtap-research/PACMAN-charge/)
data_2016[Cd][sql]2[ASR]2
_chemical_formula_sum              "Cd6 H36 C72 N2 O30"
_cell_length_a       12.8078
_cell_length_b       12.8078
_cell_length_c       20.4098
_cell_angle_alpha    80.5522
_cell_angle_beta     99.4478
_cell_angle_gamma    106.304

_symmetry_space_group_name_H-M    "P 1"
_symmetry_Int_Tables_number       1

loop_
  _symmetry_equiv_pos_as_xyz
  'x, y, z'

loop_
  _atom_site_type_symbol
  _atom_site_label
  _atom_site_symmetry_multiplicity
  _atom_site_fract_x
  _atom_site_fract_y
  _atom_site_fract_z
  _atom_site_occupancy
  _atom_site_charge
Cd  Cd1       1.0  0.88120  0.52832  0.79789  1.0000 1.0020491301
Cd  Cd2       1.0  0.52832  0.88120  0.70211  1.0000 1.0020491301
Cd  Cd3       1.0  0.11880  0.47168  0.20211  1.0000 1.0020491301
Cd  Cd4       1.0  0.47168  0.11880  0.29789  1.0000 1.0020491301
Cd  Cd5       1.0  0.80816  0.80816  0.75000  1.0000 1.1355498849
Cd  Cd6       1.0  0.19184  0.19184  0.25000  1.0000 1.1355498849
H   H1        1.0  0.13750  0.63510  0.97290  1.0000 0.1282823078
H   H2        1.0  0.24430  0.70130  0.06770  1.0000 0.1228307688
H   H3        1.0  0.04040  0.91380  0.91940  1.0000 0.1282823078
H   H4        1.0  0.60890  0.71310  0.88320  1.0000 0.1282823078
H   H5        1.0  0.48600  0.70260  0.95540  1.0000 0.1228307688
H   H6        1.0  0.62350  0.40190  0.95170  1.0000 0.1228307688
H   H7        1.0  0.20850  0.12890  0.08850  1.0000 0.1282823078
H   H8        1.0  0.10570  0.06230  0.99320  1.0000 0.1228307688
H   H9        1.0  0.31300  0.85380  0.13980  1.0000 0.1282823078
H   H10       1.0  0.63510  0.13750  0.52710  1.0000 0.1282823078
H   H11       1.0  0.70130  0.24430  0.43230  1.0000 0.1228307688
H   H12       1.0  0.91380  0.04040  0.58060  1.0000 0.1282823078
H   H13       1.0  0.71310  0.60890  0.61680  1.0000 0.1282823078
H   H14       1.0  0.70260  0.48600  0.54460  1.0000 0.1228307688
H   H15       1.0  0.40190  0.62350  0.54830  1.0000 0.1228307688
H   H16       1.0  0.12890  0.20850  0.41150  1.0000 0.1282823078
H   H17       1.0  0.06230  0.10570  0.50680  1.0000 0.1228307688
H   H18       1.0  0.85380  0.31300  0.36020  1.0000 0.1282823078
H   H19       1.0  0.86250  0.36490  0.02710  1.0000 0.1282823078
H   H20       1.0  0.75570  0.29870  0.93230  1.0000 0.1228307688
H   H21       1.0  0.95960  0.08620  0.08060  1.0000 0.1282823078
H   H22       1.0  0.39110  0.28690  0.11680  1.0000 0.1282823078
H   H23       1.0  0.51400  0.29740  0.04460  1.0000 0.1228307688
H   H24       1.0  0.37650  0.59810  0.04830  1.0000 0.1228307688
H   H25       1.0  0.79150  0.87110  0.91150  1.0000 0.1282823078
H   H26       1.0  0.89430  0.93770  0.00680  1.0000 0.1228307688
H   H27       1.0  0.68700  0.14620  0.86020  1.0000 0.1282823078
H   H28       1.0  0.36490  0.86250  0.47290  1.0000 0.1282823078
H   H29       1.0  0.29870  0.75570  0.56770  1.0000 0.1228307688
H   H30       1.0  0.08620  0.95960  0.41940  1.0000 0.1282823078
H   H31       1.0  0.28690  0.39110  0.38320  1.0000 0.1282823078
H   H32       1.0  0.29740  0.51400  0.45540  1.0000 0.1228307688
H   H33       1.0  0.59810  0.37650  0.45170  1.0000 0.1228307688
H   H34       1.0  0.87110  0.79150  0.58850  1.0000 0.1282823078
H   H35       1.0  0.93770  0.89430  0.49320  1.0000 0.1228307688
H   H36       1.0  0.14620  0.68700  0.63980  1.0000 0.1282823078
C   C1        1.0  0.00190  0.71890  0.87970  1.0000 0.5863370418
C   C2        1.0  0.07580  0.76780  0.93820  1.0000 -0.0065122654
C   C3        1.0  0.13910  0.70590  0.98230  1.0000 -0.0913996448
C   C4        1.0  0.20320  0.74500  0.03830  1.0000 -0.1475413743
C   C5        1.0  0.08070  0.87050  0.94990  1.0000 -0.1475413743
C   C6        1.0  0.70790  0.56490  0.86330  1.0000 0.5770917355
C   C7        1.0  0.62820  0.55640  0.91130  1.0000 -0.0065122654
C   C8        1.0  0.58620  0.64760  0.91260  1.0000 -0.0978929059
C   C9        1.0  0.51400  0.64120  0.95530  1.0000 -0.1385241703
C   C10       1.0  0.59600  0.46300  0.95320  1.0000 -0.1475413743
C   C11       1.0  0.47900  0.54480  0.00010  1.0000 0.0743351548
C   C12       1.0  0.33650  0.04170  0.18440  1.0000 0.5863370418
C   C13       1.0  0.27080  0.99640  0.12340  1.0000 -0.0065122654
C   C14       1.0  0.20830  0.05870  0.07910  1.0000 -0.0913996448
C   C15       1.0  0.14750  0.01930  0.02280  1.0000 -0.1475413743
C   C16       1.0  0.14650  0.91410  0.00810  1.0000 0.0774917381
C   C17       1.0  0.20730  0.85070  0.05190  1.0000 0.0774917381
C   C18       1.0  0.27030  0.89530  0.10980  1.0000 -0.1385241703
C   C19       1.0  0.71890  0.00190  0.62030  1.0000 0.5863370418
C   C20       1.0  0.76780  0.07580  0.56180  1.0000 -0.0065122654
C   C21       1.0  0.70590  0.13910  0.51770  1.0000 -0.0913996448
C   C22       1.0  0.74500  0.20320  0.46170  1.0000 -0.1475413743
C   C23       1.0  0.87050  0.08070  0.55010  1.0000 -0.1475413743
C   C24       1.0  0.56490  0.70790  0.63670  1.0000 0.5770917355
C   C25       1.0  0.55640  0.62820  0.58870  1.0000 -0.0065122654
C   C26       1.0  0.64760  0.58620  0.58740  1.0000 -0.0978929059
C   C27       1.0  0.64120  0.51400  0.54470  1.0000 -0.1385241703
C   C28       1.0  0.46300  0.59600  0.54680  1.0000 -0.1475413743
C   C29       1.0  0.54480  0.47900  0.49990  1.0000 0.0743351548
C   C30       1.0  0.04170  0.33650  0.31560  1.0000 0.5863370418
C   C31       1.0  0.99640  0.27080  0.37660  1.0000 -0.0065122654
C   C32       1.0  0.05870  0.20830  0.42090  1.0000 -0.0913996448
C   C33       1.0  0.01930  0.14750  0.47720  1.0000 -0.1475413743
C   C34       1.0  0.91410  0.14650  0.49190  1.0000 0.0774917381
C   C35       1.0  0.85070  0.20730  0.44810  1.0000 0.0774917381
C   C36       1.0  0.89530  0.27030  0.39020  1.0000 -0.1385241703
C   C37       1.0  0.99810  0.28110  0.12030  1.0000 0.5863370418
C   C38       1.0  0.92420  0.23220  0.06180  1.0000 -0.0065122654
C   C39       1.0  0.86090  0.29410  0.01770  1.0000 -0.0913996448
C   C40       1.0  0.79680  0.25500  0.96170  1.0000 -0.1475413743
C   C41       1.0  0.91930  0.12950  0.05010  1.0000 -0.1475413743
C   C42       1.0  0.29210  0.43510  0.13670  1.0000 0.5770917355
C   C43       1.0  0.37180  0.44360  0.08870  1.0000 -0.0065122654
C   C44       1.0  0.41380  0.35240  0.08740  1.0000 -0.0978929059
C   C45       1.0  0.48600  0.35880  0.04470  1.0000 -0.1385241703
C   C46       1.0  0.40400  0.53700  0.04680  1.0000 -0.1475413743
C   C47       1.0  0.52100  0.45520  0.99990  1.0000 0.0774917381
C   C48       1.0  0.66350  0.95830  0.81560  1.0000 0.5863370418
C   C49       1.0  0.72920  0.00360  0.87660  1.0000 -0.0065122654
C   C50       1.0  0.79170  0.94130  0.92090  1.0000 -0.0913996448
C   C51       1.0  0.85250  0.98070  0.97720  1.0000 -0.1475413743
C   C52       1.0  0.85350  0.08590  0.99190  1.0000 0.0774917381
C   C53       1.0  0.79270  0.14930  0.94810  1.0000 0.0774917381
C   C54       1.0  0.72970  0.10470  0.89020  1.0000 -0.1385241703
C   C55       1.0  0.28110  0.99810  0.37970  1.0000 0.5863370418
C   C56       1.0  0.23220  0.92420  0.43820  1.0000 -0.0065122654
C   C57       1.0  0.29410  0.86090  0.48230  1.0000 -0.0913996448
C   C58       1.0  0.25500  0.79680  0.53830  1.0000 -0.1475413743
C   C59       1.0  0.12950  0.91930  0.44990  1.0000 -0.1475413743
C   C60       1.0  0.43510  0.29210  0.36330  1.0000 0.5770917355
C   C61       1.0  0.44360  0.37180  0.41130  1.0000 -0.0065122654
C   C62       1.0  0.35240  0.41380  0.41260  1.0000 -0.0978929059
C   C63       1.0  0.35880  0.48600  0.45530  1.0000 -0.1385241703
C   C64       1.0  0.53700  0.40400  0.45320  1.0000 -0.1475413743
C   C65       1.0  0.45520  0.52100  0.50010  1.0000 0.0743351548
C   C66       1.0  0.95830  0.66350  0.68440  1.0000 0.5863370418
C   C67       1.0  0.00360  0.72920  0.62340  1.0000 -0.0065122654
C   C68       1.0  0.94130  0.79170  0.57910  1.0000 -0.0913996448
C   C69       1.0  0.98070  0.85250  0.52280  1.0000 -0.1475413743
C   C70       1.0  0.08590  0.85350  0.50810  1.0000 0.0774917381
C   C71       1.0  0.14930  0.79270  0.55190  1.0000 0.0774917381
C   C72       1.0  0.10470  0.72970  0.60980  1.0000 -0.1385241703
N   N1        1.0  0.00190  0.00190  0.75000  1.0000 0.6675174056
N   N2        1.0  0.99810  0.99810  0.25000  1.0000 0.6675174056
O   O1        1.0  0.94090  0.77230  0.84490  1.0000 -0.5599826754
O   O2        1.0  0.00350  0.62590  0.87120  1.0000 -0.5284788789
O   O3        1.0  0.75600  0.48980  0.87060  1.0000 -0.5538168283
O   O4        1.0  0.72090  0.64170  0.81730  1.0000 -0.5389239968
O   O5        1.0  0.31670  0.12330  0.20280  1.0000 -0.5872797401
O   O6        1.0  0.40980  0.00040  0.21640  1.0000 -0.5215845586
O   O7        1.0  0.92220  0.99580  0.78030  1.0000 -0.4250471474
O   O8        1.0  0.77230  0.94090  0.65510  1.0000 -0.5599826754
O   O9        1.0  0.62590  0.00350  0.62880  1.0000 -0.5284788789
O   O10       1.0  0.48980  0.75600  0.62940  1.0000 -0.5538168283
O   O11       1.0  0.64170  0.72090  0.68270  1.0000 -0.5389239968
O   O12       1.0  0.12330  0.31670  0.29720  1.0000 -0.5872797401
O   O13       1.0  0.00040  0.40980  0.28360  1.0000 -0.5215845586
O   O14       1.0  0.99580  0.92220  0.71970  1.0000 -0.4218053103
O   O15       1.0  0.05910  0.22770  0.15510  1.0000 -0.5599826754
O   O16       1.0  0.99650  0.37410  0.12880  1.0000 -0.5284788789
O   O17       1.0  0.24400  0.51020  0.12940  1.0000 -0.5538168283
O   O18       1.0  0.27910  0.35830  0.18270  1.0000 -0.5389239968
O   O19       1.0  0.68330  0.87670  0.79720  1.0000 -0.5872797401
O   O20       1.0  0.59020  0.99960  0.78360  1.0000 -0.5215845586
O   O21       1.0  0.07780  0.00420  0.21970  1.0000 -0.4218053103
O   O22       1.0  0.22770  0.05910  0.34490  1.0000 -0.5599826754
O   O23       1.0  0.37410  0.99650  0.37120  1.0000 -0.5284788789
O   O24       1.0  0.51020  0.24400  0.37060  1.0000 -0.5538168283
O   O25       1.0  0.35830  0.27910  0.31730  1.0000 -0.5389239968
O   O26       1.0  0.87670  0.68330  0.70280  1.0000 -0.5872797401
O   O27       1.0  0.99960  0.59020  0.71640  1.0000 -0.5215845586
O   O28       1.0  0.00420  0.07780  0.28030  1.0000 -0.4218053103
O   O29       1.0  0.08000  0.08000  0.75000  1.0000 -0.2767216147
O   O30       1.0  0.92000  0.92000  0.25000  1.0000 -0.2675412179
